data_str_m3_o13_o16_f0_pcu.sym.94
_audit_creation_date              2012-12-10T17:29:23-0500
_audit_creation_method            fapswitch 2.2
_symmetry_space_group_name_H-M    P1
_symmetry_Int_Tables_number       1
_space_group_crystal_system       triclinic
_cell_length_a                    12.012762
_cell_length_b                    12.832484
_cell_length_c                    13.169177
_cell_angle_alpha                 87.017118
_cell_angle_beta                  113.438932
_cell_angle_gamma                 94.01493
_cell_volume                      1857.34317604

loop_
_atom_site_label
_atom_site_type_symbol
_atom_type_description
_atom_site_fract_x
_atom_site_fract_y
_atom_site_fract_z
_atom_type_partial_charge
Br1   Br    Br    0.588939 0.204210 0.340368 -0.519570
Br2   Br    Br    0.593032 0.654545 0.206178 -0.611089
C1    C     C_R   0.475030 0.299784 0.493229 0.940430
C2    C     C_R   0.609743 0.517425 0.824892 -0.108145
C3    C     C_R   0.536116 0.811868 0.496698 -0.050280
C4    C     C_R   0.566671 0.496632 0.708112 0.918123
C5    C     C_R   0.457645 0.188377 0.486565 -0.114564
C6    C     C_R   0.389374 0.029299 0.553046 -0.212025
C7    C     C_R   0.388220 0.136416 0.539084 -0.250679
C8    C     C_R   0.520403 0.133410 0.438088 0.172127
C9    C     C_R   0.527711 0.025891 0.457828 0.114796
C10   C     C_R   0.461494 0.974422 0.515952 0.145091
C11   C     C_R   0.466605 0.868027 0.535026 -0.262044
C12   C     C_R   0.526138 0.550587 0.959989 0.062073
C13   C     C_R   0.605719 0.861547 0.443257 -0.198114
C14   C     C_R   0.601038 0.968422 0.423122 -0.160368
C15   C     C_R   0.015145 0.609753 0.409208 -0.303220
C16   C     C_R   0.523308 0.700464 0.501864 0.891112
C17   C     C_R   0.133597 0.597745 0.416245 0.020614
C18   C     C_R   0.154990 0.451213 0.538397 -0.031904
C19   C     C_R   0.035716 0.459925 0.533311 0.087444
C20   C     C_R   0.965165 0.540603 0.468102 0.081348
C21   C     C_R   0.846230 0.549773 0.463495 -0.007818
C22   C     C_R   0.866186 0.401915 0.583438 0.058909
C23   C     C_R   0.534140 0.484186 0.880623 0.052087
C24   C     C_R   0.985296 0.390518 0.591680 -0.318506
C25   C     C_R   0.433874 0.507976 0.291770 0.948029
C26   C     C_R   0.272553 0.407300 0.012564 -0.168354
C27   C     C_R   0.390363 0.508155 0.172116 -0.094048
C28   C     C_R   0.691908 0.603830 0.860975 -0.210429
C29   C     C_R   0.679178 0.671512 0.933679 -0.146288
C30   C     C_R   0.590048 0.649136 0.975013 -0.105795
C31   C     C_3   0.577018 0.255303 0.833333 -0.785853
C32   C     C_R   0.447918 0.518760 0.014480 0.019501
C33   C     C_R   0.358305 0.436414 0.968023 0.108963
C34   C     C_R   0.362241 0.375950 0.885099 -0.285932
C35   C     C_R   0.456709 0.392101 0.849640 0.208783
C36   C     C_R   0.463302 0.555430 0.119580 0.194603
C37   C     C_R   0.288679 0.443139 0.114775 -0.229066
H1    H     H_    0.230438 0.409761 0.154605 0.170463
H2    H     H_    0.171346 0.651500 0.370735 0.140518
H3    H     H_    0.298266 0.309380 0.855345 0.137812
H4    H     H_    0.210632 0.390034 0.589070 0.118732
H5    H     H_    0.200771 0.348153 0.974361 0.144487
H6    H     H_    0.750646 0.629056 0.818670 0.155402
H7    H     H_    0.566402 0.712760 0.011277 0.183560
H8    H     H_    0.730440 0.745983 0.949705 0.151217
H9    H     H_    0.414146 0.828234 0.577654 0.154159
H10   H     H_    0.393788 0.270500 0.739392 0.213360
H11   H     H_    0.583707 0.202472 0.772066 0.238941
H12   H     H_    0.659430 0.817294 0.413153 0.185827
H13   H     H_    0.569324 0.207283 0.903191 0.255377
H14   H     H_    0.661308 0.306684 0.864543 0.245917
H15   H     H_    0.337296 0.989836 0.596018 0.149982
H16   H     H_    0.654923 0.004589 0.380569 0.194499
H17   H     H_    0.337026 0.179005 0.573213 0.162734
H18   H     H_    0.792100 0.612455 0.415105 0.167486
H19   H     H_    0.827965 0.347670 0.628168 0.134322
H20   H     H_    0.963136 0.672584 0.358044 0.165752
H21   H     H_    0.037226 0.327686 0.642925 0.139767
N1    N     N_R   0.798200 0.480260 0.519790 -0.099237
N2    N     N_R   0.201820 0.519740 0.480210 -0.101128
N3    N     N_2   0.471226 0.316418 0.780799 -0.313213
O1    O     O_R   0.579910 0.341070 0.505280 -0.585267
O2    O     O_R   0.388440 0.353740 0.492580 -0.628874
O3    O     O_R   0.643280 0.490550 0.663120 -0.632324
O4    O     O_R   0.451810 0.503220 0.650420 -0.606208
O5    O     O_R   0.611560 0.646260 0.507420 -0.624340
O6    O     O_R   0.420090 0.658930 0.494720 -0.627937
O7    O     O_R   0.548190 0.496780 0.349580 -0.547871
O8    O     O_R   0.356720 0.509450 0.336880 -0.633731
Zn1   Zn    Zn3+2 0.627850 0.491540 0.508480 0.989652
Zn2   Zn    Zn3+2 0.372150 0.508460 0.491520 0.950220

loop_
_geom_bond_atom_site_label_1
_geom_bond_atom_site_label_2
_ccdc_geom_bond_type
C27   C36   A    
C12   C32   A    
C11   H9    S    
C9    C10   A    
N2    Zn2   S    
O6    Zn2   S    
C22   N1    A    
H10   N3    S    
C15   C20   A    
C13   H12   S    
C25   C27   S    
C9    C14   A    
Br2   C36   S    
C28   H6    S    
C34   H3    S    
C33   C34   A    
C31   N3    S    
C6    C10   A    
C23   C35   A    
C27   C37   A    
C16   O6    A    
C21   N1    A    
C2    C23   A    
C6    C7    A    
C14   H16   S    
C25   O8    A    
C7    H17   S    
C29   H8    S    
C1    O1    A    
C10   C11   A    
C31   H13   S    
C31   H14   S    
C1    O2    A    
C25   O7    A    
C30   H7    S    
C15   H20   S    
O4    Zn2   S    
N1    Zn1   S    
C22   H19   S    
C4    O4    A    
C35   N3    S    
C19   C24   A    
C22   C24   A    
C1    C5    S    
O1    Zn1   S    
C12   C23   A    
C18   N2    A    
C28   C29   A    
C2    C28   A    
C3    C13   A    
C24   H21   S    
C8    C9    A    
C17   N2    A    
C16   O5    A    
C13   C14   A    
C5    C7    A    
C4    O3    A    
C18   H4    S    
O2    Zn2   S    
C18   C19   A    
C2    C4    S    
C32   C33   A    
C5    C8    A    
O8    Zn2   S    
C37   H1    S    
C21   H18   S    
C20   C21   A    
C34   C35   A    
C6    H15   S    
O7    Zn1   S    
C3    C16   S    
C26   C37   A    
C15   C17   A    
C31   H11   S    
C19   C20   A    
C3    C11   A    
C26   H5    S    
C29   C30   A    
O3    Zn1   S    
Br1   C8    S    
C17   H2    S    
C26   C33   A    
C12   C30   A    
O5    Zn1   S    
C32   C36   A    
