#======================================================================

# CRYSTAL DATA

#----------------------------------------------------------------------

data_VESTA_phase_1


_pd_phase_name                         ALFFIVE_3_Fe
_cell_length_a                         14.47500
_cell_length_b                         14.47495
_cell_length_c                         7.75148
_cell_angle_alpha                      90.00021
_cell_angle_beta                       89.99934
_cell_angle_gamma                      89.98904
_symmetry_space_group_name_H-M         P 1
_symmetry_Int_Tables_number            1

loop_
_symmetry_equiv_pos_as_xyz
   x, y, z

loop_
   _atom_site_label
   _atom_site_fract_x
   _atom_site_fract_y
   _atom_site_fract_z
C	0.2713596325741566 0.4524907880866483 0.6433970770988434	
C	0.2288714456792433 0.0486908960551831 0.6420686915761253	
C	0.2290825861787401 0.4524424010998518 0.3577973525985069	
C	0.2712612730877051 0.0486635375819581 0.3568403720972553	
C	0.0486619478221018 0.2712584667518963 0.3568433231047957	
C	0.4524416624382814 0.2290837447520839 0.3577910777382889	
C	0.4524896120468486 0.2713585030290152 0.6433931424705994	
C	0.0486892001749179 0.2288698003185496 0.6420693142994073	
C	0.9524421923542224 0.2290849845137847 0.6422120782550560	
C	0.5486632561604678 0.2712595979023121 0.6431554120390789	
C	0.5486886682910833 0.2288700086121358 0.3579304193340844	
C	0.9524887933675275 0.2713589403201298 0.3566099965872965	
C	0.7288698349124725 0.0486897518471233 0.3579348706065597	
C	0.7713588329982772 0.4524887015267003 0.3566089323955690	
C	0.7712607908046634 0.0486652551687961 0.6431585329423739	
C	0.7290839821099712 0.4524427421928642 0.6422111407760078	
C	0.4524426210229951 0.7290838008153527 0.6422086618431293	
C	0.0486633654673970 0.7712609836544974 0.6431541011439325	
C	0.0486880171843336 0.7288714539236287 0.3579280945138411	
C	0.4524890927326704 0.7713594753559169 0.3566068851152284	
C	0.2288688463160977 0.5486903272569184 0.3579360253003516	
C	0.2713587621560127 0.9524892086853821 0.3566063196781588	
C	0.2712603048762905 0.5486644148193355 0.6431607147735461	
C	0.2290839655523853 0.9524422981251010 0.6422097266258192	
C	0.7713602048800391 0.9524912728228468 0.6433936623649654	
C	0.7288704240760078 0.5486903135872723 0.6420705435445567	
C	0.7290832482018735 0.9524421638237898 0.3577960725973084	
C	0.7712602945665007 0.5486621886297003 0.3568435072231922	
C	0.5486624764413806 0.7712605777335746 0.3568410050133469	
C	0.9524399983691437 0.7290838908984155 0.3577901096304316	
C	0.9524894091076280 0.7713588182037573 0.6433925425787685	
C	0.5486903910865926 0.7288702742550487 0.6420666748767163	
H	0.2860038955960621 0.4142834256556387 0.7611593823799373	
H	0.2112783762244049 0.0869637493220313 0.7588536937686325	
H	0.2132214061161854 0.4143809236094154 0.2399296043496887	
H	0.2873583966426350 0.0872576123204207 0.2401426980530539	
H	0.0872555822543348 0.2873556198895962 0.2401457786482064	
H	0.4143800238394832 0.2132213539758868 0.2399246413469642	
H	0.4142828320122048 0.2860037165045879 0.7611570615824255	
H	0.0869631417740694 0.2112780941786334 0.7588504044131892	
H	0.9143813722437881 0.2132212539204379 0.7600788039782150	
H	0.5872570259344275 0.2873548305373670 0.7598532903695597	
H	0.5869599745398897 0.2112776198509318 0.2411444220318433	
H	0.9142799361892905 0.2860030355905444 0.2388513129634094	
H	0.7112787548253381 0.0869607544634686 0.2411495591334761	
H	0.7860047758722989 0.4142796803750041 0.2388491300500735	
H	0.7873574133068479 0.0872587658546457 0.7598578283159786	
H	0.7132219636129320 0.4143814855042302 0.7600764696520848	
H	0.4143808947663906 0.7132225201643115 0.7600758439858483	
H	0.0872568371942648 0.7873577876163422 0.7598523993435750	
H	0.0869617118544877 0.7112782521035178 0.2411448850505824	
H	0.4142824273382543 0.7860032617895605 0.2388430900930564	
H	0.2112776255323623 0.5869613878561567 0.2411503685560668	
H	0.2860043645407418 0.9142795831383840 0.2388448982430457	
H	0.2873573022541478 0.5872578996723776 0.7598588515615106	
H	0.2132210078670055 0.9143801298702231 0.7600767646773550	
H	0.7860044685932049 0.9142842670756196 0.7611559833866408	
H	0.7112769275021713 0.5869640378660920 0.7588533837841168	
H	0.7132216381279258 0.9143808396510559 0.2399282626545764	
H	0.7873574404432518 0.5872562045227852 0.2401469808622178	
H	0.5872570791798919 0.7873566246562224 0.2401438418894591	
H	0.9143793123427720 0.7132201296539964 0.2399233230595784	
H	0.9142812935366990 0.7860040090590650 0.7611556444097790	
H	0.5869618641276562 0.7112788263761803 0.7588520302116080	
Fe	0.2505146967733305 0.2505119521346230 0.4992473951958105	
Fe	0.7505115476078904 0.2505066864928847 0.5007558751806913	
Fe	0.2505144843635357 0.7505066078690845 0.5007484226412708	
Fe	0.7505149329170308 0.7505136346684308 0.4992504421540860	
Al	0.2488606191688632 0.2488564455156083 -0.0013362217641929	
Al	0.7488554754802234 0.2488553761767228 0.0013327841082401	
Al	0.2488557281965669 0.7488587754421997 0.0013280605250607	
Al	0.7488621981200093 0.7488587644407737 -0.0013322650191742	
F	0.2502542518257345 0.2502654582774433 0.7572692963793695	
F	0.2503817558820136 0.2503686488998664 0.2402980513282486	
F	0.1648539747875359 0.1648717789365616 -0.0029659079480028	
F	0.2166902416031115 0.3634452012141082 0.9983507000770016	
F	0.3634393694723955 0.2166492960227101 0.9983398289873162	
F	0.7503692035046939 0.2503595597954378 0.7596944757547954	
F	0.7502433183463643 0.2502563192129530 0.2427178440582541	
F	0.6648403459897061 0.1648778865699302 0.0029216337831201	
F	0.7166867306122316 0.3634448340122268 0.0016554045413979	
F	0.8634303032490042 0.2166411068726642 0.0016715260444562	
F	0.2503747987715793 0.7503586339570681 0.7596928097940170	
F	0.2502521148057399 0.7502751528049169 0.2427177454769869	
F	0.1648759758949983 0.6648479101333846 0.0029647221784790	
F	0.2166430781824678 0.8634380075260373 0.0016492214425627	
F	0.3634453975840971 0.7166928121304236 0.0016236779755964	
F	0.7502628210959515 0.7502725006544647 0.7572723915606236	
F	0.7503737932893868 0.7503602467219215 0.2403035338850411	
F	0.6648528670499888 0.6648789209599280 -0.0029508062060633	
F	0.7166964932740653 0.8634489602457400 0.9983539914417898	
F	0.8634394354193649 0.7166463168364843 0.9983358827125444	
N	0.4039660307947863 0.2504228440035959 0.5006117584071036	
N	0.0972862798918538 0.2501506734909520 0.4993940063935878	
N	0.2504233453435026 0.4039665388266559 0.5006157779458551	
N	0.2501519922534590 0.0972888554875992 0.4993932282361943	
N	0.9039665716140228 0.2504256051391195 0.4993957449200906	
N	0.5972875557331101 0.2501501590070477 0.5006019930069712	
N	0.7504228574613468 0.4039668510522461 0.4993923519979764	
N	0.7501520298161301 0.0972896098033694 0.5006062479004226	
N	0.4039664492637264 0.7504251036355106 0.4993915607462026	
N	0.0972877032569811 0.7501534707919695 0.5005987360270064	
N	0.2504230620668527 0.9039661646389229 0.4993884902495917	
N	0.2501508618008453 0.5972892529555545 0.5006088703795464	
N	0.9039650582663306 0.7504233198598232 0.5006126029076978	
N	0.5972882288957823 0.7501528911494177 0.4993921336027881	
N	0.7504238625304245 0.9039667664052881 0.5006140288566089	
N	0.7501503515195779 0.5972871762540830 0.4993950665842219	
	  	
