#======================================================================

# CRYSTAL DATA

#----------------------------------------------------------------------

data_VESTA_phase_1


_pd_phase_name                         GaFFIVE_3_Fe
_cell_length_a                         14.45469
_cell_length_b                         14.45479
_cell_length_c                         7.98137
_cell_angle_alpha                      90.00114
_cell_angle_beta                       89.99948
_cell_angle_gamma                      90.10888
_symmetry_space_group_name_H-M         P 1
_symmetry_Int_Tables_number            1

loop_
_symmetry_equiv_pos_as_xyz
   x, y, z

loop_
   _atom_site_label
   _atom_site_fract_x
   _atom_site_fract_y
   _atom_site_fract_z
C	0.2689091493491697 0.4527805912152242 0.6398463927799840	
C	0.2298079846754480 0.0492580212598542 0.6391163757839500	
C	0.2307151194104216 0.4529051349477921 0.3600809394198318	
C	0.2694469129348055 0.0490886864483868 0.3604125037425006	
C	0.0490895069363288 0.2694467784751812 0.3604092224441185	
C	0.4529049811090051 0.2307160403502070 0.3600774265320466	
C	0.4527783205259802 0.2689099156762420 0.6398445911774070	
C	0.0492553758593589 0.2298111509619453 0.6391117307234893	
C	0.9529064585815036 0.2307163041285976 0.6399203735664997	
C	0.5490895077555844 0.2694458571683881 0.6395900744359807	
C	0.5492566527670231 0.2298094399346534 0.3608863742193565	
C	0.9527809725373727 0.2689090482116587 0.3601537502571030	
C	0.7298111745286855 0.0492554959063971 0.3608924459996078	
C	0.7689099968469658 0.4527802512761018 0.3601679189399769	
C	0.7694453939093169 0.0490907845972592 0.6395785555964705	
C	0.7307176600016141 0.4529100889500304 0.6399182897805367	
C	0.4529075815813464 0.7307174195648681 0.6399142004007157	
C	0.0490887530982998 0.7694468193553882 0.6395865068138656	
C	0.0492564228331525 0.7298090716954124 0.3608907283995090	
C	0.4527801528817470 0.7689087919785125 0.3601588462112566	
C	0.2298099461463198 0.5492547566444627 0.3608906222816226	
C	0.2689100373255144 0.9527779611454428 0.3601539803941284	
C	0.2694469844808374 0.5490915207594371 0.6395951453349449	
C	0.2307156357410015 0.9529078935209470 0.6399265013132428	
C	0.7689075985808579 0.9527871196790867 0.6398319076266892	
C	0.7298102747872005 0.5492584969599805 0.6391089006141588	
C	0.7307164777019386 0.9529098055817626 0.3600783495784202	
C	0.7694474102474086 0.5490906144431835 0.3604214846624598	
C	0.5490896764443882 0.7694458323220860 0.3604131397809858	
C	0.9529094703104737 0.7307162078613846 0.3600810482055513	
C	0.9527815700409726 0.7689099641762682 0.6398388364983011	
C	0.5492566691521308 0.7298112293809531 0.6391075457410982	
H	0.2812797066391127 0.4139426544045546 0.7546283968413574	
H	0.2127363643172237 0.0881641791854398 0.7520937296424224	
H	0.2167790763367941 0.4145654480705961 0.2450340192658001	
H	0.2848183920826436 0.0882585593905366 0.2471733597299529	
H	0.0882604770970995 0.2848123745979728 0.2471660342438613	
H	0.4145695803757427 0.2167763342990010 0.2450333001721577	
H	0.4139383467826981 0.2812785855069416 0.7546254960530496	
H	0.0881586641599645 0.2127408099423134 0.7520883777858395	
H	0.9145703362643409 0.2167767052107555 0.7549675670911538	
H	0.5882559672869746 0.2848131601726257 0.7528345075495108	
H	0.5881562711783417 0.2127395513412220 0.2479042038166548	
H	0.9139431299476051 0.2812788497332847 0.2453725141486609	
H	0.7127393128462288 0.0881568543973385 0.2479166015752325	
H	0.7812797153388644 0.4139409379327123 0.2453871041808038	
H	0.7848151279805500 0.0882634151116950 0.7528241974582716	
H	0.7167796218236215 0.4145735604863288 0.7549608202990493	
H	0.4145705332404418 0.7167811911688466 0.7549559513630805	
H	0.0882570590386828 0.7848165743009446 0.7528271079324658	
H	0.0881593014205539 0.7127395472630432 0.2479173916169517	
H	0.4139417502931763 0.7812787299204587 0.2453811647146724	
H	0.2127373517661241 0.5881543357183717 0.2479086584237476	
H	0.2812779003197610 0.9139385227049234 0.2453745513522622	
H	0.2848148505212075 0.5882599476450999 0.7528363346463779	
H	0.2167762550863779 0.9145737543340078 0.7549715688388786	
H	0.7812776070903611 0.9139482021616632 0.7546120850107858	
H	0.7127373097400413 0.5881593123192819 0.7520880764102451	
H	0.7167769075274063 0.9145728953625203 0.2450373253114754	
H	0.7848171934168595 0.5882548092147489 0.2471796264850404	
H	0.5882537029141699 0.7848136714795950 0.2471701563976189	
H	0.9145746849187805 0.7167767463648771 0.2450367217518475	
H	0.9139431060053590 0.7812793462598210 0.7546196679046479	
H	0.5881540095019363 0.7127424670109852 0.7520830064235030	
Fe	0.2508033565078126 0.2508023894124666 0.4988994760393931	
Fe	0.7508033786627270 0.2508090182547541 0.5011052864820622	
Fe	0.2507998606796145 0.7508029295331961 0.5010925073884238	
Fe	0.7507996202837840 0.7508033117147405 0.4988838427619379	
Ga	0.2486879622707439 0.2486583174308963 -0.0014504323630243	
Ga	0.7486636356971269 0.2486967961057066 0.0014683616257933	
Ga	0.2486838502739155 0.7486686309637419 0.0014464900876833	
Ga	0.7486771279038092 0.7486838885349925 -0.0014938673906923	
F	0.2519058206687049 0.2518926213197186 0.7493466509515138	
F	0.2494585610187756 0.2494571564801423 0.2475163500958821	
F	0.1601151572193253 0.1601645235751617 -0.0086305263562939	
F	0.2145033701983666 0.3693500078126085 0.0000559860292616	
F	0.3693639757835163 0.2144155829372452 0.0000569241434717	
F	0.7494632612887553 0.2494578583481863 0.7524998089816116	
F	0.7518823445943968 0.2519135676760986 0.2506612616006636	
F	0.6601285492081741 0.1601582182236880 0.0086382829053850	
F	0.7144709289061160 0.3693776968407357 -0.0000521706145810	
F	0.8693384289922107 0.2144530389748097 0.0000064610434225	
F	0.2494885125153867 0.7494385601388630 0.7524927860419266	
F	0.2518815144923077 0.7519145823044291 0.2506609834315127	
F	0.1601695428819699 0.6601235271606767 0.0086321420115538	
F	0.2144468612751929 0.8693494935620411 -0.0000509945696279	
F	0.3693691033911572 0.7144717981223103 -0.0000487032254742	
F	0.7519002208891770 0.7519063563400624 0.7493405265465816	
F	0.7494793862878442 0.7494705804469061 0.2474929494089354	
F	0.6601384623373736 0.6601486449596329 -0.0086391626093280	
F	0.7144723827415378 0.8693666765930438 0.0000257649114897	
F	0.8693491020923477 0.7144354961957923 0.0000034813507057	
N	0.4044426923209853 0.2501990671889807 0.4996599984609023	
N	0.0976279286160035 0.2498695301188591 0.4996671491048122	
N	0.2501970145503132 0.4044426580175988 0.4996620067606158	
N	0.2498669798994599 0.0976265428183106 0.4996697058673286	
N	0.9044415421646822 0.2501976823004033 0.5003386768978734	
N	0.5976266893376762 0.2498681151068640 0.5003328184705818	
N	0.7501988875880938 0.4044468821113534 0.5003442557086165	
N	0.7498686826500793 0.0976305802708748 0.5003295082212773	
N	0.4044429123738393 0.7501981125440196 0.5003395806848949	
N	0.0976288930005952 0.7498686780359689 0.5003321936405668	
N	0.2501981166588228 0.9044431416470368 0.5003424448944551	
N	0.2498689585908422 0.5976275850740722 0.5003349473891147	
N	0.9044426841234320 0.7501994461751520 0.4996595477313619	
N	0.5976279781826140 0.7498690099281997 0.4996636318608982	
N	0.7501978475995421 0.9044453165886746 0.4996570365540595	
N	0.7498688639396920 0.5976275965214349 0.4996718253493520	
	  	
