#======================================================================

# CRYSTAL DATA

#----------------------------------------------------------------------

data_VESTA_phase_1


_pd_phase_name                         SIFSIX_3_Cd
_cell_length_a                         14.97442
_cell_length_b                         14.97442
_cell_length_c                         7.87293
_cell_angle_alpha                      90
_cell_angle_beta                       90
_cell_angle_gamma                      90
_symmetry_space_group_name_H-M         P 1
_symmetry_Int_Tables_number            1

loop_
_symmetry_equiv_pos_as_xyz
   x, y, z

loop_
   _atom_site_label
   _atom_site_fract_x
   _atom_site_fract_y
   _atom_site_fract_z
C	0.2704745555891867 0.4534416158719064 0.6417688697057985	
C	0.2295254444108134 0.0465583881280939 0.6417688697057985	
C	0.2295254444108134 0.4534416158719064 0.3582310982941989	
C	0.2704745555891867 0.0465583881280939 0.3582310982941989	
C	0.0465583881280939 0.2704745555891867 0.3582310982941988	
C	0.4534416158719064 0.2295254444108134 0.3582310982941988	
C	0.4534416158719064 0.2704745555891867 0.6417688697057985	
C	0.0465583881280939 0.2295254444108134 0.6417688697057985	
C	0.9534415478719076 0.2295254444108134 0.6417688697057985	
C	0.5465584521280924 0.2704745555891867 0.6417688697057985	
C	0.5465584521280924 0.2295254444108134 0.3582310982941989	
C	0.9534415478719076 0.2704745555891867 0.3582310982941989	
C	0.7295254614108114 0.0465583881280939 0.3582310982941988	
C	0.7704745385891886 0.4534416158719064 0.3582310982941988	
C	0.7704745385891886 0.0465583881280939 0.6417688697057985	
C	0.7295254614108114 0.4534416158719064 0.6417688697057985	
C	0.4534416158719064 0.7295254614108114 0.6417688697057985	
C	0.0465583881280939 0.7704745385891886 0.6417688697057985	
C	0.0465583881280939 0.7295254614108114 0.3582310982941989	
C	0.4534416158719064 0.7704745385891886 0.3582310982941988	
C	0.2295254444108134 0.5465584521280924 0.3582310982941988	
C	0.2704745555891867 0.9534415478719076 0.3582310982941988	
C	0.2704745555891867 0.5465584521280924 0.6417688697057985	
C	0.2295254444108134 0.9534415478719076 0.6417688697057985	
C	0.7704745385891886 0.9534415478719076 0.6417688697057985	
C	0.7295254614108114 0.5465584521280924 0.6417688697057985	
C	0.7295254614108114 0.9534415478719076 0.3582310982941988	
C	0.7704745385891886 0.5465584521280924 0.3582310982941988	
C	0.5465584521280924 0.7704745385891886 0.3582310982941988	
C	0.9534415478719076 0.7295254614108114 0.3582310982941988	
C	0.9534415478719076 0.7704745385891886 0.6417688697057985	
C	0.5465584521280924 0.7295254614108114 0.6417688697057985	
H	0.2863251354682450 0.4157155001617107 0.7567666196433217	
H	0.2136748305317524 0.0842844998382893 0.7567666196433217	
H	0.2136748305317524 0.4157155001617107 0.2432333493566791	
H	0.2863251354682450 0.0842844998382893 0.2432333493566791	
H	0.0842844998382893 0.2863251354682450 0.2432333493566791	
H	0.4157155001617107 0.2136748305317524 0.2432333493566791	
H	0.4157155001617107 0.2863251354682450 0.7567666196433217	
H	0.0842844998382893 0.2136748305317524 0.7567666196433217	
H	0.9157155681617163 0.2136748305317524 0.7567666196433217	
H	0.5842844318382837 0.2863251354682450 0.7567666196433217	
H	0.5842844318382837 0.2136748305317524 0.2432333493566791	
H	0.9157155681617163 0.2863251354682450 0.2432333493566791	
H	0.7136747965317566 0.0842844998382893 0.2432333493566791	
H	0.7863252034682434 0.4157155001617107 0.2432333493566791	
H	0.7863252034682434 0.0842844998382893 0.7567666196433217	
H	0.7136747965317566 0.4157155001617107 0.7567666196433217	
H	0.4157155001617107 0.7136747965317566 0.7567666196433217	
H	0.0842844998382893 0.7863252034682434 0.7567666196433217	
H	0.0842844998382893 0.7136747965317566 0.2432333493566791	
H	0.4157155001617107 0.7863252034682434 0.2432333493566791	
H	0.2136748305317524 0.5842844318382837 0.2432333493566791	
H	0.2863251354682450 0.9157155681617163 0.2432333493566791	
H	0.2863251354682450 0.5842844318382837 0.7567666196433217	
H	0.2136748305317524 0.9157155681617163 0.7567666196433217	
H	0.7863252034682434 0.9157155681617163 0.7567666196433217	
H	0.7136747965317566 0.5842844318382837 0.7567666196433217	
H	0.7136747965317566 0.9157155681617163 0.2432333493566791	
H	0.7863252034682434 0.5842844318382837 0.2432333493566791	
H	0.5842844318382837 0.7863252034682434 0.2432333493566791	
H	0.9157155681617163 0.7136747965317566 0.2432333493566791	
H	0.9157155681617163 0.7863252034682434 0.7567666196433217	
H	0.5842844318382837 0.7136747965317566 0.7567666196433217	
Cd	0.2500000000000000 0.2500000000000000 0.5000000000000000	
Cd	0.7500000340000028 0.2500000000000000 0.5000000000000000	
Cd	0.2500000000000000 0.7500000340000028 0.5000000000000000	
Cd	0.7500000340000028 0.7500000340000028 0.5000000000000000	
Si	0.2500000000000000 0.2500000000000000 -0.0000000000000000	
Si	0.7500000340000028 0.2500000000000000 -0.0000000000000000	
Si	0.2500000000000000 0.7500000340000028 -0.0000000000000000	
Si	0.7500000340000028 0.7500000340000028 -0.0000000000000000	
F	0.2500000000000000 0.2500000000000000 0.7790445618869840	
F	0.2500000000000000 0.2500000000000000 0.2209554381130161	
F	0.3304745735897823 0.3304745735897823 -0.0033243330883195	
F	0.1695254264102177 0.1695254264102177 -0.0033243330883195	
F	0.1695254264102177 0.3304745735897823 0.0033243540883177	
F	0.3304745735897823 0.1695254264102177 0.0033243540883177	
F	0.7500000340000028 0.2500000000000000 0.7790445618869840	
F	0.7500000340000028 0.2500000000000000 0.2209554381130161	
F	0.8304746075897850 0.3304745735897823 0.0033243540883177	
F	0.6695253924102150 0.1695254264102177 0.0033243540883177	
F	0.6695253924102150 0.3304745735897823 -0.0033243330883195	
F	0.8304746075897850 0.1695254264102177 -0.0033243330883195	
F	0.2500000000000000 0.7500000340000028 0.7790445618869840	
F	0.2500000000000000 0.7500000340000028 0.2209554381130161	
F	0.3304745735897823 0.8304746075897850 0.0033243540883177	
F	0.1695254264102177 0.6695253924102150 0.0033243540883177	
F	0.1695254264102177 0.8304746075897850 -0.0033243330883195	
F	0.3304745735897823 0.6695253924102150 -0.0033243330883195	
F	0.7500000340000028 0.7500000340000028 0.7790445618869840	
F	0.7500000340000028 0.7500000340000028 0.2209554381130161	
F	0.8304746075897850 0.8304746075897850 -0.0033243330883195	
F	0.6695253924102150 0.6695253924102150 -0.0033243330883195	
F	0.6695253924102150 0.8304746075897850 0.0033243540883177	
F	0.8304746075897850 0.6695253924102150 0.0033243540883177	
N	0.4076493615269026 0.2500000000000000 0.5000000000000000	
N	0.0923506384730974 0.2500000000000000 0.5000000000000000	
N	0.2500000000000000 0.4076493615269026 0.5000000000000000	
N	0.2500000000000000 0.0923506384730974 0.5000000000000000	
N	0.9076493615269027 0.2500000000000000 0.5000000000000000	
N	0.5923506384730973 0.2500000000000000 0.5000000000000000	
N	0.7500000340000028 0.4076493615269026 0.5000000000000000	
N	0.7500000340000028 0.0923506384730974 0.5000000000000000	
N	0.4076493615269026 0.7500000340000028 0.5000000000000000	
N	0.0923506384730974 0.7500000340000028 0.5000000000000000	
N	0.2500000000000000 0.9076493615269027 0.5000000000000000	
N	0.2500000000000000 0.5923506384730973 0.5000000000000000	
N	0.9076493615269027 0.7500000340000028 0.5000000000000000	
N	0.5923506384730974 0.7500000340000028 0.5000000000000000	
N	0.7500000340000028 0.9076493615269027 0.5000000000000000	
N	0.7500000340000028 0.5923506384730973 0.5000000000000000	
	  	
