#======================================================================

# CRYSTAL DATA

#----------------------------------------------------------------------

data_VESTA_phase_1


_pd_phase_name                         ALFFIVE_7_Fe
_cell_length_a                         19.44192
_cell_length_b                         19.44197
_cell_length_c                         7.70170
_cell_angle_alpha                      90.09741
_cell_angle_beta                       89.90285
_cell_angle_gamma                      90.00398
_symmetry_space_group_name_H-M         P 1
_symmetry_Int_Tables_number            1

loop_
_symmetry_equiv_pos_as_xyz
   x, y, z

loop_
   _atom_site_label
   _atom_site_fract_x
   _atom_site_fract_y
   _atom_site_fract_z
   _atom_site_charge
C	0.6634043401107901 0.8736753535765733 0.7021106272201386	0.098248
C	0.6131541715259866 0.9244921755234901 0.7073762428283888	-0.182014
C	0.5777676128308010 0.8892383584399325 0.4227268162964209	-0.177653
C	0.6288749627210987 0.8395223647202881 0.4275347398226623	0.103126
C	0.8365193994953107 0.6263769162565078 0.7026765984399733	0.105736
C	0.8867245593715640 0.5755911105806316 0.7082814712703649	-0.181724
C	0.9223235574308248 0.6106424550897368 0.4236151157583286	-0.176719
C	0.8712115200501372 0.6604489477990619 0.4281558399911587	0.095119
C	0.6260356418758496 0.6630746056251605 0.7027292553175641	0.100568
C	0.5751972079824385 0.6128846268724788 0.7080323000079189	-0.181364
C	0.6103768464418012 0.5774104749466069 0.4232900607340018	-0.177084
C	0.6601147309058100 0.6285387024050797 0.4279372426397570	0.098571
C	0.8737570101483323 0.8357552140962273 0.7017203026040686	0.101673
C	0.9243706175302084 0.8861849294859188 0.7073967655930883	-0.180265
C	0.8887223143523835 0.9221941900019712 0.4236650164845604	-0.176554
C	0.8387725977681351 0.8712503228950247 0.4286289928500862	0.097920
C	0.3357549191425274 0.3737566534953964 0.2982839807324836	0.101872
C	0.3861863110137663 0.4243713320493924 0.2926044864846529	-0.180353
C	0.4221941158597627 0.3887238586009840 0.5763422128392104	-0.176564
C	0.3712503475601762 0.3387735081667759 0.5713752479071467	0.097914
C	0.1630742082384240 0.1260352093973204 0.2972705998819636	0.100047
C	0.1128856039118701 0.0751972535341522 0.2919696156770711	-0.181297
C	0.0774101802926868 0.1103770448646596 0.5767069127943572	-0.177043
C	0.1285376206658591 0.1601143321256099 0.5720608565824352	0.098603
C	0.3736750595126908 0.1634049684546201 0.2978902091453029	0.098306
C	0.4244914593743223 0.1131557970499293 0.2926235890782619	-0.181975
C	0.3892370781225341 0.0777687502195488 0.5772724816359185	-0.177458
C	0.3395209222011463 0.1288779280154498 0.5724680041075091	0.103041
C	0.1263799921547035 0.3365199312585804 0.2973161250183360	0.105767
C	0.0755927738562822 0.3867265217553767 0.2917115815038373	-0.181700
C	0.1106423715031783 0.4223248038726036 0.5763759816738219	-0.176707
C	0.1604481515885252 0.3712140649063426 0.5718371307189632	0.095169
C	0.4337696901995505 0.0689517702359842 0.4348401106822242	0.138963
C	0.4870854299549617 0.0163645690872642 0.4297879382999262	-0.122976
C	0.0662743450263359 0.4310764244866285 0.4341159306192562	0.138586
C	0.0129485331081674 0.4836135199912876 0.4295405257213091	-0.122915
C	0.4307221393705105 0.4334074753206421 0.4344538770921811	0.139709
C	0.4833153651006594 0.4867410880751481 0.4297402191985231	-0.126437
C	0.0686046754784038 0.0659123544415480 0.4343352641184076	0.137643
C	0.0160431401202357 0.0125934439733659 0.4295800875578612	-0.121567
C	0.5659132455125894 0.5686045215540921 0.5656630571908345	0.137620
C	0.5125948658136660 0.5160424655226515 0.5704240875686192	-0.121535
C	0.9334067223870348 0.9307216367911919 0.5655537976486081	0.139578
C	0.9867411521221587 0.9833135907231395 0.5702612358361256	-0.126294
C	0.5689520052243170 0.9337719957526195 0.5651607410999920	0.139104
C	0.5163642435826949 0.9870842298976424 0.5702083039016856	-0.123044
C	0.9310774203811272 0.5662754353941658 0.5658760878861505	0.138600
C	0.9836135313177470 0.5129479847823556 0.5704576524678088	-0.122962
H	0.6977116821071235 0.8651023534357570 0.8122172546500873	0.102507
H	0.6089850631311479 0.9572606088646402 0.8219525311869231	0.113549
H	0.5441730875688964 0.8920997700767870 0.3099707729822103	0.112458
H	0.6370053261376897 0.8043873344301337 0.3191131172240710	0.093002
H	0.8015630646316890 0.6349686882062998 0.8112864515589721	0.092596
H	0.8909571704298214 0.5428028534739754 0.8224594921619628	0.112029
H	0.9559169838954223 0.6078362168580963 0.3105096258235614	0.114385
H	0.8633032528840830 0.6951713542428922 0.3185522595451500	0.101889
H	0.6351830430826425 0.6969003922675286 0.8132054499691830	0.100355
H	0.5425374851053005 0.6086450641380788 0.8227444142720870	0.112992
H	0.6075126048121920 0.5439666284310060 0.3099631861797752	0.113297
H	0.6941961915793953 0.6371644935291266 0.3176926512321461	0.100445
H	0.8659408834915971 0.8001278093894489 0.8094675154717710	0.097379
H	0.9573705734008824 0.8903011449372298 0.8212715495262181	0.112048
H	0.8914722288649214 0.9560039125238460 0.3112520958740269	0.113405
H	0.8028346328146204 0.8640044560539623 0.3213126865248283	0.096933
H	0.3001264633724037 0.3659414600755789 0.1905378139012835	0.097334
H	0.3903015732886980 0.4573707387099029 0.1787294891933733	0.112057
H	0.4560051228947720 0.3914713615087805 0.6887517858152710	0.113411
H	0.3640021152704914 0.3028340236958888 0.6786841890928522	0.096933
H	0.1968992054005211 0.1351823562193158 0.1867917468576200	0.100629
H	0.1086450307847771 0.0425377680829368 0.1772579549662500	0.113013
H	0.0439670225732377 0.1075102619057373 0.6900372507297250	0.113292
H	0.1371610438415453 0.1941943596576282 0.6823098404360229	0.100458
H	0.3650992869514769 0.1977171999284891 0.1877950650453923	0.102537
H	0.4572528053798037 0.1089878131106442 0.1780399166159133	0.113520
H	0.3920996924484523 0.0441675198396564 0.6900208416664827	0.112412
H	0.3043892071922680 0.1370031314496467 0.6809018754101219	0.092985
H	0.1349694354350160 0.3015666904109037 0.1886966890036086	0.092630
H	0.0427964707109289 0.3909566176829619 0.1775406387117935	0.112050
H	0.1078343986649942 0.4559119785310010 0.6894888687219145	0.114364
H	0.1951745611727415 0.3633032748087889 0.6814317238091954	0.101839
H	0.5056096113185268 0.0021082770931568 0.3002922237128140	0.099476
H	0.9945084904749919 0.4979391947638454 0.3003674793564334	0.099180
H	0.4976421429730355 0.5052441288024759 0.3004338249443927	0.100362
H	0.0017550479032568 0.9940851622079011 0.3002634513490133	0.098708
H	0.4940867306628726 0.5017544041729433 0.6997375559982153	0.098713
H	0.0052437949238385 0.9976424135325723 0.6995685415528020	0.100334
H	0.5021058444589392 0.0056093668689028 0.6997012124710439	0.099430
H	0.9979383525489098 0.4945078103075519 0.6996312184679624	0.099154
Fe	0.2497597552138387 0.2497300137248747 0.4346329485101391	0.805761
Fe	0.7497425797604020 0.7497649185446839 0.5653728204679910	0.805859
Al	0.2514655937989274 0.2516982916703924 0.9348645371439950	1.676428
Al	0.7517149604042175 0.7514765111398340 0.0651458977535153	1.676535
F	0.2518399529798622 0.2492937491885135 0.1747861089954593	-0.554683
F	0.2491137151699634 0.2516367885737364 0.6948305801582093	-0.555045
F	0.7492784529835326 0.7518529423035798 0.8252172698426283	-0.554581
F	0.7516643751276978 0.7491034742430260 0.3051719544891510	-0.555115
F	0.1873879893775930 0.1898237454746791 0.9354567051599524	-0.634828
F	0.2310142914582988 0.3383149982404847 0.9403968397093768	-0.635600
F	0.3374893193424021 0.2289582125557412 0.9295500659387500	-0.635568
F	0.7289641170596147 0.8374922247383095 0.0705321017215869	-0.635599
F	0.8383284210573926 0.7310222702992306 0.0595314781779767	-0.635670
F	0.6898341863175553 0.6873921775206988 0.0645362751510731	-0.634799
N	0.3315048119149492 0.1712775289501595 0.4356852752173972	-0.245534
N	0.1683946277806850 0.3286131160850581 0.4345614917745537	-0.244429
N	0.3283536261377153 0.3312776486745558 0.4351162775259550	-0.242975
N	0.1710142318208858 0.1681355104820148 0.4348681333419906	-0.249312
N	0.6681350495766967 0.6710143844565865 0.5651333470999417	-0.249345
N	0.8312768047962001 0.8283523295232326 0.5648843566385306	-0.242923
N	0.6712776012102440 0.8315072274254489 0.5643085372933347	-0.245586
N	0.8286138348873384 0.6683960298480067 0.5654390313467572	-0.244359
	  	
