#======================================================================

# CRYSTAL DATA

#----------------------------------------------------------------------

data_VESTA_phase_1


_pd_phase_name                         ALFFIVE_5_Cu_i
_cell_length_a                         19.73837
_cell_length_b                         19.73837
_cell_length_c                         15.72792
_cell_angle_alpha                      89.99984
_cell_angle_beta                       90.00009
_cell_angle_gamma                      89.98431
_symmetry_space_group_name_H-M         P 1
_symmetry_Int_Tables_number            1

loop_
_symmetry_equiv_pos_as_xyz
   x, y, z

loop_
   _atom_site_label
   _atom_site_fract_x
   _atom_site_fract_y
   _atom_site_fract_z
   _atom_site_charge
F	0.2870419114909104 0.1684634421798533 0.3516315195465935	-0.642740
F	0.1633618051120724 0.2627721474965128 0.3505239817802793	-0.657489
F	0.3069671619230390 0.3192890923001998 0.3511276847573964	-0.652584
F	0.6806913813716369 0.6930327099599094 0.1488851326795261	-0.652456
F	0.7372250707956243 0.8366281627227998 0.1494772267755180	-0.657425
F	0.8315293322603987 0.7129634508618862 0.1483725656393877	-0.642736
F	0.6633680570195253 0.7628076593783416 0.6494860610726063	-0.657466
F	0.7870220540370971 0.6684584222653080 0.6483721168572049	-0.642780
F	0.8069823648797269 0.8192797665345318 0.6488652107819042	-0.652590
F	0.1807072226236307 0.1930214279708944 0.8511175161230577	-0.652552
F	0.3315360649061052 0.2129690228353831 0.8516384581647979	-0.642767
F	0.2372252831216504 0.3366326638042017 0.8504877980948676	-0.657462
F	0.2496875908493260 0.2496910579771476 0.4652457364959637	-0.628969
F	0.2502488311392380 0.2490287146345791 0.2368693415326079	-0.629002
F	0.7502904269017341 0.7502996752143972 0.0347551058870896	-0.628957
F	0.7509522435702709 0.7497345459608118 0.2631366473589601	-0.628964
F	0.7496890008716965 0.7496867115447150 0.5347613608093500	-0.629005
F	0.7502478315673485 0.7490374068564359 0.7631367531087119	-0.629013
F	0.2502915211099732 0.2503190725516389 0.9652382040838621	-0.628963
F	0.2509618631164190 0.2497220011079817 0.7368619893150657	-0.628961
N	0.3534605002743899 0.2475106029348040 0.6003568090915680	-0.226593
N	0.1466859515823834 0.2522888434687068 0.6018643716476775	-0.228192
N	0.2525079475731811 0.3533244125452483 0.6009420713952482	-0.227032
N	0.2476434988308018 0.1465577416012512 0.6021714865721765	-0.228026
N	0.6466744725147949 0.7474924266431811 0.8990584150253236	-0.227025
N	0.8534419032734069 0.7523567041713877 0.8978284242049811	-0.228047
N	0.7477118781934736 0.8533142457231182 0.8981357646709442	-0.228179
N	0.7524911770438681 0.6465399719747046 0.8996448207137991	-0.226566
N	0.6466866925454635 0.7522892105448837 0.3981363148213555	-0.228219
N	0.8534599588418582 0.7475104333370715 0.3996429802274382	-0.226603
N	0.7476441931719391 0.6465587293204680 0.3978270895324982	-0.228042
N	0.7525082071230127 0.8533243371006953 0.3990591678220895	-0.227071
N	0.3534420768411415 0.2523562745385730 0.1021727477003358	-0.228059
N	0.1466750209522823 0.2474920638969413 0.1009409902672080	-0.227033
N	0.2524910250471576 0.1465402738887580 0.1003547893526383	-0.226530
N	0.2477124072195462 0.3533142177205010 0.1018648245806143	-0.228158
C	0.3865921182228637 0.2184676187089180 0.6657200325852887	0.097443
C	0.4568722646710822 0.2166174271649741 0.6690685057115389	-0.176460
C	0.4950520153978960 0.2469783960544553 0.6042081907134705	0.102529
C	0.4593079917361853 0.2774187112310999 0.5370150880518468	-0.181323
C	0.3888855789962529 0.2763244899544494 0.5366794678513684	0.099883
C	0.5696697397251684 0.2478209321603966 0.6077742380467597	0.055271
C	0.6060996835310544 0.1912819523597271 0.6374473320662284	-0.130438
C	0.6764963795492490 0.1921007912342931 0.6404053299524930	-0.125594
C	0.7127907010856929 0.2498420897314449 0.6151298802383555	0.067438
C	0.6765599497234771 0.3067226906681233 0.5867563096974158	-0.120055
C	0.6062119464317576 0.3055086390583749 0.5824774590575813	-0.126576
C	0.1135162583616700 0.2815636216325786 0.6669842080059072	0.103991
C	0.0432180737813744 0.2832326435662291 0.6705289460787579	-0.179112
C	0.0050173537744593 0.2526720951555172 0.6057015664829357	0.107717
C	0.0407595573604462 0.2225337558637157 0.5384406518312295	-0.178716
C	0.1111340210088466 0.2238915961434857 0.5381566640797312	0.107249
C	0.9303626972558789 0.2521577909921877 0.6085365690264105	0.053906
C	0.8938719980609501 0.3087874161389072 0.6377225721971107	-0.130367
C	0.8234679530090318 0.3080096794719976 0.6403710146655510	-0.124549
C	0.7872029089010175 0.2502374056976185 0.6150952442912725	0.067929
C	0.8234755391391745 0.1933936211940159 0.5867384083663657	-0.120081
C	0.8938403472191644 0.1945561183432017 0.5827977944342645	-0.126133
C	0.2815433567766887 0.3865560275333158 0.6661100459396317	0.106875
C	0.2833825420471301 0.4568388293704447 0.6695229626378220	-0.176195
C	0.2530401255591418 0.4950056792781670 0.6046177331336686	0.105601
C	0.2226397413367899 0.4592247176255332 0.5374630082112583	-0.179125
C	0.2237586290245263 0.3888350369113400 0.5373949867182736	0.103259
C	0.2522187571194275 0.5696468029170269 0.6079656304457827	0.054964
C	0.3087630780169654 0.6060918860213251 0.6375139463725729	-0.130917
C	0.3079292468232843 0.6764928151042744 0.6403845089796404	-0.124882
C	0.2501804280409353 0.7127995530705828 0.6150959286675157	0.067934
C	0.1933247183212473 0.6765599555975838 0.5867347717249142	-0.119588
C	0.1945446730046538 0.6062049273533515 0.5825727940455593	-0.126167
C	0.2184021663594717 0.1134612505205307 0.6674818245872266	0.098010
C	0.2167088923065091 0.0431354176023596 0.6707296757601660	-0.179594
C	0.2472617709767517 0.0049819109318602 0.6058435243892821	0.104101
C	0.2774220189865458 0.0407405831849064 0.5386141574774674	-0.180873
C	0.2760406011587055 0.1111283971236062 0.5382409335960521	0.098732
C	0.2478014154307183 0.9303445133833244 0.6085947609695405	0.054753
C	0.1911674742220948 0.8938824216790575 0.6377630774010304	-0.131139
C	0.1919671803546892 0.8234789562526784 0.6403610676427579	-0.124676
C	0.2497562281301310 0.7872128802159345 0.6150744972226293	0.067135
C	0.3066041659687437 0.8234604723254214 0.5867320016263854	-0.120275
C	0.3054141118064159 0.8938227238163218 0.5828163296578980	-0.126799
C	0.6134427070487211 0.7184572603442586 0.8338900857893465	0.106942
C	0.5431598739806738 0.7166183108584101 0.8304759903890988	-0.176147
C	0.5049935844877353 0.7469612305753534 0.8953806355168418	0.105633
C	0.5407738694224028 0.7773621887214892 0.9625357237988750	-0.179184
C	0.6111635310927648 0.7762424632062215 0.9626045730710520	0.103243
C	0.4303527327202951 0.7477820061413010 0.8920331647005116	0.054856
C	0.3939080764638186 0.6912374162930063 0.8624852563600822	-0.130873
C	0.3235069875265727 0.6920711367245477 0.8596148115871453	-0.124844
C	0.2872006809704020 0.7498200882006554 0.8849034806021852	0.067860
C	0.3234400259879098 0.8066758834522093 0.9132646422286768	-0.119534
C	0.3937951066494189 0.8054559589581745 0.9174263645157906	-0.126205
C	0.8865388777063220 0.7815975775011141 0.8325177139828899	0.098077
C	0.9568651299775751 0.7832912835240577 0.8292709934856003	-0.179608
C	0.9950186471930885 0.7527392840871268 0.8941571971803431	0.104008
C	0.9592602702680610 0.7225788416197009 0.9613865181566057	-0.180890
C	0.8888720933066506 0.7239602534758629 0.9617596055161869	0.098765
C	0.0696560099550128 0.7522001377209646 0.8914065328101592	0.054816
C	0.1061180695436852 0.8088338805346797 0.8622373785522504	-0.131129
C	0.1765216412578872 0.8080338762170864 0.8596387401163389	-0.124648
C	0.2127874287911926 0.7502446139292072 0.8849252921993965	0.067087
C	0.1765401099806699 0.6933966448185608 0.9132679744657151	-0.120161
C	0.1061777697092209 0.6945870769535946 0.9171842763032804	-0.126787
C	0.7184373742220678 0.8864847472622285 0.8330154533935005	0.103973
C	0.7167682728993415 0.9567831730311672 0.8294704480791534	-0.179086
C	0.7473286535244783 0.9949833505185474 0.8942983622171142	0.107687
C	0.7774667455146650 0.9592412926444945 0.9615598472913138	-0.178694
C	0.7761089656471351 0.8888664450146363 0.9618437315339308	0.107217
C	0.7478427665329273 0.0696375654985712 0.8914635556250685	0.053858
C	0.6912130692311146 0.1061287385126810 0.8622769829164076	-0.130347
C	0.6919907112880900 0.1765329497713087 0.8596282862119566	-0.124523
C	0.7497631582640455 0.2127978090025162 0.8849041775399502	0.067917
C	0.8066070666421972 0.1765252396217800 0.9132610053326299	-0.120135
C	0.8054446540510968 0.1061603993750896 0.9172017776860395	-0.126059
C	0.7815336954405426 0.6134084937220468 0.8342815106428294	0.097424
C	0.7833837596360271 0.5431280355148516 0.8309323874865638	-0.176433
C	0.7530229978576508 0.5049478464716826 0.8957925620805488	0.102601
C	0.7225824459158989 0.5406912825224778 0.9629855885880041	-0.181374
C	0.7236770291934618 0.6111140019420758 0.9633218424932141	0.099792
C	0.7521798239166262 0.4303304257913912 0.8922253610142635	0.055214
C	0.8087186881747473 0.3939007605991996 0.8625524402057678	-0.130484
C	0.8078999935444531 0.3235039590257618 0.8595939793706298	-0.125522
C	0.7501587184613545 0.2872098793070752 0.8848694123756834	0.067397
C	0.6932779739980172 0.3234401392500510 0.9132430669870052	-0.120076
C	0.6944917620690972 0.3937880752140360 0.9175222952838200	-0.126526
C	0.6135157678933316 0.7815635881585722 0.3330163365266368	0.103974
C	0.5432171784129829 0.7832324966935513 0.3294709544817917	-0.179148
C	0.5050164662745219 0.7526719513229704 0.3942982838134418	0.107739
C	0.5407589716728801 0.7225334619995852 0.4615594475559421	-0.178689
C	0.6111338288871138 0.7238919791634100 0.4618434789505781	0.107209
C	0.4303623758440551 0.7521576099753873 0.3914632269048423	0.053898
C	0.3938719538058819 0.8087874595174842 0.3622770756596623	-0.130324
C	0.3234679237478293 0.8080096599485824 0.3596287468309886	-0.124547
C	0.2872027228675196 0.7502374976639382 0.3849044657043006	0.067967
C	0.3234754432126458 0.6933936408419648 0.4132612465649044	-0.120071
C	0.3938402117673750 0.6945558773106253 0.4172020286455994	-0.126174
C	0.8865924126277103 0.7184675749399291 0.3342806287899758	0.097419
C	0.9568730971222080 0.7166168929237889 0.3309319749351634	-0.176478
C	0.9950534678259153 0.7469777739430894 0.3957922567837586	0.102639
C	0.9593092282756057 0.7774180428389060 0.4629847205493980	-0.181391
C	0.8888861096168150 0.7763238998537725 0.4633203312276024	0.099826
C	0.0696703516710307 0.7478208092369201 0.3922253593326285	0.055257
C	0.1060999801687804 0.6912819746533271 0.3625524916418061	-0.130488
C	0.1764966881369670 0.6921008543423096 0.3595943674889066	-0.125582
C	0.2127909390611153 0.7498419658393950 0.3848696900664603	0.067391
C	0.1765604352251047 0.8067225014295629 0.4132432395963427	-0.120056
C	0.1062125571867834 0.8055088510717702 0.4175224943551935	-0.126542
C	0.7184023275195176 0.6134615037745635 0.3325176057138234	0.098049
C	0.7167088538865096 0.5431349750174976 0.3292705613052918	-0.179632
C	0.7472614361978942 0.5049813922253336 0.3941562377661972	0.104110
C	0.7774223979133221 0.5407401420080855 0.4613851526300778	-0.180976
C	0.7760411912064200 0.6111286284038144 0.4617575809705717	0.098708
C	0.7478006725857007 0.4303440434902362 0.3914061644338065	0.054848
C	0.6911670095926472 0.3938817588409314 0.3622369557266474	-0.131166
C	0.6919669808773499 0.3234781841336214 0.3596390549867577	-0.124699
C	0.7497562605927747 0.2872128667403259 0.3849255943408710	0.067144
C	0.8066038758554157 0.3234604155137899 0.4132681120717603	-0.120273
C	0.8054136900581657 0.3938228057118418 0.4171842323267502	-0.126801
C	0.7815430158330927 0.8865569114419296 0.3338908882682661	0.106860
C	0.7833817307726950 0.9568397892836267 0.3304767315976657	-0.176148
C	0.7530387607352463 0.9950067010339094 0.3953808879446796	0.105682
C	0.7226381550990314 0.9592258796975697 0.4625360527565007	-0.179252
C	0.7237580315365424 0.8888358348202712 0.4626047262953825	0.103309
C	0.7522181929707028 0.0696473508798559 0.3920333115391726	0.054890
C	0.8087627777621534 0.1060919924049369 0.3624852710166908	-0.130869
C	0.8079291366292278 0.1764930065818556 0.3596151265302433	-0.124928
C	0.7501804849497836 0.2127999536956675 0.3849037045536461	0.067913
C	0.6933247636563004 0.1765602554757713 0.4132647219051783	-0.119577
C	0.6945443741116197 0.1062052130446556 0.4174264982103674	-0.126184
C	0.3865387417590283 0.2815975816231905 0.1674828116047723	0.098014
C	0.4568648111086602 0.2832913322751875 0.1707295421345361	-0.179588
C	0.4950181381892123 0.2527393230010321 0.1058434491450804	0.104105
C	0.4592596437368729 0.2225789142219457 0.0386144612559870	-0.180889
C	0.3888715899479152 0.2239597896639807 0.0382416685030051	0.098759
C	0.5696557296584167 0.2522001659434161 0.1085935838539609	0.054692
C	0.6061180641915319 0.3088337964122536 0.1377625436017005	-0.131072
C	0.6765216815218372 0.3080339042876558 0.1403611009476907	-0.124687
C	0.7127875417955850 0.2502447042526574 0.1150745538467124	0.067043
C	0.6765399903597170 0.1933967811011781 0.0867319192728078	-0.120124
C	0.6061775931701594 0.1945872551122588 0.0828157390233718	-0.126782
C	0.1134435396454930 0.2184569494153661 0.1661094190070272	0.106908
C	0.0431610032016808 0.2166185629990357 0.1695237397367673	-0.176183
C	0.0049946304156669 0.2469618592693842 0.1046192254879824	0.105612
C	0.0407747887307300 0.2773623976550962 0.0374638871789503	-0.179176
C	0.1111640380296638 0.2762424823238384 0.0373951390965716	0.103326
C	0.9303535866797202 0.2477823075047012 0.1079667501173203	0.054985
C	0.8939087514784738 0.1912375860393747 0.1375147832126678	-0.130867
C	0.8235076038197747 0.1920711519546252 0.1403851039496697	-0.124893
C	0.7872009886471353 0.2498201700818026 0.1150963160708613	0.067996
C	0.8234403912483238 0.3066761236918336 0.0867351809321248	-0.119651
C	0.8937955080655086 0.3054562609684325 0.0825735290109344	-0.126289
C	0.2815333299431615 0.1134088804343164 0.1657186438806550	0.097384
C	0.2833829785289049 0.0431285885063575 0.1690680827216309	-0.176489
C	0.2530219429098381 0.0049487333705113 0.1042082718478936	0.102637
C	0.2225820052057200 0.0406924524089499 0.0370146400551768	-0.181376
C	0.2236770692296152 0.1111149689577665 0.0366779663906755	0.099794
C	0.2521793367766939 0.9303310332765573 0.1077750009211078	0.055284
C	0.3087184728142885 0.8939011407602140 0.1374477484803056	-0.130465
C	0.3079000027772770 0.8235042474967603 0.1404059108460373	-0.125532
C	0.2501587750240838 0.7872100324450483 0.1151303692946099	0.067431
C	0.1932778449935866 0.8234404972527307 0.0867567211466156	-0.120036
C	0.1944915374176860 0.8937884623892074 0.0824778203293378	-0.126584
C	0.2184377469940043 0.3864842767644650 0.1669845932655100	0.103954
C	0.2167681564792152 0.4567825605322647 0.1705289977713274	-0.179168
C	0.2473283330807741 0.4949829479047323 0.1057011545712548	0.107746
C	0.2774666258395626 0.4592410807896178 0.0384400554777393	-0.178704
C	0.2761089834187507 0.3888664704452620 0.0381566140445785	0.107180
C	0.2478426814796913 0.5696378048505780 0.1085361943896533	0.053870
C	0.1912130735535802 0.6061285060391413 0.1377226648270701	-0.130387
C	0.1919908341509408 0.6765326939147530 0.1403715580567919	-0.124448
C	0.2497631992006878 0.7127977961015316 0.1150956650355784	0.067897
C	0.3066071080651888 0.6765251138279358 0.0867388269520364	-0.120111
C	0.3054445184066503 0.6061602656243772 0.0827977713586453	-0.126113
H	0.3557517016735722 0.1992085002667561 0.7180998155835043	0.110812
H	0.4812521737169245 0.1937572983444248 0.7242333504302664	0.115369
H	0.4859882568245742 0.3013074330519556 0.4842351115019584	0.113627
H	0.3592661829608272 0.2981567686469380 0.4846315170488829	0.107118
H	0.5787784312028640 0.1458103412719733 0.6569422407327375	0.099200
H	0.7042374036111398 0.1479958565668373 0.6636428728014838	0.101398
H	0.7043430414921066 0.3512939851636878 0.5651476984090786	0.102370
H	0.5790632961180530 0.3502510099317415 0.5601909363862178	0.103105
H	0.1452137057697697 0.3030079658859817 0.7170581518300999	0.103990
H	0.0183969866243902 0.3068326224150063 0.7248847124369109	0.113480
H	0.0142196321900514 0.1997071073364457 0.4848646524657012	0.115338
H	0.1406660725578879 0.2041933894069638 0.4850182869095803	0.107099
H	0.9210761661493543 0.3543793883392168 0.6570320058612283	0.099385
H	0.7956823479860505 0.3520946152142828 0.6635447168532299	0.101968
H	0.7957558082925281 0.1487808772238896 0.5651112935204413	0.102476
H	0.9210064178209091 0.1498544748598813 0.5604822104167351	0.103612
H	0.3010414814248948 0.3552585511794120 0.7176827415569053	0.106829
H	0.3061105945949441 0.4814208458975009 0.7245940539729981	0.114826
H	0.1990361829516226 0.4859493942113302 0.4845388291470909	0.113245
H	0.2019665274804898 0.3588702894468491 0.4858893407240007	0.104389
H	0.3542795754669120 0.5788109249661375 0.6569403174135916	0.099175
H	0.3520228483704702 0.7042404558637629 0.6635864380065756	0.101828
H	0.1487406214256159 0.7043432806266756 0.5651225180709866	0.102292
H	0.1497867004506026 0.5790965726080829 0.5603375544368688	0.102941
H	0.1972735354502561 0.1447013990691570 0.7184431561373864	0.109297
H	0.1929284056858866 0.0184183464356030 0.7250505807594206	0.114008
H	0.3004718086428771 0.0143364511466242 0.4850460609261296	0.116039
H	0.2957596491616514 0.1403043566667111 0.4845504422973838	0.110501
H	0.1456008692800239 0.9211436174242387 0.6571310318865371	0.100118
H	0.1478989924960241 0.7956992092160671 0.6635626930081493	0.101432
H	0.3512358155632991 0.7957380613802797 0.5651106062063609	0.102467
H	0.3500801947892972 0.9210140139273088 0.5604447838723280	0.103910
H	0.6447418504595607 0.6989596744810673 0.7823186705988174	0.106797
H	0.5185783374535547 0.6938898088182424 0.7754044691696976	0.114800
H	0.5140487836141542 0.8009651677406942 0.0154601289771094	0.113271
H	0.6411287336585575 0.7980335305286073 0.0141108096297759	0.104431
H	0.4211894799896477 0.6457209737970053 0.8430587766295191	0.099189
H	0.2957595179882816 0.6479773485357042 0.8364123210690702	0.101818
H	0.2956569276916122 0.8512602367265962 0.9348769193524777	0.102286
H	0.4209041406424551 0.8502137420368258 0.9396617396885700	0.102978
H	0.8552989186179548 0.8027265653718269 0.7815548742550474	0.109273
H	0.9815819763483469 0.8070720155765611 0.7749492499741665	0.114003
H	0.9856642872279560 0.6995287091817103 0.0149548025125137	0.116093
H	0.8596959374876697 0.7042413590621217 0.0154504187788521	0.110475
H	0.0788568476534371 0.8544006137636927 0.8428685542681120	0.100101
H	0.2043012427424044 0.8521019933588132 0.8364356819110065	0.101416
H	0.2042625626772436 0.6487643702735452 0.9348884724205340	0.102428
H	0.0789864154950168 0.6499205091098863 0.9395555150238055	0.103872
H	0.6969931019767721 0.8547867126183548 0.7829415929548645	0.104011
H	0.6931679867058754 0.9816044279790050 0.7751146083578473	0.113492
H	0.8002934073661482 0.9857815905121564 0.0151357422280760	0.115340
H	0.7958064529167596 0.8593341397547550 0.0149829214575053	0.107125
H	0.6456210034288660 0.0789240745112978 0.8429672396083695	0.099373
H	0.6479056778810239 0.2043185477671862 0.8364540458276147	0.101966
H	0.8512199740036445 0.2042451979060430 0.9348879540645103	0.102495
H	0.8501464619984913 0.0789937067856513 0.9395174483399943	0.103586
H	0.8007907604342043 0.6442489439385278 0.7818997527816169	0.110796
H	0.8062430138585099 0.5187487717715472 0.7757667091732958	0.115377
H	0.6986931787121905 0.5140108697286444 0.0157653440903656	0.113644
H	0.7018434779770090 0.6407337879134859 0.0153687251102635	0.107178
H	0.8541903050159624 0.4212223920708373 0.8430573006689297	0.099241
H	0.8520047320603630 0.2957629024303426 0.8363558489999241	0.101403
H	0.6487066541341556 0.2956570785380051 0.9348514361892402	0.102392
H	0.6497497319440680 0.4209376693373074 0.9398088237131731	0.103079
H	0.6452126764608481 0.8030073715960644 0.2829423973050341	0.104042
H	0.5183963752400732 0.8068325515903698 0.2751148291818530	0.113471
H	0.5142189504518114 0.6997066913112673 0.5151352474714717	0.115338
H	0.6406659701498023 0.7041929266207922 0.5149807557017764	0.107099
H	0.4210763045134505 0.8543794616495166 0.3429676365867280	0.099370
H	0.2956826498737798 0.8520946023299049 0.3364548713121107	0.101964
H	0.2957559252988525 0.6487809495593129 0.4348881081862714	0.102498
H	0.4210064558101063 0.6498540437829072 0.4395175588300114	0.103612
H	0.8557529634879817 0.6992088887376786 0.2819002505991280	0.110830
H	0.9812527063537833 0.6937569095250075 0.2757670554102678	0.115355
H	0.9859892643491809 0.8013070499479681 0.5157646637822250	0.113617
H	0.8592677015294681 0.7981558946172777 0.5153686187953636	0.107182
H	0.0787785986592320 0.6458103554139031 0.3430575707100424	0.099212
H	0.2042375056545382 0.6479962747860694 0.3363566877792417	0.101407
H	0.2043429730717264 0.8512935997475731 0.4348516023343934	0.102383
H	0.0790630535174821 0.8502507618163677 0.4398087805384147	0.103088
H	0.6972722271458466 0.6447012108039670 0.2815570740493985	0.109293
H	0.6929277353587676 0.5184180731155669 0.2749492957601245	0.113985
H	0.8004718422070149 0.5143359801647134 0.5149535714450708	0.116101
H	0.7957592281318745 0.6403043160753701 0.5154479551874273	0.110543
H	0.6456006557892849 0.4211434451839454 0.3428691324362169	0.100109
H	0.6478991856648249 0.2956994860599738 0.3364365906690941	0.101437
H	0.8512358418581850 0.2957382322471049 0.4348885821816092	0.102478
H	0.8500800047850133 0.4210140749238451 0.4395554404165978	0.103916
H	0.8010411789094043 0.8552594591978175 0.2823191257342056	0.106791
H	0.8061105294013762 0.9814215499449053 0.2754055780185772	0.114817
H	0.6990344096742871 0.9859507875407929 0.5154597940874170	0.113290
H	0.7019654630020259 0.8588717217258143 0.5141101585860737	0.104405
H	0.8542792922746154 0.0788108457499242 0.3430591809043543	0.099185
H	0.8520228491466491 0.2042403814399211 0.3364133982912602	0.101825
H	0.6487408579388813 0.2043433002945143 0.4348771194844767	0.102295
H	0.6497864876208838 0.0790965199863970 0.4396618062400822	0.102995
H	0.3552982710941747 0.3027275876507445 0.2184444668088485	0.109310
H	0.4815818861638101 0.3070723355272567 0.2250508352517209	0.114000
H	0.4856634694985351 0.1995293379968097 0.9850459296449393	0.116110
H	0.3596955034812216 0.2042412743429367 0.9845503961495474	0.110454
H	0.5788569933979740 0.3544004922666500 0.1571312646622421	0.100092
H	0.7043013156959584 0.3521019439149030 0.1635643141463039	0.101423
H	0.7042624835204017 0.1487645114988302 0.0651115479054944	0.102413
H	0.5789864775440159 0.1499207203469199 0.0604445072465169	0.103873
H	0.1447425700317470 0.1989589181689251 0.2176813799414056	0.106821
H	0.0185797632654603 0.1938901802112603 0.2245955547835860	0.114809
H	0.0140496174023138 0.3009658679214359 0.9845396039887789	0.113236
H	0.1411292889983746 0.2980340604926750 0.9858889128029520	0.104380
H	0.9211899098020561 0.1457208801854955 0.1569412584057122	0.099171
H	0.7957601766017277 0.1479771687852597 0.1635875737006443	0.101817
H	0.7956570325588745 0.3512604662732250 0.0651227915922423	0.102328
H	0.9209041565430925 0.3502141820664054 0.0603380426930197	0.103016
H	0.3007918498506645 0.1442493326550867 0.2180996423726884	0.110838
H	0.3062428464481493 0.0187493606034471 0.2242337416947632	0.115388
H	0.1986931256354696 0.0140121934926033 0.9842345755837836	0.113634
H	0.2018447754973501 0.1407344503450410 0.9846295058539792	0.107143
H	0.3541902166848790 0.9212224640694840 0.1569428267062407	0.099173
H	0.3520049476420932 0.7957631366267488 0.1636440511317709	0.101404
H	0.1487066479204647 0.7956572661964870 0.0651482653304602	0.102390
H	0.1497494432022256 0.9209377950593096 0.0601912052473373	0.103056
H	0.1969937691748958 0.3547861109476193 0.2170588889416937	0.104023
H	0.1931682848910459 0.4816036171982980 0.2248851307029673	0.113512
H	0.3002933179045592 0.4857811711494092 0.9848640345528041	0.115344
H	0.2958077608053246 0.3593338444338230 0.9850183461790877	0.107136
H	0.1456210708658908 0.5789239316568819 0.1570325501881557	0.099380
H	0.1479058752529872 0.7043181346912805 0.1635460502745987	0.101946
H	0.3512200087736238 0.7042452074709938 0.0651120745982983	0.102488
H	0.3501463924835983 0.5789939482604354 0.0604823258323372	0.103613
Cu	0.2501993016430142 0.2497743205198980 0.6006595290477204	0.742337
Cu	0.7502255233024574 0.7498009244219923 0.8993430850581513	0.742304
Cu	0.7501997106786026 0.7497744352460752 0.3993425627337491	0.742490
Cu	0.2502259965758830 0.2498005779043632 0.1006592708933545	0.742393
Al	0.2514425695217885 0.2500461500480516 0.3511228219327107	1.689476
Al	0.7499424120863873 0.7485479386809947 0.1488809672776277	1.689259
Al	0.7514423713211538 0.7500498689745614 0.6488845512731927	1.689524
Al	0.2499447387061551 0.2485525881290624 0.8511142736525159	1.689422
	  	
