#======================================================================

# CRYSTAL DATA

#----------------------------------------------------------------------

data_VESTA_phase_1


_pd_phase_name                         ALFFIVE_7_Cd
_cell_length_a                         19.87030
_cell_length_b                         19.86836
_cell_length_c                         8.14207
_cell_angle_alpha                      89.10802
_cell_angle_beta                       90.88847
_cell_angle_gamma                      90.05444
_symmetry_space_group_name_H-M         P 1
_symmetry_Int_Tables_number            1

loop_
_symmetry_equiv_pos_as_xyz
   x, y, z

loop_
   _atom_site_label
   _atom_site_fract_x
   _atom_site_fract_y
   _atom_site_fract_z
   _atom_site_charge
C	0.6539090839384240 0.8689208614531725 0.7058561760555765	0.097725
C	0.6039222980608860 0.9178604380403462 0.7077858640565571	-0.178252
C	0.5855800698435976 0.9005782063784542 0.4193813864466734	-0.173005
C	0.6361144976381274 0.8524880530361230 0.4265587098225261	0.094044
C	0.8503991949709744 0.6305203022916033 0.7044116629086286	0.098303
C	0.9000171386210869 0.5812618645511433 0.7063475318578842	-0.179564
C	0.9157583370590541 0.6034260168845110 0.4188623455873837	-0.171850
C	0.8657208308720191 0.6519937534017854 0.4263406023613434	0.094626
C	0.6338659122307724 0.6463062500045493 0.7081631768718366	0.094570
C	0.5846976735048676 0.5964251329553106 0.7090432674393351	-0.178746
C	0.5965183597322979 0.5878529871761634 0.4175228108437317	-0.170808
C	0.6451512839219314 0.6378954997728300 0.4253519975008864	0.086983
C	0.8726786823568190 0.8419632832610858 0.7011250083789059	0.102059
C	0.9218407148487617 0.8917640692912151 0.7041612691150047	-0.180443
C	0.8931510576308741 0.9184488014153857 0.4226394439351325	-0.174655
C	0.8448541901152290 0.8680263497034424 0.4294666232306749	0.098812
C	0.3419809046986370 0.3726686618951700 0.2989351405774706	0.102386
C	0.3917822204011416 0.4218310777272150 0.2958879852149259	-0.180862
C	0.4184551409184898 0.3931317202771370 0.5774031613452181	-0.174442
C	0.3680317183916332 0.3448331133492804 0.5705957575972406	0.098544
C	0.1463183324701719 0.1338464746843582 0.2918000300304188	0.094524
C	0.0964384842129077 0.0846781006824976 0.2909585174324854	-0.178687
C	0.0878693736812477 0.0965064731178726 0.5824837998492399	-0.171291
C	0.1379083274041750 0.1451393881674549 0.5746097914248270	0.087323
C	0.3689178925379439 0.1539037503942182 0.2941056823739446	0.097388
C	0.4178649205089132 0.1039212492603307 0.2921994733642010	-0.178259
C	0.4005724875994839 0.0855753767341437 0.5806006566849766	-0.173000
C	0.3524754595144264 0.1361058149448363 0.5733991809079713	0.093987
C	0.1305186372823225 0.3504020149138803 0.2955891600729084	0.098135
C	0.0812613711260086 0.4000205536146290 0.2936639694632340	-0.179346
C	0.1034206419088875 0.4157546835497300 0.5811391987872447	-0.171927
C	0.1519885326861929 0.3657182441874530 0.5736529865031028	0.094587
C	0.4351061220319668 0.0683802149619060 0.4375505657319889	0.139302
C	0.4867278418696567 0.0164382165571881 0.4337351067355171	-0.119643
C	0.0660362828705854 0.4339072211003290 0.4389672268404846	0.140609
C	0.0141631757330748 0.4857579414647260 0.4342018398252806	-0.119905
C	0.4311593312330440 0.4336648178617669 0.4377401878364559	0.142580
C	0.4826447718027386 0.4859247826873550 0.4333470936216790	-0.120483
C	0.0658691280144616 0.0644773395344290 0.4383082837871560	0.137631
C	0.0135308975922402 0.0130841731129809 0.4344561257887207	-0.118596
C	0.5644938588233631 0.5658525230441137 0.5616976476472133	0.137555
C	0.5131001480651037 0.5135168842445123 0.5655813523302906	-0.118816
C	0.9336769628852308 0.9311485693582394 0.5623137374508438	0.142439
C	0.9859389948626048 0.9826350842862990 0.5666732891018046	-0.120710
C	0.5683811718958730 0.9351057717048389 0.5624442202257326	0.139324
C	0.5164364974121729 0.9867256492714616 0.5662701025134760	-0.119687
C	0.9339055408241983 0.5660417439368136 0.5610430960775018	0.140645
C	0.9857541834294176 0.5141657104404644 0.5658149770183364	-0.119690
H	0.6821622815813263 0.8547944347492841 0.8175183095631714	0.106368
H	0.5929048228987307 0.9428105157167326 0.8227042330787873	0.113885
H	0.5596852669231351 0.9102544001753383 0.3026340491565352	0.113884
H	0.6515657343449252 0.8258247483792057 0.3171215048921412	0.099770
H	0.8238812660881318 0.6439869515648999 0.8157230242961729	0.100017
H	0.9123268421860307 0.5545571248828666 0.8209305240982016	0.111851
H	0.9406621146781136 0.5960027028917475 0.3022582801914743	0.115718
H	0.8510989303907861 0.6819116726741036 0.3176443332318692	0.105148
H	0.6508459253793073 0.6698980773207242 0.8220250463998293	0.106307
H	0.5622142180108202 0.5812666468938200 0.8252110645947613	0.112600
H	0.5844959595196926 0.5663195931971123 0.2985284502265715	0.115169
H	0.6701829038955195 0.6559639454997724 0.3144248757781375	0.106107
H	0.8624314812256049 0.8103624083621838 0.8090052277121869	0.100934
H	0.9514231230964011 0.8995662243610849 0.8163121841365102	0.113820
H	0.8980003678530237 0.9481044581681204 0.3096893675079437	0.115640
H	0.8124978775106941 0.8568005943878173 0.3236839540173071	0.099406
H	0.3103855277392761 0.3624212792856250 0.1910498361835968	0.100682
H	0.3995882948032851 0.4514130039168747 0.1837396724459653	0.114039
H	0.4481039901074773 0.3979796395045211 0.6903600766166085	0.115589
H	0.3568051571432769 0.3124745086406726 0.6763859528952627	0.099569
H	0.1699037992629617 0.1508256928262775 0.1779283691236765	0.106302
H	0.0812809878004277 0.0621877983250622 0.1747987442184932	0.112617
H	0.0663407682177754 0.0844918404392438 0.7014869950157158	0.115375
H	0.1559797366480764 0.1701817861010034 0.6855168443782685	0.106097
H	0.3548005633116269 0.1821622736978090 0.1824380681769322	0.106443
H	0.4428184976679373 0.0929036652373957 0.1772901621772705	0.113839
H	0.4102462282114491 0.0596813396506300 0.6973534359742427	0.113873
H	0.3258031546568829 0.1515571121725987 0.6828185230503485	0.099797
H	0.1439875466512917 0.3238858763573419 0.1842762910772058	0.100081
H	0.0545578670133832 0.4123340367002588 0.1790846651590385	0.111750
H	0.0959947411858531 0.4406572391078438 0.6977417498986281	0.115732
H	0.1818975885916189 0.3511012203411439 0.6823574476458484	0.105183
H	0.5028795585752935 0.0027363134231599 0.3109093045643687	0.098528
H	0.9967485462875747 0.5007356154880979 0.3108937068404687	0.098881
H	0.4952805168479607 0.5044485280845492 0.3104424497157406	0.099348
H	-0.0026284891852554 0.9979112347999715 0.3114266439616883	0.098699
H	0.4979246625115530 0.4973581544650454 0.6885959364460654	0.098793
H	0.0044595973917168 0.9952671512563176 0.6895936662647566	0.099517
H	0.5027326190478179 0.0028716763940921 0.6891012006907608	0.098534
H	0.0007305571883251 0.4967466437618599 0.6891250857908525	0.098781
Cd	0.2484454060688107 0.2487122633081045 0.4311139206540027	0.830774
Cd	0.7487108745778523 0.7484645449069940 0.5688305834787714	0.830818
Al	0.2504146361926003 0.2503499016312545 0.9320616525932512	1.685096
Al	0.7503019034812848 0.7504807332289942 0.0679108492656680	1.685677
F	0.2487606485941779 0.2524896012865332 0.1563922114453802	-0.600089
F	0.2504742373262637 0.2467928653062384 0.7076357524637901	-0.598664
F	0.7523274006152132 0.7488262538575429 0.8435726023646420	-0.599870
F	0.7469814809627894 0.7504907337056580 0.2923507850063585	-0.598829
F	0.1859971559038059 0.1902269842626441 0.9352824473666411	-0.639032
F	0.2313670137907176 0.3360296666668467 0.9224279099079059	-0.650624
F	0.3347738086027428 0.2257912902414280 0.9385357047520162	-0.648268
F	0.7255931288345191 0.8347866944034926 0.0615972648655434	-0.648411
F	0.8360093624913495 0.7315816438669717 0.0772086069523783	-0.650923
F	0.6902475097570726 0.6859779860439120 0.0648022622034613	-0.639238
N	0.3367119524403023 0.1695743846171790 0.4327191546809860	-0.238572
N	0.1650671338226022 0.3333141300093440 0.4333058300452891	-0.238070
N	0.3303317723961315 0.3349318971100965 0.4341083721669778	-0.236440
N	0.1666765149428926 0.1635188485392793 0.4316249965969902	-0.239100
N	0.6635353173971540 0.6666635701460975 0.5683324250913970	-0.238942
N	0.8349451709329260 0.8303202400476217 0.5659480899940638	-0.236361
N	0.6695848486988917 0.8367251094438920 0.5672245614969484	-0.238898
N	0.8333126418760523 0.6650670174829432 0.5666871448401634	-0.238125
	  	
