#======================================================================

# CRYSTAL DATA

#----------------------------------------------------------------------

data_VESTA_phase_1


_pd_phase_name                         ALFFIVE_2_Cd
_cell_length_a                         14.33898
_cell_length_b                         14.33949
_cell_length_c                         8.14918
_cell_angle_alpha                      91.28191
_cell_angle_beta                       88.73997
_cell_angle_gamma                      88.92934
_symmetry_space_group_name_H-M         P 1
_symmetry_Int_Tables_number            1

loop_
_symmetry_equiv_pos_as_xyz
   x, y, z

loop_
   _atom_site_label
   _atom_site_fract_x
   _atom_site_fract_y
   _atom_site_fract_z
   _atom_site_charge
C	0.5071935479642050 0.7154932546362820 0.1442871493330485	0.093012
C	0.5084589197894970 0.8123626877633778 0.1487628971983325	-0.168000
C	0.4740168690317736 0.2932234546901356 0.1398902614622881	0.098596
C	0.4729288142428305 0.1964263144062829 0.1457273758900546	-0.166834
C	0.2880204821483673 0.5226144383169674 0.1344902559821980	0.097562
C	0.1911638807516483 0.5233326959219514 0.1394374461489035	-0.169554
C	0.7117587442023298 0.4871519808823607 0.1386643803352981	0.092905
C	0.8085757231014764 0.4874279890057770 0.1444805757776316	-0.166240
C	0.4871465231008056 0.7117948818055465 0.8612894240282464	0.092420
C	0.4874255417920661 0.8086094425653776 0.8555462468142936	-0.166024
C	0.5226602553201787 0.2879807316029008 0.8655460100377312	0.097666
C	0.5233617752638151 0.1911258599411969 0.8606123256926844	-0.169655
C	0.7154758104167220 0.5071640362044526 0.8556309311513425	0.092929
C	0.8123398188128151 0.5084381089659751 0.8512659227310899	-0.167828
C	0.2931879819311833 0.4739842728642429 0.8601361654810715	0.098678
C	0.1963818000183768 0.4728761459920861 0.8543165826283378	-0.166780
C	0.4983461979044845 0.1432664527825480 0.0037009088771571	0.171187
C	0.4986191050147879 0.0446313165291385 0.0036526476243282	-0.098281
C	0.4984667871580433 0.8609808394255040 0.0017075284745279	0.167588
C	0.4988616902015002 0.9596064977033488 0.0018621086214080	-0.094124
C	0.8609585522783592 0.4984560337798004 -0.0016404131982724	0.167405
C	0.9595791675494475 0.4988381173311098 -0.0017395354485312	-0.094131
C	0.1432662233256897 0.4983019477630695 -0.0036441229634198	0.170812
C	0.0446240909903797 0.4985796968366410 -0.0035704130969062	-0.098001
H	0.5128540462727907 0.6754867222626916 0.2565157231025059	0.105084
H	0.5170636504947029 0.8502526365273553 0.2644658894163066	0.125219
H	0.4547805844666640 0.3369514640721119 0.2475480482697884	0.104326
H	0.4525108481154468 0.1621878004281405 0.2584971791561421	0.126424
H	0.3280520909550823 0.5407671603529188 0.2427903978111396	0.100527
H	0.1526496106475660 0.5431404108161365 0.2518482828592075	0.125477
H	0.6691382618780972 0.4788096750616190 0.2503860146608114	0.108529
H	0.8432637247811249 0.4789069793345607 0.2607811677726414	0.126407
H	0.4787858888443435 0.6691923447128993 0.7495015840759909	0.108436
H	0.4789040335497903 0.8432806781310874 0.7392460043402759	0.126341
H	0.5408239275952265 0.3279946101654672 0.7572913304977154	0.100485
H	0.5431794743250846 0.1526103377555163 0.7481879270998654	0.125530
H	0.6754718746077535 0.5127951259417949 0.7433765524430941	0.105214
H	0.8502615744920096 0.5170251290456915 0.7356257937852640	0.125136
H	0.3368828367563634 0.4547782059284418 0.7524096468005578	0.104462
H	0.1620938111932550 0.4524434603474167 0.7415629155543748	0.126359
Cd	0.5024423166582153 0.5023893625118284 -0.0001065675961320	0.830745
Al	0.4994650224681229 0.4995580407601795 0.4999295746408911	1.679951
F	0.5032015326409899 0.4971469446261749 0.7241803654250657	-0.599132
F	0.4974159043581334 0.5033650672617219 0.2756769469505090	-0.599407
F	0.4665325296251195 0.6174625373838054 0.5099686580486950	-0.639391
F	0.4142640457748722 0.4146449110772118 0.4998172314996372	-0.648499
F	0.6172906568235489 0.4663405611492077 0.4901679915889904	-0.639672
N	0.4988820187632179 0.3379778134203533 0.0024534531159828	-0.233834
N	0.4971257088576594 0.6662029651373601 0.0030493026447126	-0.237925
N	0.6661917755228581 0.4971081073813848 -0.0031549669025268	-0.238131
N	0.3379840132211631 0.4988437816908318 -0.0024290166443371	-0.233968
	  	
