#======================================================================

# CRYSTAL DATA

#----------------------------------------------------------------------

data_VESTA_phase_1


_pd_phase_name                         ALFFIVE_1_Fe
_cell_length_a                         11.24833
_cell_length_b                         11.09508
_cell_length_c                         7.93102
_cell_angle_alpha                      90.03088
_cell_angle_beta                       89.94930
_cell_angle_gamma                      89.89813
_symmetry_space_group_name_H-M         P 1
_symmetry_Int_Tables_number            1

loop_
_symmetry_equiv_pos_as_xyz
   x, y, z

loop_
   _atom_site_label
   _atom_site_fract_x
   _atom_site_fract_y
   _atom_site_fract_z
   _atom_site_charge
C	0.2542321237654506 0.4570069865929961 0.3657028147355771	0.095709
C	0.1306572622508572 0.4562037975830093 0.3611824659009311	-0.174314
C	0.7471435580739625 0.5415209998216751 0.3661059224079485	0.101039
C	0.8706156054628175 0.5429470522701324 0.3612365519642414	-0.175689
C	0.5430818061218444 0.2573142875440367 0.3672458598560309	0.098477
C	0.5438298010828059 0.1321355074001935 0.3623765856949218	-0.174906
C	0.4582439088427396 0.7437110536549535 0.3657637954860963	0.092595
C	0.4570673009653576 0.8689355218385422 0.3617283397829351	-0.174439
C	0.7472068437524210 0.4585103052740557 0.6349549781013141	0.095577
C	0.8707787197912589 0.4572905804017375 0.6390303132749934	-0.175586
C	0.2538547337213070 0.5425626716550452 0.6334498807444146	0.098479
C	0.1303390012820353 0.5433696708269128 0.6384276131846378	-0.174256
C	0.4564188750969422 0.2576484535546167 0.6335827173400087	0.095618
C	0.4557306112761963 0.1324195343482623 0.6380800637732241	-0.175924
C	0.5421943040205044 0.7435892583365599 0.6332722787679579	0.100530
C	0.5434778271090660 0.8687120799677588 0.6381049499637710	-0.176466
C	0.0662767678614233 0.4998464192507212 0.4997458960482452	0.097618
C	0.9349702991958790 0.4999317759269022 0.4999718580606274	0.098965
C	0.4998705074672297 0.0670755649847972 0.5003211903253394	0.097686
C	0.5000415060255473 0.9340537599074481 0.5000895533972829	0.096030
H	0.3071476993081919 0.4238004169855376 0.2597669361721992	0.108363
H	0.0854218054892406 0.4196556180582001 0.2510699805750545	0.122871
H	0.6940791167347822 0.5718485370926837 0.2595886691822039	0.103515
H	0.9158577851493674 0.5789154814673213 0.2506985881290204	0.120369
H	0.5760069442185733 0.3112618086516017 0.2624288826060396	0.101768
H	0.5801550022515596 0.0858377272286893 0.2524816444982407	0.120589
H	0.4287561359374017 0.6909882192506036 0.2576817328718504	0.110019
H	0.4212976070105486 0.9147722741352327 0.2513029139803118	0.121980
H	0.6949579228479998 0.4289838571336889 0.7432052557590144	0.110318
H	0.9160499586351152 0.4215898279268616 0.7496759742018196	0.122112
H	0.3071358693403756 0.5755692785335329 0.7385007043933577	0.102770
H	0.0846524196061531 0.5796288785622501 0.7486004661626934	0.120576
H	0.4231437259110583 0.3111121128374740 0.7392315588366440	0.107403
H	0.4191726116397411 0.0866333926392487 0.7480321047386814	0.123069
H	0.5726478934595794 0.6898441407749183 0.7393844168942072	0.103056
H	0.5793379042188123 0.9145152572904944 0.7484721554591642	0.120736
Fe	0.5002558298316634 0.5002459365101670 0.5000330953184651	0.608581
Al	0.4977975169321956 0.4981723856261200 -0.0001061326348383	1.667124
F	0.5021682762110959 0.4980488149840675 0.7699447388776194	-0.573901
F	0.4983487294949929 0.5014444333174432 0.2299162607980457	-0.574301
F	0.3877612445670375 0.3879493381803091 -0.0001783861177873	-0.642730
F	0.6470766995483699 0.4547648339755208 0.0039323277239156	-0.643201
F	0.4539880232509391 0.6490785092277419 0.9958848672174935	-0.643006
N	0.3146794351221376 0.4999884944925820 0.4995843236935857	-0.192616
N	0.6864331525432359 0.4999335628288958 0.5004295592000555	-0.198560
N	0.4999652884641969 0.3193350022462433 0.5004127131105621	-0.195086
N	0.5000840571099728 0.6817066399022046 0.4996511795418812	-0.198562
	  	
