#======================================================================

# CRYSTAL DATA

#----------------------------------------------------------------------

data_VESTA_phase_1


_pd_phase_name                         ALFFIVE_15_Fe_i
_cell_length_a                         30.01648
_cell_length_b                         29.24852
_cell_length_c                         7.88139
_cell_angle_alpha                      89.99999
_cell_angle_beta                       90.00050
_cell_angle_gamma                      89.99963
_symmetry_space_group_name_H-M         P 1
_symmetry_Int_Tables_number            1

loop_
_symmetry_equiv_pos_as_xyz
   x, y, z

loop_
   _atom_site_label
   _atom_site_fract_x
   _atom_site_fract_y
   _atom_site_fract_z
   _atom_site_charge
C	0.9319763426311823 0.1016353473052713 0.8971342401633868	0.093803
C	0.9002486810510109 0.0671471980357467 0.9029348409852705	-0.168307
C	0.7698152694144563 0.9362323392419107 0.9049393529069722	-0.115758
C	0.7358250195776789 0.9042388962274879 0.9047031036686140	-0.118518
C	0.5691166149581294 0.7430153688702228 0.8970007073035365	0.089983
C	0.6026585355159277 0.7756343077577130 0.9025683100166858	-0.171780
C	0.4326113447023460 0.6016183223290278 0.8969220205994646	0.104364
C	0.4007087434436044 0.5672918339244944 0.9029636623674462	-0.168656
C	0.2698254424310028 0.4362579926996333 0.9047359622104160	-0.115642
C	0.2358122221900919 0.4042229353901813 0.9044999127003568	-0.116532
C	0.0691323015401856 0.2423709407439239 0.8967697529858906	0.101515
C	0.1025254246043856 0.2751527039932821 0.9025730695420875	-0.170670
C	0.0676530286390990 0.8981220526788862 0.3969172411522528	0.103816
C	0.0992536231055012 0.9327384094812520 0.4029632919475792	-0.167759
C	0.2302084587646179 0.0637012816456576 0.4047228790354867	-0.115721
C	0.2642296324281108 0.0957286773493035 0.4044912186625751	-0.116278
C	0.4311062407412998 0.2573870598923987 0.3967826816677098	0.100029
C	0.3974407610614451 0.2248964492020099 0.4025714400018678	-0.169459
C	0.5676166052141142 0.3987403806911405 0.3971370535118532	0.093011
C	0.5993504253412351 0.4332201560591404 0.4029295526247667	-0.167493
C	0.7302217861548034 0.5637283335952059 0.4049275754864437	-0.116216
C	0.7642231699411502 0.5957111042240187 0.4046950114961446	-0.117459
C	0.9304633687053345 0.7574397558415891 0.3970267087821681	0.091107
C	0.8969598444682138 0.7247760414339173 0.4025845013267684	-0.171802
C	0.0676254468355233 0.1018900413636017 0.6030727471855930	0.103924
C	0.0992216701557689 0.0672759188526774 0.5970286770495273	-0.168977
C	0.2300861584391210 0.9364054986298953 0.5951668616265237	-0.115840
C	0.2640635248750831 0.9043641383706084 0.5954070393511515	-0.117093
C	0.4308687676316068 0.7430338144567077 0.6030241570670697	0.090336
C	0.3973236014827813 0.7756580452589990 0.5974517653950160	-0.171844
C	0.5673877151686170 0.6016427016702506 0.6030581903636285	0.103855
C	0.5992767635426361 0.5673127056300606 0.5970126579873989	-0.168886
C	0.7300500607809082 0.4363809085714537 0.5951487855933487	-0.115563
C	0.7640813291220722 0.4044013144591405 0.5953890068116530	-0.117244
C	0.9304371721878057 0.2425780935238079 0.6029975128613249	0.090774
C	0.8969270869986425 0.2752416324700060 0.5974370448575405	-0.172241
C	0.9319517905028060 0.8983815965075227 0.1028815335836049	0.093362
C	0.9002200456975696 0.9328708205309366 0.0970714466363417	-0.167565
C	0.7696909742169051 0.0638752835506984 0.0951670308964499	-0.116491
C	0.7356557715112223 0.0958506948402924 0.0954014885099995	-0.117265
C	0.5688882528828093 0.2574104947511749 0.1032037216919641	0.100484
C	0.6025461573349695 0.2249198749588065 0.0974114920159376	-0.170640
C	0.4323718132928814 0.3987595441597453 0.1028774577790489	0.093292
C	0.4006315749400283 0.4332404895067009 0.0970855070383943	-0.167329
C	0.2696534444423533 0.5638466966287339 0.0951893092820960	-0.115934
C	0.2356692828765052 0.5958795523057764 0.0954180394369467	-0.116772
C	0.0691021191056562 0.7576450726272211 0.1032124332057968	0.101919
C	0.1024918837040520 0.7248638027267217 0.0974102658890405	-0.171204
C	0.0676524492576158 0.8981216054358594 0.1030843857877295	0.103786
C	0.0992529867443773 0.9327379818843177 0.0970381573848762	-0.167698
C	0.2302081127481911 0.0637009475731005 0.0952767727779876	-0.115661
C	0.2642292631714703 0.0957283381720181 0.0955084476876055	-0.116294
C	0.4311062368399205 0.2573870716971293 0.1032155873876983	0.100066
C	0.3974405503617681 0.2248965451860522 0.0974252590251461	-0.169465
C	0.5676167274882006 0.3987401779299266 0.1028575419744446	0.092869
C	0.5993505920586227 0.4332199043247346 0.0970674693284658	-0.167501
C	0.7302215151017830 0.5637281196290097 0.0950703326696068	-0.116257
C	0.7642228393435402 0.5957109495282527 0.0953037449613375	-0.117466
C	0.9304635395826326 0.7574394886575334 0.1029742139938206	0.091004
C	0.8969599449107434 0.7247758309022314 0.0974145452491473	-0.171674
C	0.9319763670202714 0.1016351460362084 0.6028679553330791	0.093764
C	0.9002487161473928 0.0671469792094561 0.5970660043889029	-0.168236
C	0.7698150228300332 0.9362320898011508 0.5950594869393127	-0.115783
C	0.7358247593555953 0.9042386473691515 0.5952952557913884	-0.118492
C	0.5691157106996609 0.7430151799729280 0.6030071255351916	0.089961
C	0.6026575714585980 0.7756339087124099 0.5974370843741508	-0.171756
C	0.4326115014971704 0.6016180940875360 0.6030805094411648	0.104257
C	0.4007086682324919 0.5672917955536891 0.5970377415817861	-0.168595
C	0.2698253562017952 0.4362579004313096 0.5952643542942865	-0.115622
C	0.2358121239604261 0.4042228348405668 0.5954984996246522	-0.116598
C	0.0691318240355285 0.2423703937126157 0.6032321130504091	0.101433
C	0.1025248259608994 0.2751522346261969 0.5974281655835612	-0.170653
C	0.9319516906143259 0.8983815713754590 0.3971234448678744	0.093209
C	0.9002199670020403 0.9328706655430424 0.4029300073363933	-0.167489
C	0.7696911675239012 0.0638750284317285 0.4048327102150779	-0.116440
C	0.7356559726723100 0.0958504428339418 0.4045971061080229	-0.117214
C	0.5688883355927703 0.2574097645970019 0.3967971120133172	0.100417
C	0.6025459708369737 0.2249191405794335 0.4025891984837820	-0.170645
C	0.4323721493386559 0.3987592621378225 0.3971185595650073	0.093205
C	0.4006318200257772 0.4332400557781630 0.4029107327090445	-0.167298
C	0.2696537429815791 0.5638467934232165 0.4048117470642820	-0.115915
C	0.2356694560482588 0.5958795667010025 0.4045809410858932	-0.116802
C	0.0691026930810501 0.7576444530289350 0.3967915182212886	0.101749
C	0.1024925294228549 0.7248632221037766 0.4025926228710666	-0.171115
C	0.0676257699088089 0.1018894645924621 0.8969296034192666	0.103985
C	0.0992222206101409 0.0672755154805731 0.9029724394710044	-0.168779
C	0.2300864962328822 0.9364049693677088 0.9048342731031548	-0.115817
C	0.2640638639501154 0.9043637119201604 0.9045956932711942	-0.117136
C	0.4308688599343148 0.7430339587168433 0.8969766653760206	0.090366
C	0.3973236861144911 0.7756581406538455 0.9025467273495758	-0.171933
C	0.5673879745481208 0.6016424250423772 0.8969387568146163	0.103736
C	0.5992770785684779 0.5673124008432080 0.9029851093420078	-0.168712
C	0.7300503157295873 0.4363806643218743 0.9048503483384751	-0.115604
C	0.7640816412918352 0.4044010066125015 0.9046100707466189	-0.117208
C	0.9304373277519745 0.2425774540811175 0.8970034054400027	0.090781
C	0.8969272126986936 0.2752410859248599 0.9025635154139687	-0.172238
C	0.6545012633029549 0.8259750276203021 0.7500007067386251	-0.104844
C	0.8835285491289769 0.0492197961062273 0.7499997529187317	0.158054
C	0.8215922828823771 0.9855753847246871 0.7499998749842769	-0.101932
C	0.6203160295177896 0.7928720443330011 0.7500025326961957	0.165280
C	0.7872921769939756 0.9526235618979126 0.7499996959967752	0.122723
C	0.7183504237714082 0.8876160119241112 0.7499989413599610	0.138112
C	0.6840245047565632 0.8546635591830237 0.7499988714934852	-0.105453
C	0.8507298742601975 0.0146829019473593 0.7499991437476966	-0.103842
C	0.1542540387223159 0.3258846860743028 0.7499996544311801	-0.103761
C	0.3837811266210606 0.5494495820143519 0.7500003751156469	0.159103
C	0.3216493495296535 0.4858326613835729 0.7500012951237123	-0.098668
C	0.1201342058463472 0.2925774287689514 0.7500004650949333	0.165331
C	0.2873673426364233 0.4527702283971715 0.7500006840059934	0.125234
C	0.2182265435094451 0.3875301618886121 0.7499987539902809	0.136833
C	0.1838206883029241 0.3545745421849421 0.7499986532344268	-0.103259
C	0.3507633469752627 0.5150080628460447 0.7500002094576663	-0.104609
C	0.3454804002343472 0.1744069158910374 0.2499984531321892	-0.104339
C	0.1158945345225951 0.9508639622232016 0.2500005073679682	0.158576
C	0.1782094770154241 0.0143017287519656 0.2499992956532329	-0.098838
C	0.3795829083828021 0.2077387841847728 0.2499979292630360	0.164984
C	0.2126360817573042 0.0472132310984712 0.2499996915708275	0.124824
C	0.2818056885223998 0.1124361681356092 0.2499998560133099	0.137296
C	0.3161094817481734 0.1455066334643265 0.2499993175914036	-0.102207
C	0.1488826825839533 0.9853466170653974 0.2499996841183794	-0.106129
C	0.8454024905467021 0.6741283264561423 0.2499985434237062	-0.104475
C	0.6160328580455696 0.4511975394087548 0.2499991026771979	0.156247
C	0.6783857675078975 0.5144293913515954 0.2499987525862286	-0.102854
C	0.8792940291159672 0.7075492042493895 0.2499988828121185	0.165067
C	0.7127480189258656 0.5473227959426841 0.2499987048260455	0.122526
C	0.7817285987701317 0.6123015657172639 0.2499995843880359	0.138689
C	0.8160398362845551 0.6452682954102035 0.2499994971778492	-0.105065
C	0.6490878403123405 0.4854896385688230 0.2499997766855872	-0.104824
C	0.3454373210168363 0.8260435713923561 0.7499981212477286	-0.104330
C	0.1158545099353221 0.0491677806788763 0.7500001705380024	0.160384
C	0.1781510436963520 0.9857829475643839 0.7500005888070500	-0.099689
C	0.3796486659706633 0.7929127258976912 0.7499984648138392	0.165121
C	0.2125549793104821 0.9528774927947987 0.7500007724497746	0.124390
C	0.2815637179355577 0.8877024476243105 0.7500016907337436	0.139573
C	0.3159029056769983 0.8547272600475249 0.7500010450590898	-0.104008
C	0.1488257750644777 0.0147189439502450 0.7499996845155572	-0.107907
C	0.8453100105297194 0.3259202130852576 0.7500005293037522	-0.105989
C	0.6161775722887602 0.5494760966350346 0.7499990604189900	0.160602
C	0.6782548574405556 0.4858765705628798 0.7499993201437392	-0.098156
C	0.8792348762755039 0.2924815467487779 0.7500002769621382	0.166743
C	0.7125284958817438 0.4528462475444791 0.7499992646404978	0.125103
C	0.7816216536512336 0.3877888137786719 0.7499998314033577	0.138700
C	0.8159445512741440 0.3547989649300932 0.7499998156949700	-0.103064
C	0.6491527686838030 0.5150473527293317 0.7499993572079683	-0.106477
C	0.6544572894440969 0.1744687033596364 0.2499995571365307	-0.105421
C	0.8834868539934649 0.9508139222314234 0.2499999826117673	0.157342
C	0.8215260498154264 0.0144984708954006 0.2500002469382289	-0.100948
C	0.6203860462410883 0.2077742234174438 0.2499999681566873	0.166997
C	0.7872111068111465 0.0474664930871348 0.2500001437463736	0.125361
C	0.7181037157532956 0.1125185393519159 0.2499989871742958	0.135713
C	0.6838134074435116 0.1455691818034905 0.2499987765736908	-0.102381
C	0.8506646762351310 0.9853786360317063 0.2499996799924893	-0.103244
C	0.1541700295280963 0.6741680958575663 0.2499998236218250	-0.104484
C	0.3839288762231766 0.4512278173595343 0.2499982171293805	0.155754
C	0.3215187468269943 0.5144692926950629 0.2500010849980354	-0.103542
C	0.1200792046025216 0.7074551653607194 0.2500010295124198	0.167105
C	0.2871517798969613 0.5473952419090576 0.2500011182763576	0.124286
C	0.2181207859118734 0.6125546080899144 0.2499989858723142	0.136483
C	0.1837309058626544 0.6454926363945925 0.2499987816924812	-0.103134
C	0.3508312750315445 0.4855293046120491 0.2499993610945086	-0.104031
H	0.9457356521852073 0.1155098836591856 0.0143447486860513	0.099839
H	0.8886297795708660 0.0541057750993734 0.0244885413861577	0.117733
H	0.7834072364213511 0.9490772701093054 0.0239440179570239	0.107019
H	0.7222025500869542 0.8915275211523530 0.0237193180482171	0.115622
H	0.5556569213637088 0.7288768693509737 0.0142478382196312	0.099958
H	0.6152821893715814 0.7874392301773209 0.0242932200060448	0.122861
H	0.4466083362991736 0.6156327504277149 0.0133485971894383	0.093730
H	0.3890304429868383 0.5543154969458350 0.0245274301941541	0.118236
H	0.2833664764535442 0.4490337506824634 0.0239676492465386	0.107354
H	0.2222618091491499 0.3915710438367225 0.0237633426421866	0.115044
H	0.0555015525122183 0.2280143974041058 0.0132348417806909	0.092157
H	0.1150679825363079 0.2870117576824331 0.0243311658146093	0.122849
H	0.0548062046872277 0.8829696913282216 0.5132999209726683	0.093886
H	0.1111819590805280 0.9454580826362026 0.5245408616716133	0.117705
H	0.2166555493479906 0.0509559286194529 0.5239794631025718	0.107222
H	0.2777557772097434 0.1084059098297892 0.5237628646846146	0.115110
H	0.4458430964554874 0.2705646037789523 0.5132334131082181	0.092965
H	0.3851570465089139 0.2127471753457367 0.5243226619500441	0.122427
H	0.5549438856258139 0.3837843465879369 0.5143031737564259	0.100539
H	0.6113551713358732 0.4458882294453402 0.5244810457173690	0.117726
H	0.7166082969664292 0.5509183383204531 0.5239509296158781	0.106980
H	0.7778144880011164 0.6084521954868962 0.5237263876392625	0.115633
H	0.9449839007190685 0.7704594835060543 0.5142583583234884	0.099655
H	0.8847115620308454 0.7125408523449286 0.5242845771443879	0.122590
H	0.0547773852638830 0.1170356271211714 0.4866732612050076	0.093865
H	0.1111556128302850 0.0545417214499694 0.4754759637708623	0.117591
H	0.2165274726066090 0.9491704324054617 0.4759590416259664	0.106606
H	0.2776477185958726 0.8916437517351261 0.4763312230464616	0.114965
H	0.4443370238534731 0.7288944846717192 0.4857928252320380	0.100060
H	0.3847248100410153 0.7874524580566962 0.4756848610324849	0.122790
H	0.5534095513567434 0.6156685325308124 0.4866140314823380	0.093530
H	0.6109811988665323 0.5543254207902026 0.4754903087642990	0.118250
H	0.7164808706478357 0.4491561062351722 0.4759685094611453	0.107245
H	0.7776719435755537 0.3916858422591061 0.4763159570466779	0.114643
H	0.9449620589094464 0.2295571483663855 0.4857727706415677	0.099588
H	0.8846985835911273 0.2874645715754101 0.4756978971964579	0.122643
H	0.9457126592428656 0.8845004174051044 0.9856938820053527	0.100319
H	0.8886069075192186 0.9458942246460853 0.9754919498356971	0.117871
H	0.7832796285582658 0.0510484181530776 0.9761131686768348	0.107599
H	0.7220964286171584 0.1085203413390839 0.9761813103311137	0.115074
H	0.5541659038342492 0.2706007937549003 0.9867393982044905	0.092390
H	0.6148529700641520 0.2127619203628818 0.9756936040986858	0.122545
H	0.4450539410463535 0.3838055638835375 0.9857229420810729	0.100606
H	0.3886516814191017 0.4458978013569090 0.9754957042818723	0.117720
H	0.2832379088543431 0.5510390588090276 0.9761022411018004	0.106558
H	0.2221200231558790 0.6085652099859479 0.9761966889530254	0.115161
H	0.0554750462116427 0.7719988908431881 0.9867328869708478	0.091922
H	0.1150537689280650 0.7129931256816161 0.9756871131334962	0.122933
H	0.0548057675847245 0.8829685776406409 0.9867026382172386	0.093905
H	0.1111808686485859 0.9454571528528602 0.9754599600110364	0.117669
H	0.2166549144953037 0.0509553149634004 0.9760202320527674	0.107222
H	0.2777551516065522 0.1084053711306906 0.9762370378841293	0.115100
H	0.4458431922263193 0.2705645548211747 0.9867659324786566	0.092954
H	0.3851569752219990 0.2127471609383771 0.9756735409260069	0.122438
H	0.5549440685481417 0.3837839277138262 0.9856907006000790	0.100614
H	0.6113555504420349 0.4458879719244560 0.9755171876446578	0.117778
H	0.7166079117920185 0.5509179851073783 0.9760465886263376	0.107008
H	0.7778139432988148 0.6084520144841535 0.9762728934344191	0.115645
H	0.9449842678467072 0.7704592547016414 0.9857438106036044	0.099630
H	0.8847118465215484 0.7125407511827258 0.9757136231118450	0.122535
H	0.9457357019144406 0.1155100711653982 0.4856592730955537	0.099867
H	0.8886297818227175 0.0541057822522733 0.4755113602599691	0.117685
H	0.7834068848312563 0.9490769113627984 0.4760553051142918	0.107047
H	0.7222021700439832 0.8915271598964030 0.4762782184455805	0.115600
H	0.5556551771147429 0.7288764886442508 0.4857608036069531	0.099983
H	0.6152804539486658 0.7874385166639970 0.4757113949157929	0.122879
H	0.4466081370500096 0.6156326914561947 0.4866546775294522	0.093786
H	0.3890301038850443 0.5543155124575140 0.4754733707210038	0.118197
H	0.2833663289596652 0.4490335883574549 0.4760333727680473	0.107363
H	0.2222616180094280 0.3915708550604137 0.4762343903667182	0.115096
H	0.0555011955910832 0.2280132012531729 0.4867665569586938	0.092174
H	0.1150669953537281 0.2870109235245729 0.4756700274171757	0.122873
H	0.9457124548729449 0.8845009684925357 0.5143129916927084	0.100359
H	0.8886066312894393 0.9458944240593884 0.5245087026582929	0.117854
H	0.7832798989772455 0.0510480372934207 0.5238871476390209	0.107580
H	0.7220967478765231 0.1085199510146656 0.5238167888590967	0.115034
H	0.5541664722983183 0.2706000025044726 0.5132620567795843	0.092421
H	0.6148535395765312 0.2127607192351549 0.5243067004414501	0.122544
H	0.4450542345929648 0.3838050896452699 0.5142734275342921	0.100628
H	0.3886519921611148 0.4458966624180755 0.5245007677704743	0.117707
H	0.2832384883594307 0.5510395562382312 0.5238996935507846	0.106556
H	0.2221204408263655 0.6085654460786383 0.5238014181687204	0.115170
H	0.0554756584383722 0.7719974604491535 0.5132713256532776	0.091982
H	0.1150549630637183 0.7129920557563356 0.5243154876765068	0.122911
H	0.0547777162868604 0.1170343520237095 0.0133296075138842	0.093768
H	0.1111568278029706 0.0545406981349629 0.0245242383734112	0.117523
H	0.2165277522351918 0.9491696092800586 0.0240422549821369	0.106620
H	0.2776480175610843 0.8916431372510609 0.0236718641944377	0.114937
H	0.4443366662371804 0.7288949415883385 0.0142096431596965	0.100061
H	0.3847245956370864 0.7874526494600458 0.0243126536589635	0.122836
H	0.5534099439281870 0.6156680173262721 0.0133822956018290	0.093546
H	0.6109816311909531 0.5543249632482720 0.0245079165896309	0.118211
H	0.7164814238440387 0.4491555895531252 0.0240302260231276	0.107262
H	0.7776725190551312 0.3916852896782911 0.0236836192557834	0.114621
H	0.9449623492511438 0.2295563799712763 0.0142281739919415	0.099556
H	0.8846989329210051 0.2874636841070095 0.0243026454737403	0.122650
Fe	0.5000303883234428 0.6734664312434065 0.7499952730722917	0.815975
Fe	-0.0005248755410512 0.1729273911343710 0.7499961686370789	0.814455
Fe	0.5000217020924554 0.3275779637498966 0.2500007850735001	0.815068
Fe	-0.0005273219918049 0.8270717688340699 0.2499932400175052	0.814788
Al	0.4999464679092242 0.6714969712525615 0.2499959707863617	1.664250
Al	0.0016006930880406 0.1729906249813357 0.2499953501722958	1.663132
Al	0.4999561745677907 0.3255588619412159 0.7499946929255262	1.662008
Al	0.0015898357932334 0.8270320884979372 0.7499990461094479	1.663035
F	0.4999023664704261 0.6127394804879785 0.2500017988578561	-0.625480
F	0.9744583309046696 0.2248997619053392 0.2499969824119173	-0.611567
F	0.9745852477813723 0.1210439814467858 0.2499862397917529	-0.609086
F	0.4998323351641039 0.2667832139537346 0.7500032915327632	-0.627444
F	0.9744690687444663 0.7751151345509227 0.7499968321813019	-0.611377
F	0.9745632644016081 0.8789770441404881 0.7499936848214924	-0.609163
F	0.5506318780984839 0.6991047412921818 0.2500122274017467	-0.611192
F	0.0588758935788054 0.1728905496733727 0.2500155922373275	-0.627498
F	0.4493319942447345 0.3533001036618084 0.7499879956594976	-0.610483
F	0.4492814661390006 0.6991835154542494 0.2499958180768280	-0.611531
F	0.5505968480596525 0.3532328489808097 0.7499994656908067	-0.610240
F	0.0588638953489159 0.8271395623657228 0.7500296237877185	-0.627459
F	0.4999675296382211 0.6730259323171359 0.4889171079584593	-0.557509
F	0.0000825045840659 0.1730042880606899 0.4889208158122381	-0.557025
F	0.4999692888876905 0.3270480655410657 0.9889425798939862	-0.557214
F	0.0000741962410253 0.8270307314807230 0.9889256265749946	-0.557120
F	0.4999676825968896 0.6730246752944999 0.0110829206935428	-0.557540
F	0.0000926411930434 0.1730149905715983 0.0110714172241883	-0.557027
F	0.4999702412280457 0.3270427518936432 0.5110518309432818	-0.557165
F	0.0000827400737337 0.8270214720051915 0.5110769208435074	-0.557149
N	0.5523288357967188 0.7266534205055529 0.7500040023588993	-0.246096
N	0.9477959242498176 0.1189286892766701 0.7500016052782058	-0.246360
N	0.0523036222706550 0.2260132748974006 0.7500008772012683	-0.240543
N	0.4484174828727083 0.6189537764615193 0.7500017738203709	-0.241440
N	0.4478328506513662 0.2738437115248548 0.2499996695270380	-0.239828
N	0.0517454640219189 0.8808900346458797 0.2500012880592864	-0.238932
N	0.9471908559369323 0.7738572094941738 0.2500008723235853	-0.246217
N	0.5517505953927990 0.3815006195081395 0.2499970329433981	-0.244750
N	0.4476549400270159 0.7266664002802393 0.7500007269429494	-0.245188
N	0.0517209937184009 0.1191280205948759 0.7500009901868790	-0.239758
N	0.9471695751951756 0.2261588926795912 0.7500003343120218	-0.245514
N	0.5515778028794989 0.6189770808568064 0.7499986328709902	-0.242022
N	0.5521572692569913 0.2738653236552790 0.2500006472178766	-0.240181
N	0.9477748935623113 0.8810932398725476 0.2500032469198041	-0.245396
N	0.0522784267837670 0.7740009643332708 0.2500020740582360	-0.240896
N	0.4482331970979611 0.3815151381956174 0.2499982825221796	-0.243779
	  	
