#======================================================================

# CRYSTAL DATA

#----------------------------------------------------------------------

data_VESTA_phase_1


_pd_phase_name                         ALFFIVE_6_Cd_i
_cell_length_a                         18.19692
_cell_length_b                         18.19694
_cell_length_c                         15.89412
_cell_angle_alpha                      90.00014
_cell_angle_beta                       90.00023
_cell_angle_gamma                      89.98331
_symmetry_space_group_name_H-M         P 1
_symmetry_Int_Tables_number            1

loop_
_symmetry_equiv_pos_as_xyz
   x, y, z

loop_
   _atom_site_label
   _atom_site_fract_x
   _atom_site_fract_y
   _atom_site_fract_z
   _atom_site_charge
N	0.2439956923466827 0.1209301707609829 0.1284478253921262	-0.238651
N	0.2568741105615842 0.3789385891068862 0.1281592895780014	-0.240724
N	0.3789699038221638 0.2430305150396546 0.1279795139753072	-0.238232
N	0.1209607898075258 0.2558677934736994 0.1282548790846960	-0.240224
N	0.7569698958384868 0.6210300539599735 0.3720186255132497	-0.238188
N	0.7441322406439891 0.8790393008063609 0.3717441621215362	-0.240211
N	0.6210623095836566 0.7431268507437413 0.3718397242697030	-0.240595
N	0.8790706374364989 0.7560057708518655 0.3715512445693066	-0.238634
N	0.7568739930301661 0.8789381579212460 0.8718406676605370	-0.240557
N	0.7439953013430505 0.6209300094145085 0.8715509077365092	-0.238686
N	0.6209611263092655 0.7558674502931554 0.8717435541079727	-0.240196
N	0.8789697571375542 0.7430308067651386 0.8720198704659564	-0.238240
N	0.2441325309769952 0.3790401969267965 0.6282560893693285	-0.240211
N	0.2569700171097595 0.1210306328751251 0.6279802462396554	-0.238167
N	0.3790703572440898 0.2560045044814694 0.6284489332195644	-0.238666
N	0.1210622661326701 0.2431258465010524 0.6281588777396429	-0.240624
C	0.2021548945540028 0.0857650387439757 0.1852592279965887	0.107687
C	0.1935698344027511 0.0098569326346563 0.1843797918716708	-0.182856
C	0.2324535959061881 0.9681596922565595 0.1249288704296593	0.111704
C	0.2773275472272119 0.0055064862366379 0.0672331196808153	-0.184168
C	0.2802975231989072 0.0818185451884317 0.0700139303511144	0.103934
C	0.2267755383030692 0.8874369624928622 0.1237185124055699	0.062334
C	0.2895972686804351 0.8445731844830973 0.1210012229466302	-0.173876
C	0.2854136612151899 0.7671306655365385 0.1221822560373940	0.085307
C	0.1506772169787333 0.7776043175009271 0.1246063216994122	-0.124232
C	0.1566945978994384 0.8529282849288293 0.1266492440884216	-0.138236
C	0.2982855441712718 0.4140274599701680 0.1856051157195371	0.099049
C	0.3065325389457157 0.4900210106304521 0.1849578523570408	-0.185051
C	0.2676430911735331 0.5317401719964148 0.1254465966300973	0.107895
C	0.2231871144019787 0.4943754448736480 0.0673724665682064	-0.183622
C	0.2206410386792934 0.4179687708051913 0.0694504065372299	0.101055
C	0.2732048419790124 0.6125183083410094 0.1242093160304030	0.063364
C	0.2103665375668189 0.6553787215986504 0.1212936188067486	-0.173740
C	0.2145196485458314 0.7328361605035209 0.1222336294902471	0.085050
C	0.3492520840665689 0.7223695900644487 0.1246817579637051	-0.124501
C	0.3432920903413554 0.6470497644924763 0.1269886395260773	-0.139142
C	0.4141435912423267 0.2013457742169805 0.1849880375209423	0.100859
C	0.4901005263698698 0.1932281558146275 0.1846682334082316	-0.185993
C	0.5318245995740358 0.2323867860773438 0.1254272921347296	0.110935
C	0.4944539032610653 0.2770104632495232 0.0675355997235010	-0.182462
C	0.4180899285318631 0.2795398694329952 0.0697306054855037	0.107551
C	0.6125633331411227 0.2268137117712199 0.1242127770335916	0.063331
C	0.6553845363529950 0.2896388309745700 0.1213145105646734	-0.173541
C	0.7328397813192178 0.2854361853770938 0.1222516051037597	0.085258
C	0.7224125208678210 0.1507073083025966 0.1246728662935945	-0.124157
C	0.6470937294872874 0.1567160139086813 0.1269673430297918	-0.138862
C	0.0858309674360782 0.2974863264017474 0.1854699224288580	0.102163
C	0.0098895183223883 0.3061280764442288 0.1843879727471337	-0.182916
C	0.9682262498977574 0.2674471582390162 0.1247441627281269	0.108001
C	0.0056106895138114 0.2227636313450698 0.0668284361677582	-0.183806
C	0.0819772469410818 0.2198035301692980 0.0694045350157651	0.101023
C	0.8874606614760747 0.2731537119618099 0.1235982716708614	0.062679
C	0.8445995789503041 0.2103519478618398 0.1209108676733911	-0.173357
C	0.7671494562576479 0.2145309674050992 0.1221703710122866	0.084740
C	0.7775948835108741 0.3492609143410657 0.1246319391976732	-0.123934
C	0.8529286538490209 0.3432567983916380 0.1265983961069814	-0.139177
C	0.7986547965791913 0.5858561529829934 0.3150107746835520	0.100798
C	0.8067726220552649 0.5098994649775187 0.3153313959272619	-0.185872
C	0.7676139666012496 0.4681760015127305 0.3745726698705189	0.110676
C	0.7229901986619253 0.5055470118198262 0.4324638251293870	-0.182337
C	0.7204602569644530 0.5819109445169504 0.4302682213493190	0.107523
C	0.7731870980338145 0.3874371778856965 0.3757875260937437	0.063352
C	0.7103620932569646 0.3446157278579151 0.3786857898630993	-0.173398
C	0.7145646433958083 0.2671605178582159 0.3777486799745440	0.085215
C	0.8492933547745052 0.2775877992939874 0.3753273024501372	-0.124158
C	0.8432846712873513 0.3529065038601741 0.3730326536691553	-0.138849
C	0.7025135692714597 0.9141689827018223 0.3145292843374418	0.102129
C	0.6938723294913146 0.9901104484504740 0.3156109720927966	-0.182840
C	0.7325534692945299 0.0317737670042617 0.3752549466844831	0.108041
C	0.7772373560433058 0.9943889501907351 0.4331699651596311	-0.183945
C	0.7801970514348661 0.9180224779990691 0.4305941464077737	0.101030
C	0.7268469773194906 0.1125395282268571 0.3764015698664832	0.062533
C	0.7896487434132113 0.1554008968887625 0.3790893903080908	-0.173246
C	0.7854697324088520 0.2328509957294895 0.3778300817104017	0.084744
C	0.6507400095201343 0.2224053276347236 0.3753685466124683	-0.123999
C	0.6567439951480505 0.1470716915916680 0.3734019148152684	-0.139147
C	0.5859729039860959 0.7017150934082855 0.3143946127913380	0.098979
C	0.5099791126241684 0.6934677709100601 0.3150427551803076	-0.185051
C	0.4682601785394707 0.7323572877069672 0.3745538469612802	0.107940
C	0.5056252578264349 0.7768133044026343 0.4326275299658541	-0.183622
C	0.5820321363805675 0.7793595614135423 0.4305487679331942	0.100916
C	0.3874822544477683 0.7267956890458691 0.3757914361336531	0.063382
C	0.3446220689680697 0.7896340888278536 0.3787069760190599	-0.173659
C	0.2671645363493488 0.7854810825415105 0.3777667764866869	0.085035
C	0.2776308929701863 0.6507485838222954 0.3753186368538436	-0.124382
C	0.3529508479107935 0.6567085119873095 0.3730120134418889	-0.139218
C	0.9142361923791702 0.7978462917193377 0.3147399657217226	0.107654
C	0.9901442507757722 0.8064311913454744 0.3156199055903904	-0.182771
C	0.0318411784152628 0.7675472999909948 0.3750710245517591	0.111683
C	0.9944940883282922 0.7226735436027630 0.4327665102095710	-0.184157
C	0.9181820373482528 0.7197038676384955 0.4299851998983863	0.103981
C	0.1125636904244929 0.7732252838741085 0.3762816739224577	0.062261
C	0.1554273550200215 0.7104035652773832 0.3789989322827110	-0.173859
C	0.2328699622484248 0.7145871264239640 0.3778180515881270	0.085230
C	0.2223964406554564 0.8493236155939036 0.3753939352900976	-0.124196
C	0.1470723077606442 0.8433061941330996 0.3733509148225769	-0.138191
C	0.7982858621351760 0.9140268655952498 0.8143958384334160	0.098983
C	0.8065331185195624 0.9900204384858687 0.8150433309726478	-0.185027
C	0.7676433890104404 0.0317399286826620 0.8745539626403825	0.107883
C	0.7231872902918332 0.9943752780586573 0.9326275270136505	-0.183665
C	0.7206407741707670 0.9179684966103803 0.9305491388354368	0.100967
C	0.7732049162914131 0.1125181180099700 0.8757913281101490	0.063369
C	0.7103667013292606 0.1553786587394866 0.8787069903896575	-0.173710
C	0.7145196118182708 0.2328361816896286 0.8777668889998527	0.085065
C	0.8492519276545100 0.2223696168442945 0.8753187587734000	-0.124350
C	0.8432920028460059 0.1470498912550771 0.8730119868772270	-0.139240
C	0.7021542260467503 0.5857643015933303 0.8147395138515664	0.107669
C	0.6935691977572149 0.5098562417621004 0.8156199621224594	-0.182752
C	0.7324533666843706 0.4681598041564546 0.8750713808976339	0.111683
C	0.7773271997934240 0.5055074204468720 0.9327672483077514	-0.184170
C	0.7802970593981609 0.5818193991305273 0.9299859154944800	0.103950
C	0.7267756931469126 0.3874368021755292 0.8762818407479198	0.062331
C	0.7895971711600743 0.3445729119517412 0.8789985859515591	-0.173949
C	0.7854135329545797 0.2671303241271566 0.8778181669010249	0.085243
C	0.6506772740886088 0.2776042836734944 0.8753940673603315	-0.124245
C	0.6566946382206125 0.3529284298051221 0.8733510882421918	-0.138198
C	0.5858307567094158 0.7974863338203323 0.8145293192276860	0.102081
C	0.5098891309224378 0.8061281161869325 0.8156118220938497	-0.182894
C	0.4682264620768530 0.7674473248671072 0.8752556688848456	0.108036
C	0.5056115415350131 0.7227640135531447 0.9331711427644449	-0.183850
C	0.5819781084973559 0.7198036013815222 0.9305941075978144	0.101062
C	0.3874607588666670 0.7731537724099429 0.8764022422197734	0.062613
C	0.3445994539865122 0.7103520907507540 0.8790899432985837	-0.173347
C	0.2671492688316252 0.7145310449483223 0.8778304282566568	0.084752
C	0.2775947781355553 0.8492608815563725 0.8753685279285974	-0.123938
C	0.3529286262563022 0.8432567120048902 0.8734021093361497	-0.139127
C	0.9141442048261773 0.7013460432712146 0.8150118823736942	0.100825
C	0.9901001716190645 0.6932278207306873 0.8153320567948481	-0.185929
C	0.0318245679490236 0.7323869659352403 0.8745734281006785	0.110769
C	0.9944532011443826 0.7770101434043036 0.9324647528731892	-0.182433
C	0.9180896590734045 0.7795397362898130 0.9302694003833294	0.107621
C	0.1125628131625957 0.7268139313451741 0.8757879612113761	0.063436
C	0.1553844638985527 0.7896387339178100 0.8786858708267951	-0.173531
C	0.2328397358847694 0.7854361567423556 0.8777489758843815	0.085200
C	0.2224124158099400 0.6507073064976799 0.8753277819607916	-0.124112
C	0.1470935688054547 0.6567161142405453 0.8730331689538284	-0.138872
C	0.2025137462325823 0.4141698347433817 0.6854705739354462	0.102021
C	0.1938724015899577 0.4901112500504242 0.6843893041127344	-0.182801
C	0.2325534553561579 0.5317741682900267 0.6247457315380026	0.108121
C	0.2772373558983422 0.4943895988438388 0.5668306442287144	-0.183970
C	0.2801970813313732 0.4180231344122440 0.5694061741720724	0.101057
C	0.2268467770583353 0.6125395916224833 0.6235990955287645	0.062560
C	0.2896484307489985 0.6554009180696201 0.6209111037886337	-0.173276
C	0.2854694397685494 0.7328513675796149 0.6221707757924437	0.084746
C	0.1507397185255176 0.7224057482038818 0.6246317844234097	-0.123984
C	0.1567439701178328 0.6470723287605683 0.6265986469955938	-0.139161
C	0.2986550642173698 0.0858572703976348 0.6849885126118104	0.100803
C	0.3067729449415012 0.0099006967196942 0.6846682869429840	-0.185897
C	0.2676141044189654 0.9681766598442832 0.6254270369548982	0.110764
C	0.2229902504895244 0.0055471770992577 0.5675354339936517	-0.182414
C	0.2204605663178639 0.0819108845770478 0.5697307235576435	0.107558
C	0.2731871438596725 0.8874378516189162 0.6242124986051562	0.063340
C	0.2103619229183681 0.8446162565981639 0.6213143229564650	-0.173536
C	0.2145643482056618 0.7671611401033920 0.6222515981891746	0.085323
C	0.3492928758479916 0.7775880529851327 0.6246727317789156	-0.124199
C	0.3432845193372794 0.8529067908107255 0.6269670586288417	-0.138871
C	0.4142358282163630 0.2978459029576209 0.6852600007084337	0.107678
C	0.4901439107126450 0.3064312973613386 0.6843803309668658	-0.182800
C	0.5318408038198226 0.2675473215437678 0.6249293162596278	0.111695
C	0.4944936368457188 0.2226734551350097 0.5672331979533470	-0.184129
C	0.4181815586512340 0.2197031655728569 0.5700141612287201	0.103882
C	0.6125633950875808 0.2732252314059369 0.6237188379576134	0.062350
C	0.6554272118444618 0.2104035513063020 0.6210014599959632	-0.173920
C	0.7328698298459246 0.2145868349417172 0.6221821877328307	0.085201
C	0.7223966138345742 0.3493229221308037 0.6246063071697867	-0.124173
C	0.6470724469769653 0.3433059819039698 0.6266493937111643	-0.138287
C	0.0859735747669335 0.2017150960203214 0.6856050783315600	0.099037
C	0.0099799650906762 0.1934678901615965 0.6849574004131285	-0.185043
C	0.9682605102151042 0.2323565625605017 0.6254458357755075	0.107926
C	0.0056250974296856 0.2768133434983497 0.5673727180510492	-0.183617
C	0.0820318258351576 0.2793593484266561 0.5694508617476686	0.100970
C	0.8874827594831250 0.2267946279331969 0.6242081455549414	0.063363
C	0.8446221436527573 0.2896332137572856 0.6212930472579381	-0.173709
C	0.7671647829228172 0.2854806124407449 0.6222326781317101	0.085074
C	0.7776306490685466 0.1507483132299177 0.6246817107228654	-0.124375
C	0.8529509716668069 0.1567077009575405 0.6269880092021007	-0.139201
H	0.1763741320465474 0.1201089531061740 0.2332013016155965	0.100334
H	0.1589330016518487 0.9829314073502826 0.2311512863881040	0.112979
H	0.3078107943618490 0.9751984657353178 0.0193752825718684	0.113239
H	0.3116199150520827 0.1135853592973775 0.0240766039945767	0.098806
H	0.3436191816936301 0.8705436193919760 0.1205114430025811	0.107567
H	0.0967451118896460 0.7512471079693078 0.1252008222736151	0.110157
H	0.1076069799942591 0.8873132628631588 0.1286416710483050	0.100581
H	0.3241869873196348 0.3796081559034675 0.2336120386200497	0.104177
H	0.3411498432134955 0.5169849689546597 0.2317568053577354	0.113487
H	0.1926895622173061 0.5246718211822602 0.0194893490564699	0.114912
H	0.1907496323833772 0.3864177430434595 0.0219322318565920	0.106479
H	0.1563250367330705 0.6294492972041273 0.1207383968491843	0.107777
H	0.4031640286138715 0.7487495033488474 0.1251321912024551	0.107572
H	0.3923946056030498 0.6126696760294603 0.1290286166969761	0.101768
H	0.3795425807943741 0.1746681509560252 0.2320902529889517	0.099336
H	0.5170521236878757 0.1585257641343135 0.2313789800905351	0.113231
H	0.5247291342968906 0.3075346231094488 0.0196939855016169	0.115359
H	0.3864750029489769 0.3098785195551151 0.0228293480959030	0.102397
H	0.6294308293294452 0.3436827023424530 0.1208126870244678	0.108133
H	0.7487520787899683 0.0967592545432626 0.1250903007884186	0.108529
H	0.6127463140467241 0.1076238468461581 0.1289381414460324	0.102311
H	0.1199577489977866 0.3226072627732959 0.2342226423724913	0.105528
H	0.9829499688443475 0.3407391016673097 0.2312113822768020	0.113002
H	0.9752857588710404 0.1923124509352312 0.0189408950789407	0.112631
H	0.1137425367867882 0.1890031374350099 0.0228147393143323	0.102413
H	0.8705775900336274 0.1563189549105018 0.1203585702916920	0.106755
H	0.7511717830703776 0.4031750890828487 0.1252957987450808	0.108521
H	0.8873168315981456 0.3923346832651767 0.1286528658049483	0.100583
H	0.8253326703339079 0.6204567749374686 0.2679084905036202	0.099326
H	0.8414751192670612 0.4829473881498860 0.2686215086927312	0.113225
H	0.6924661246886865 0.4752718788814019 0.4803054941570320	0.115370
H	0.6901227429452301 0.6135259951862166 0.4771703339706082	0.102405
H	0.6563183979048369 0.3705698095232352 0.3791874395880266	0.108129
H	0.9032412036444825 0.2512481665667962 0.3749096048169216	0.108503
H	0.8923766691616386 0.3872542144553988 0.3710615405052886	0.102311
H	0.6773915550003083 0.8800417620003493 0.2657769776824607	0.105526
H	0.6592606833698521 0.0170504709276652 0.2687885367325890	0.112986
H	0.8076888060164031 0.0247138053590902 0.4810571266293080	0.112670
H	0.8109975987605298 0.8862566805281492 0.4771832540320006	0.102454
H	0.8436816123159283 0.1294225402963290 0.3796416384441064	0.106749
H	0.5968260702410356 0.2488285723464199 0.3747045493484547	0.108532
H	0.6076663335349421 0.1126833350095955 0.3713477247709966	0.100575
H	0.6203917405216468 0.6758129520028531 0.2663874196628191	0.104194
H	0.4830152436195660 0.6588498143970902 0.2682441276648992	0.113491
H	0.4753292701462894 0.8073107951024376 0.4805111207150430	0.114911
H	0.6135832196616613 0.8092508963548308 0.4780671806963577	0.106505
H	0.3705511817807420 0.8436757243147589 0.3792621031348826	0.107758
H	0.2512510402469783 0.5968365128022048 0.3748680031095799	0.107541
H	0.3873305373272066 0.6076057701688551 0.3709720308551638	0.101784
H	0.8798924849568892 0.8236269378491170 0.2667976404879353	0.100345
H	0.0170699289814690 0.8410680384118907 0.2688487325357221	0.112950
H	0.0248013184940699 0.6921902561257375 0.4806249629380968	0.113220
H	0.8864149293206074 0.6883817904600468 0.4759222308299998	0.098740
H	0.1294571279535460 0.6563815908935091 0.3794886567749880	0.107565
H	0.2487534492143110 0.9032558744281937 0.3747994300604311	0.110120
H	0.1126876072360694 0.8923940357648238 0.3713583799388023	0.100607
H	0.8241875645630827 0.8796071215175287 0.7663894861974376	0.104187
H	0.8411505134982281 0.0169842303523289 0.7682445673246139	0.113491
H	0.6926898029356571 0.0246718400522790 0.9805106789563849	0.114924
H	0.6907494813638705 0.8864172717039025 0.9780673013187208	0.106478
H	0.6563251895729524 0.1294493233552094 0.8792621978805946	0.107771
H	0.9031638063733205 0.2487496766916504 0.8748681083485218	0.107556
H	0.8923945821318658 0.1126699918143528 0.8709719045823447	0.101804
H	0.6763747955321829 0.6201070852100423 0.7667957394845935	0.100334
H	0.6589326068860535 0.4829302966080217 0.7688481076855118	0.112965
H	0.8078105722233950 0.4751998059924225 0.9806252512646255	0.113228
H	0.8116187196680200 0.6135871154514335 0.9759231906187597	0.098782
H	0.8436188597708350 0.3705437037891658 0.8794888169168981	0.107584
H	0.5967451502989265 0.2512472151039183 0.8747994387740292	0.110157
H	0.6076069248906071 0.3873133111149672 0.8713583996486852	0.100580
H	0.6199573637701037 0.8226077370447481 0.7657765680523703	0.105532
H	0.4829494421795312 0.8407392807721642 0.7687883321591581	0.113004
H	0.4752869402724701 0.6923128763986144 0.9810589578742458	0.112649
H	0.6137443103339886 0.6890031529915780 0.9771834676479774	0.102417
H	0.3705774726284882 0.6563190125985342 0.8796421385096491	0.106773
H	0.2511719866592536 0.9031750520292561 0.8747042252382443	0.108505
H	0.3873168821585359 0.8923344906552233 0.8713474224617186	0.100566
H	0.8795421852642900 0.6746688133250495 0.7679099621739003	0.099337
H	0.0170516473812789 0.6585251670754313 0.7686212138559585	0.113229
H	0.0247284567540679 0.8075347083552982 0.9803062780488574	0.115352
H	0.8864745041743166 0.8098782077746948 0.9771704794595742	0.102365
H	0.1294305196614527 0.8436825530981277 0.8791877504363259	0.108155
H	0.2487518875371983 0.5967593778087268 0.8749100285250551	0.108510
H	0.1127462747101763 0.6076237842616810 0.8710623620754188	0.102312
H	0.1773921958500372 0.3800424794272067 0.7342223122914877	0.105569
H	0.1592606479617386 0.5170509858666150 0.7312116987400411	0.112970
H	0.3076888011806410 0.5247142876081902 0.5189437131755026	0.112667
H	0.3109972067863983 0.3862569653909771 0.5228171931384596	0.102439
H	0.3436815496733975 0.6294229585835126 0.6203583794413716	0.106749
H	0.0968258526487578 0.7488292004629853 0.6252957486776857	0.108501
H	0.1076663752271303 0.6126838605413371 0.6286529673231123	0.100572
H	0.3253326934877330 0.1204585511217214 0.7320905715881536	0.099323
H	0.3414752144877468 0.9829488818256804 0.7313786866629950	0.113228
H	0.1924657947084601 0.9752714934444084 0.5196943605871693	0.115390
H	0.1901219103297455 0.1135259524724958 0.5228299044369621	0.102389
H	0.1563182578156695 0.8705703331179945 0.6208124644500186	0.108134
H	0.4032408388090127 0.7512486124267569 0.6250901115562907	0.108525
H	0.3923767496533642 0.8872546325939685 0.6289380007981717	0.102334
H	0.3798918320805642 0.3236268837118587 0.7332016767955747	0.100344
H	0.5170693347743557 0.3410682382799411 0.7311521608318282	0.112952
H	0.5248010786956594 0.1921899234982699 0.5193751374988800	0.113232
H	0.3864143309320467 0.1883814955636248 0.5240762037677417	0.098806
H	0.6294569996613755 0.1563814953578911 0.6205115241286809	0.107579
H	0.7487530242074667 0.4032559883024153 0.6252008013244188	0.110140
H	0.6126874701283478 0.3923939787944131 0.6286418135066423	0.100644
H	0.1203927339715359 0.1758144965102013 0.7336127946659697	0.104176
H	0.9830160074927876 0.1588504977390741 0.7317561237502737	0.113493
H	0.9753287751969240 0.3073108632125250 0.5194896307130199	0.114875
H	0.1135830075466844 0.3092509120813238 0.5219332277739711	0.106463
H	0.8705512580789226 0.3436740503383191 0.6207382812166161	0.107766
H	0.7512507417172108 0.0968364935311568 0.6251323147119716	0.107542
H	0.8873304705084077 0.1076044290169867 0.6290284788252430	0.101776
F	0.2545412665693101 0.1558012496321343 0.3786718911339506	-0.677619
F	0.1637990089528879 0.2961578615036776 0.3788660891754512	-0.670802
F	0.3288393630489750 0.3061177202979390 0.3787707626709218	-0.675826
F	0.6938953010950316 0.6711557155749518 0.1212305748950820	-0.675634
F	0.7038430119509033 0.8362010132722550 0.1211266012013195	-0.670671
F	0.8442060791027995 0.7454392645118417 0.1213326612585010	-0.677437
F	0.6637959344098704 0.7961569556139220 0.6211495355829675	-0.670768
F	0.7544393891543842 0.6557829787696232 0.6213475349284472	-0.677575
F	0.8288274228327220 0.8060868462639464 0.6212030428390145	-0.675810
F	0.1938611969457777 0.1711747857022552 0.8787689076679771	-0.675756
F	0.3441918629873091 0.2454534591714195 0.8786550589175111	-0.677579
F	0.2038455508132916 0.3362193021697074 0.8788622444151405	-0.670805
F	0.2492843101028228 0.2510447998818462 0.2652528360504112	-0.599801
F	0.2496253422886847 0.2506904643828549 0.4921508062687260	-0.599884
F	0.7489574037281870 0.7507246468683521 0.2347496750368082	-0.599674
F	0.7493175831849391 0.7503821890513156 0.0078474816778448	-0.599719
F	0.7493033897335506 0.7510525268722206 0.7347422103201875	-0.599781
F	0.7496061995858375 0.7506597612684637 0.5078575438699223	-0.599848
F	0.2489379876959043 0.2507312216975026 0.7652530204155659	-0.599729
F	0.2493095668110639 0.2503965479352663 0.9921476218328508	-0.599805
Cd	0.2499270162238988 0.2501017712651538 0.1286020929606485	0.833467
Cd	0.7498994214013642 0.7500726329883177 0.3713963172858056	0.833416
Cd	0.7499255021903367 0.7501007795153699 0.8713967145782046	0.833420
Cd	0.2498991859704571 0.2500727803007362 0.6286028216915769	0.833480
Al	0.2493733534170245 0.2519582432029850 0.3787212892617619	1.713433
Al	0.7480571755467051 0.7506242217462304 0.1212767344331139	1.712684
Al	0.7493549106889683 0.7519363247243602 0.6212840378611438	1.713275
Al	0.2480345806084686 0.2506365471069434 0.8787145838580444	1.713173
	  	
