#======================================================================

# CRYSTAL DATA

#----------------------------------------------------------------------

data_VESTA_phase_1


_pd_phase_name                         ALFFIVE_6_Ni_i
_cell_length_a                         17.70809
_cell_length_b                         17.70809
_cell_length_c                         15.06157
_cell_angle_alpha                      89.99995
_cell_angle_beta                       90.00011
_cell_angle_gamma                      89.97682
_symmetry_space_group_name_H-M         P 1
_symmetry_Int_Tables_number            1

loop_
_symmetry_equiv_pos_as_xyz
   x, y, z

loop_
   _atom_site_label
   _atom_site_fract_x
   _atom_site_fract_y
   _atom_site_fract_z
   _atom_site_charge
N	0.2438909650329880 0.1321374623860797 0.1279729178094494	-0.235628
N	0.2560601851223557 0.3679848781253140 0.1288440216753431	-0.236387
N	0.3678873342563044 0.2440078153402054 0.1286910514396057	-0.235039
N	0.1320716875751180 0.2561265162659840 0.1275538947990535	-0.237811
N	0.7559915930774819 0.6321126589338941 0.3713076503345381	-0.235100
N	0.7438733501958924 0.8679282790612163 0.3724460385771038	-0.237920
N	0.6320157451623925 0.7439402548614195 0.3711550598046405	-0.236291
N	0.8678631704518542 0.7561080725154044 0.3720264967106134	-0.235573
N	0.7560598792334192 0.8679842672188411 0.8711552617595048	-0.236284
N	0.7438916318128638 0.6321365425434328 0.8720271459490095	-0.235589
N	0.6320715211264342 0.7561266101988799 0.8724461405059115	-0.237892
N	0.8678875272688110 0.7440080288186144 0.8713083119668150	-0.235087
N	0.2438734428272907 0.3679278998533484 0.6275543061903096	-0.237928
N	0.2559924281814681 0.1321118375796285 0.6286902058719400	-0.235143
N	0.3678629370844547 0.2561092213705715 0.6279722969163678	-0.235575
N	0.1320152003557543 0.2439400340308480 0.6288452566346507	-0.236361
C	0.1999442753324326 0.0958193441983193 0.1868976582706802	0.109963
C	0.1914498547557770 0.0178735575387377 0.1862426786726605	-0.182371
C	0.2322729143828977 0.9745918552616062 0.1248121852135665	0.111983
C	0.2794304198476691 0.0130821286878312 0.0652008038586105	-0.183312
C	0.2825465480982866 0.0914295580153648 0.0678213520958959	0.104895
C	0.2264180657553870 0.8916020885205734 0.1236268484698220	0.060639
C	0.2908918483700588 0.8473672396973354 0.1208941954471000	-0.172917
C	0.2864546186690161 0.7676680954536022 0.1220878791671348	0.085570
C	0.1481019447586175 0.7786567768359403 0.1246291551317544	-0.121756
C	0.1544081381468714 0.8560599145283455 0.1266415843777130	-0.136710
C	0.3000657222192721 0.4041486325732430 0.1880590584019614	0.096797
C	0.3085564512346175 0.4821700458239597 0.1871373550519448	-0.186677
C	0.2676796436997069 0.5254555962385019 0.1256348310312236	0.108668
C	0.2206379883464427 0.4869841831568628 0.0659816226552793	-0.183530
C	0.2175711961993751 0.4085997255661543 0.0683303744273109	0.100124
C	0.2736224407597707 0.6084360665835206 0.1240372984816615	0.060653
C	0.2091299879024089 0.6526540074717376 0.1210467786512590	-0.172670
C	0.2135284977576069 0.7323635897330482 0.1220806807507644	0.086077
C	0.3518778136875984 0.7213804488659327 0.1246661547616752	-0.121737
C	0.3456314194047512 0.6439712115163498 0.1268274753878034	-0.136790
C	0.4041389949354157 0.1998389005203928 0.1875448498012648	0.101590
C	0.4821252018700366 0.1914314812815244 0.1869885129022298	-0.187249
C	0.5254286433876542 0.2324021378414614 0.1256181315936873	0.111941
C	0.4869462132531090 0.2794554764501531 0.0659957175972181	-0.181743
C	0.4086082196109669 0.2825625448842229 0.0685177552554014	0.111576
C	0.6084088916534535 0.2264268516030822 0.1240549244037419	0.059938
C	0.6526004468680320 0.2908985374416792 0.1210645531538400	-0.172266
C	0.7323062584619400 0.2864445390576236 0.1220940326224855	0.085861
C	0.7213666828206939 0.1481066569851873 0.1246756451088560	-0.121638
C	0.6439575679566609 0.1543990255103944 0.1268286702432538	-0.136158
C	0.0958109899633602 0.3000057837444181 0.1867754991301992	0.102092
C	0.0178159492041998 0.3085017043046033 0.1859833803908305	-0.183660
C	0.9745700722640844 0.2676788869692223 0.1245623977488519	0.108143
C	0.0130856005819826 0.2205524854103666 0.0648601038119824	-0.186325
C	0.0914991372444818 0.2174753839358506 0.0671485002389753	0.100120
C	0.8915660154571978 0.2735066589127746 0.1235143416528282	0.061494
C	0.8473438752084637 0.2090577672518243 0.1208500070504550	-0.172979
C	0.7676395894376328 0.2135020839325755 0.1221003204386284	0.085758
C	0.7785762594275071 0.3518514944312151 0.1246380317653568	-0.121508
C	0.8559848521821022 0.3455327233714442 0.1265984520217288	-0.137731
C	0.8001608614374169 0.5958607412795506 0.3124544035089643	0.101567
C	0.8085687303566832 0.5178747027501202 0.3130115480252373	-0.187224
C	0.7675980452493413 0.4745712879607170 0.3743821396941809	0.111959
C	0.7205448194483814 0.5130537956966666 0.4340041546217545	-0.181775
C	0.7174370412384800 0.5913917386198637 0.4314815065066024	0.111595
C	0.7735732494107866 0.3915911895658516 0.3759454802501825	0.059982
C	0.7091015440716252 0.3473996423226987 0.3789358055622123	-0.172254
C	0.7135554492607167 0.2676938757175921 0.3779063255518593	0.085899
C	0.8518934487717060 0.2786334001806801 0.3753247584938116	-0.121578
C	0.8456011266631588 0.3560424817323984 0.3731717224856511	-0.136230
C	0.6999939852375889 0.9041894111757210 0.3132244237518610	0.102146
C	0.6914980728647692 0.9821843509229905 0.3140164955876477	-0.183719
C	0.7323209222827830 0.0254300625412120 0.3754375052915331	0.108117
C	0.7794471652797018 0.9869142511017120 0.4351401438836258	-0.186321
C	0.7825242358204166 0.9085007323135326 0.4328518631243636	0.100175
C	0.7264933470137629 0.1084340794533041 0.3764857006307663	0.061500
C	0.7909421994346261 0.1526562810955235 0.3791502031556264	-0.172977
C	0.7864980272910006 0.2323605414735156 0.3779000523014144	0.085716
C	0.6481485093633634 0.2214239130079345 0.3753623545008037	-0.121525
C	0.6544671845218712 0.1440153320454545 0.3734017748713863	-0.137721
C	0.5958515541222528 0.6999343093639740 0.3119405532758558	0.096786
C	0.5178301043002560 0.6914435664667206 0.3128627679974830	-0.186683
C	0.4745446998889709 0.7323202147786249 0.3743653379794554	0.108631
C	0.5130164380291874 0.7793617678756178 0.4340181960452589	-0.183492
C	0.5914009263283423 0.7824292560016011 0.4316689591204604	0.099976
C	0.3915642032166605 0.7263775790959139 0.3759629531157108	0.060608
C	0.3473463127247446 0.7908699750735756 0.3789534363012808	-0.172568
C	0.2676366189679308 0.7864716510553886 0.3779196399892906	0.086059
C	0.2786196491599054 0.6481223193300530 0.3753340764272931	-0.121714
C	0.3560290391393356 0.6543686332578911 0.3731728303238850	-0.136787
C	0.9041813627333558 0.8000554483251846 0.3131020647806687	0.109942
C	0.9821272888090334 0.8085504731780883 0.3137575658579004	-0.182373
C	0.0254085378135761 0.7677273148288051 0.3751879669183372	0.111943
C	0.9869184312496847 0.7205691341087197 0.4347997450940150	-0.183254
C	0.9085710751857430 0.7174531059035474 0.4321783573533996	0.104833
C	0.1083981372359752 0.7735821172577056 0.3763735444267989	0.060648
C	0.1526328948309852 0.7091082887298675 0.3791061592806665	-0.172887
C	0.2323320669258997 0.7135454893386637 0.3779124067066350	0.085534
C	0.2213434553823480 0.8518982013272810 0.3753711988537768	-0.121818
C	0.1439402977748758 0.8455920323754303 0.3733588059060732	-0.136671
C	0.8000657974795695 0.9041481698181026 0.8119408662774326	0.096774
C	0.8085563873618770 0.9821697001370985 0.8128627059790678	-0.186683
C	0.7676798047871637 0.0254553888737595 0.8743651201171923	0.108625
C	0.7206382846663214 0.9869837761704439 0.9340180280431282	-0.183493
C	0.7175707693111397 0.9085993325203822 0.9316688375159171	0.099963
C	0.7736224984466133 0.1084359367405736 0.8759628387715844	0.060634
C	0.7091300950134520 0.1526539125842875 0.8789535039818477	-0.172665
C	0.7135285311221794 0.2323635044319164 0.8779197328897248	0.086075
C	0.8518777603024758 0.2213803838325683 0.8753341652054611	-0.121722
C	0.8456314017965624 0.1439711525356793 0.8731727765738406	-0.136788
C	0.6999443264009300 0.5958184668644143 0.8131024858059601	0.109884
C	0.6914495939651445 0.5178724812573919 0.8137577086062923	-0.182339
C	0.7322729432494344 0.4745914732124604 0.8751881362506772	0.111960
C	0.7794311907263148 0.5130817048537778 0.9347999531818093	-0.183262
C	0.7825466113169857 0.5914292047905891 0.9321783998903890	0.104839
C	0.7264180260334735 0.3916018032733574 0.8763736391686473	0.060651
C	0.7908918469664502 0.3473670837994926 0.8791061708499405	-0.172894
C	0.7864545991452817 0.2676680060302755 0.8779124937286253	0.085568
C	0.6481018921875839 0.2786566960389066 0.8753712567593461	-0.121809
C	0.6544081166546122 0.3560597548318966 0.8733588438499268	-0.136676
C	0.5958106057086238 0.8000056932482102 0.8132244314524698	0.102155
C	0.5178156307526348 0.8085019107907455 0.8140163019585799	-0.183715
C	0.4745700103819468 0.7676791654594386 0.8754372693179349	0.108123
C	0.5130856929117041 0.7205529151552683 0.9351398097990445	-0.186356
C	0.5914991856195275 0.7174758314438701 0.9328519533284149	0.100173
C	0.3915659420898767 0.7735068080456815 0.8764855617538392	0.061503
C	0.3473438689262985 0.7090579401505539 0.8791501090872428	-0.172985
C	0.2676395842537028 0.7135021673888738 0.8779000875999780	0.085748
C	0.2785761934294093 0.8518516160488443 0.8753622871338020	-0.121493
C	0.3559847634192521 0.8455328496031870 0.8734016222191904	-0.137735
C	0.9041393993129881 0.6998389882460415 0.8124549507238870	0.101559
C	0.9821254655534187 0.6914314084320118 0.8130118633274079	-0.187187
C	0.0254288596760451 0.7324021492665389 0.8743824577900248	0.111848
C	0.9869464204554839 0.7794553818689680 0.9340045825689750	-0.181743
C	0.9086084610165427 0.7825627143222439 0.9314819480023789	0.111629
C	0.1084090054384757 0.7264268972521097 0.8759457052862183	0.059994
C	0.1526004417816137 0.7908985700375823 0.8789359736314946	-0.172269
C	0.2323062293975276 0.7864446060995144 0.8779064158264837	0.085811
C	0.2213667071859251 0.6481066871672355 0.8753247660548132	-0.121589
C	0.1439575990774732 0.6543990958782606 0.8731718408379985	-0.136234
C	0.1999942273738069 0.4041892183339471 0.6867756053242177	0.102148
C	0.1914981426070858 0.4821842938538813 0.6859835034326330	-0.183709
C	0.2323210128821264 0.5254300315286966 0.6245628216777160	0.108114
C	0.2794472077222993 0.4869142437815461 0.5648603478345841	-0.186342
C	0.2825241215717808 0.4085006488136888 0.5671483550545338	0.100167
C	0.2264933950130266 0.6084341393202115 0.6235146283795459	0.061597
C	0.2909422609273293 0.6526563011973978 0.6208501327433504	-0.173109
C	0.2864980030911737 0.7323605294150879 0.6221003175329467	0.085741
C	0.1481484396036475 0.7214238554437957 0.6246380580235990	-0.121506
C	0.1544672054701199 0.6440153016931169 0.6265986037011505	-0.137750
C	0.3001613891044376 0.0958603504990223 0.6875445976775848	0.101570
C	0.3085687943021032 0.0178742068250839 0.6869882903569712	-0.187181
C	0.2675980400153192 0.9745707256154268 0.6256178447749936	0.111863
C	0.2205444935275530 0.0130528492010831 0.5659954361563196	-0.181747
C	0.2174372756875763 0.0913907588289756 0.5685173186038395	0.111677
C	0.2735732627057895 0.8915907195570170 0.6240547716701909	0.059943
C	0.2091014460204133 0.8473994017356234 0.6210645087939179	-0.172210
C	0.2135554341927823 0.7676937091462011 0.6220940543658325	0.085840
C	0.3518935558262022 0.7786332730935376 0.6246755963330941	-0.121646
C	0.3456011952938480 0.8560422919203008 0.6268285917374629	-0.136152
C	0.4041811794795886 0.3000559545449264 0.6868976213385130	0.109915
C	0.4821269447317908 0.3085503989869197 0.6862427148733443	-0.182378
C	0.5254085230414890 0.2677271827946952 0.6248122696310328	0.112008
C	0.4869183385091881 0.2205695405769498 0.5652006961468867	-0.183273
C	0.4085708657688231 0.2174534384465426 0.5678207041968680	0.104865
C	0.6083981462429648 0.2735820910398873 0.6236269947107386	0.060654
C	0.6526328853698832 0.2091083015023538 0.6208943433763531	-0.172915
C	0.7323320423354415 0.2135455386588443 0.6220879942937024	0.085583
C	0.7213434048160057 0.3518983060243647 0.6246292104108767	-0.121760
C	0.6439402425690570 0.3455920572237595 0.6266416790578856	-0.136710
C	0.0958512835923959 0.1999341723062823 0.6880599630740331	0.096776
C	0.0178297553127565 0.1914435584456553 0.6871377352598862	-0.186668
C	0.9745441947588569 0.2323201793308134 0.6256350834709742	0.108639
C	0.0130156650274693 0.2793619278038478 0.5659822927139609	-0.183501
C	0.0914001365763649 0.2824292896016193 0.5683314930516074	0.100059
C	0.8915637545967336 0.2263775521981244 0.6240373111920867	0.060650
C	0.8473460817466509 0.2908700623907228 0.6210468434264609	-0.172675
C	0.7676364411909480 0.2864716967165052 0.6220807093312820	0.086082
C	0.7786194982109587 0.1481222485278843 0.6246662627019406	-0.121740
C	0.8560288365859142 0.1543685802032459 0.6268274481623968	-0.136831
H	0.1724371625666736 0.1311237294011522 0.2365286732739051	0.099196
H	0.1552443465992746 0.9907524609848033 0.2352792056339482	0.111396
H	0.3118953264965058 0.9821168734454321 0.0157081138550536	0.111681
H	0.3160377234599453 0.1238018679048963 0.0204447843212213	0.098794
H	0.3464461854060235 0.8740706904292223 0.1203536052042569	0.106535
H	0.0926631516308479 0.7517440973656917 0.1254383758920704	0.108208
H	0.1038518197886149 0.8912881130642176 0.1286693013196637	0.097069
H	0.3278379365257212 0.3688074482025275 0.2378126289459524	0.104731
H	0.3453268911139916 0.5092819263494387 0.2355979164383234	0.112244
H	0.1883989286375687 0.5177561677296080 0.0160501135873773	0.113250
H	0.1858353650372448 0.3766458879339439 0.0188713929942127	0.106356
H	0.1536095305013724 0.6259031010940188 0.1203909760871877	0.107214
H	0.4072911176936695 0.7483255417889237 0.1253911410875328	0.105179
H	0.3961959176805784 0.6087436808000387 0.1288145737164053	0.098039
H	0.3684617528007810 0.1712602906021283 0.2361404934421823	0.099251
H	0.5093001443901326 0.1547470245061229 0.2354802920697285	0.111832
H	0.5177481490598945 0.3115034884833971 0.0159816541952829	0.113584
H	0.3764903468423703 0.3149384092091901 0.0199888570777097	0.100377
H	0.6258590135612114 0.3464467255523474 0.1204494059937068	0.107583
H	0.7482751726281406 0.0926558340813350 0.1253624342184946	0.106143
H	0.6087959652538094 0.1038251068578311 0.1287252391261534	0.098640
H	0.1307258946100077 0.3266925823857620 0.2375198665240285	0.105637
H	0.9907896547988465 0.3447463480436466 0.2351117928179482	0.112881
H	0.9820975953516115 0.1878783526392575 0.0155612958717528	0.112335
H	0.1237645028500763 0.1844394994181009 0.0189922901130258	0.102874
H	0.8741007354905591 0.1535066562033299 0.1202709710064240	0.105724
H	0.7516011843757971 0.4072834851239160 0.1254834434072127	0.106608
H	0.8912451607013243 0.3960458276963796 0.1287233652489876	0.097253
H	0.8287400027534134 0.6315379316575909 0.2638592918329972	0.099278
H	0.8452533074999360 0.4906996589675230 0.2645201072166633	0.111795
H	0.6884968567826426 0.4822521219547294 0.4840185139309694	0.113607
H	0.6850622112094331 0.6235094295607451 0.4800111225672681	0.100394
H	0.6535533174944766 0.3741410107527087 0.3795509006039234	0.107527
H	0.9073443372132250 0.2517250633476132 0.3746378735345178	0.106151
H	0.8961750247682450 0.3912040806922350 0.3712751173036772	0.098641
H	0.6733074657721879 0.8692746396732111 0.2624797277843874	0.105653
H	0.6552533304085162 0.0092106351347005 0.2648879139071352	0.112927
H	0.8121213891653232 0.0179023773147520 0.4844388396410052	0.112345
H	0.8155601999240513 0.8762352099372414 0.4810077699388322	0.102854
H	0.8464933152993807 0.1258993687698965 0.3797292954002671	0.105724
H	0.5927164376647148 0.2483989698048604 0.3745169050331152	0.106609
H	0.6039540539245682 0.1087551014596413 0.3712769164688714	0.097252
H	0.6311925505988686 0.6721615342014993 0.2621873057024554	0.104733
H	0.4907179959999671 0.6546730582753640 0.2644025133650756	0.112244
H	0.4822446321016221 0.8116009034961413 0.4839497196144456	0.113272
H	0.6233543876114747 0.8141653056773929 0.4811281982494763	0.106378
H	0.3740971416474908 0.8463904602564514 0.3796093338677567	0.107197
H	0.2516744792000521 0.5927090692082344 0.3746090558308739	0.105185
H	0.3912564061612046 0.6038041220077591 0.3711856269960714	0.098033
H	0.8688767505737599 0.8275625317877766 0.2634712447006971	0.099188
H	0.0092480397331293 0.8447561139179006 0.2647211999066198	0.111378
H	0.0178841240120615 0.6881048939654680 0.4842924399519281	0.111668
H	0.8761982972882666 0.6839624057022948 0.4795556468548888	0.098805
H	0.1259292680512264 0.6535541464622210 0.3796466669889406	0.106541
H	0.2482561571270594 0.9073369915389201 0.3745620039143517	0.108208
H	0.1087118666639045 0.8961482696956566 0.3713311482681843	0.097065
H	0.8278387787545046 0.8688068892657095 0.7621881040359102	0.104741
H	0.8453269020220041 0.0092818359072779 0.7644026034952717	0.112247
H	0.6883992033069485 0.0177556875911547 0.9839494961353904	0.113268
H	0.6858346840844843 0.8766459886848372 0.9811278821272645	0.106390
H	0.6536095609561086 0.1259031142732481 0.8796092884287602	0.107225
H	0.9072911055585522 0.2483254830621045 0.8746091485770341	0.105164
H	0.8961959153655558 0.1087436735728061 0.8711856832800783	0.098036
H	0.6724378678353073 0.6311230103546684 0.7634707642792764	0.099223
H	0.6552438946412393 0.4907519208583579 0.7647211327062939	0.111379
H	0.8118955383319931 0.4821161420862305 0.9842926720639579	0.111658
H	0.8160380302479459 0.6238018239590893 0.9795559924100603	0.098801
H	0.8464460620859129 0.3740706820922228 0.8796467160616481	0.106532
H	0.5926630763604086 0.2517439511429027 0.8745619251424337	0.108214
H	0.6038518338233297 0.3912880491282181 0.8713310798138280	0.097070
H	0.6307252329075820 0.8266923525037801 0.7624799976003861	0.105656
H	0.4907891580174085 0.8447467055845456 0.7648879607386594	0.112921
H	0.4820976866797705 0.6878788396752351 0.9844384893989342	0.112354
H	0.6237646495282071 0.6844404064706110 0.9810082187087841	0.102858
H	0.3741007243302618 0.6535068169138307 0.8797292022822708	0.105731
H	0.2516009403536500 0.9072836598170907 0.8745168672168279	0.106631
H	0.3912450839385546 0.8960459303898216 0.8712767889849067	0.097253
H	0.8684620555808477 0.6712602145918323 0.7638596087016511	0.099277
H	0.0093003837086126 0.6547469699023363 0.7645203376192291	0.111800
H	0.0177483527500908 0.8115034227954552 0.9840187561870352	0.113598
H	0.8764907703812268 0.8149381403809313 0.9800110336465230	0.100378
H	0.1258590540186577 0.8464467860577826 0.8795509383021749	0.107562
H	0.2482752028282270 0.5926558175905482 0.8746377849742003	0.106157
H	0.1087959466782130 0.6038252131703130 0.8712751529258504	0.098651
H	0.1733079653039649 0.3692745134445922 0.7375200953513208	0.105665
H	0.1552533881352920 0.5092107253223005 0.7351118191034809	0.112930
H	0.3121214075238000 0.5179024695305481 0.5155616908224627	0.112354
H	0.3155598195095955 0.3762359903299446 0.5189919431445327	0.102882
H	0.3464933311164399 0.6258993559532837 0.6202710096406159	0.105750
H	0.0927164132353564 0.7483989402469027 0.6254834697262831	0.106632
H	0.1039541292382752 0.6087550166015646 0.6287234008831371	0.097250
H	0.3287402644786956 0.1315377278961000 0.7361396701905475	0.099251
H	0.3452533733288897 0.9906993142871843 0.7354801481147932	0.111781
H	0.1884963248040549 0.9822509422345198 0.5159812851096233	0.113623
H	0.1850618270562895 0.1235087637087278 0.5199885230591296	0.100389
H	0.1535532972056320 0.8741409234291659 0.6204494600300378	0.107519
H	0.4073444187888498 0.7517249566170123 0.6253624542668447	0.106174
H	0.3961749613970362 0.8912040626525032 0.6287251637017196	0.098637
H	0.3688769203173530 0.3275631206222641 0.7365285267712872	0.099205
H	0.5092482821780090 0.3447559663274612 0.7352792783270167	0.111384
H	0.5178838430219470 0.1881046162231809 0.5157081267801243	0.111656
H	0.3761983797872193 0.1839626712146712 0.5204439576788564	0.098799
H	0.6259292233692741 0.1535541598598907 0.6203537635248961	0.106544
H	0.7482561184074291 0.4073370730869074 0.6254383547456773	0.108196
H	0.6087118658447814 0.3961482974371361 0.6286692610913578	0.097071
H	0.1311924399625884 0.1721617055652188 0.7378132547940397	0.104738
H	0.9907176915511806 0.1546728266541033 0.7355977565464958	0.112240
H	0.9822436914876794 0.3116010027493776 0.5160506237486459	0.113256
H	0.1233535401082414 0.3141656656662974 0.5188728560764156	0.106362
H	0.8740970537224549 0.3463904513273731 0.6203910059061996	0.107215
H	0.7516743110882240 0.0927090647576099 0.6253912990150104	0.105198
H	0.8912564864397446 0.1038040272802297 0.6288144723643657	0.098036
F	0.2568455536897328 0.1525895759891590 0.3781506457095922	-0.658045
F	0.1628787028299468 0.2966555040269950 0.3788419543776541	-0.647280
F	0.3316502513628445 0.3058834776737227 0.3789087808424683	-0.654133
F	0.6941255630159100 0.6683462684441905 0.1210927496330091	-0.654020
F	0.7033429617435131 0.8371171347853613 0.1211549196589386	-0.647223
F	0.8474157916108717 0.7431624308123495 0.1218417375069731	-0.657953
F	0.6628698633167180 0.7966439332126825 0.6211569651704860	-0.647238
F	0.7568208803977021 0.6525785554400142 0.6218508948846895	-0.657991
F	0.8316502792603008 0.8058773055614308 0.6210942157136286	-0.654031
F	0.1941212673299868 0.1683470959064694 0.8789147333027376	-0.654117
F	0.3474219460921816 0.2431454645129610 0.8781458558247125	-0.658044
F	0.2033828462042416 0.3371247492233821 0.8788322494938121	-0.647322
F	0.2491540519411510 0.2501364995333272 0.2584708602251828	-0.590018
F	0.2493249076426918 0.2493500915776727 0.4988852131696062	-0.589990
F	0.7498683862332278 0.7508479333234276 0.2415249096372775	-0.589966
F	0.7506499852805733 0.7506672557550976 0.0011115681554186	-0.589881
F	0.7491519134929008 0.7501295218698814 0.7415244461092667	-0.589979
F	0.7493357360066367 0.7493460507522320 0.5011136175652454	-0.589895
F	0.2498665392467650 0.2508256276712104 0.7584727530643190	-0.590018
F	0.2506542170654459 0.2506661246735437 0.9988892885889445	-0.589939
Ni	0.2498767342339893 0.2502437025992960 0.1287192273972756	0.768225
Ni	0.7497573049584647 0.7501233075406304 0.3712801309199853	0.768349
Ni	0.7498762793716516 0.7502417229780622 0.8712810304359119	0.768341
Ni	0.2497570427404950 0.2501221840012818 0.6287180073544930	0.768375
Al	0.2501748189790585 0.2508248610742604 0.3786673683013266	1.701307
Al	0.7491799214976906 0.7498243712553495 0.1213280804641563	1.700906
Al	0.7501737028487220 0.7508206597619740 0.6213267093298158	1.700972
Al	0.2491875621764855 0.2498195752073404 0.8786692754798736	1.701276
	  	
