#======================================================================

# CRYSTAL DATA

#----------------------------------------------------------------------

data_VESTA_phase_1


_pd_phase_name                         ALFFIVE_7_Ni
_cell_length_a                         19.13394
_cell_length_b                         19.13373
_cell_length_c                         7.69540
_cell_angle_alpha                      90.20127
_cell_angle_beta                       89.79807
_cell_angle_gamma                      90.01466
_symmetry_space_group_name_H-M         P 1
_symmetry_Int_Tables_number            1

loop_
_symmetry_equiv_pos_as_xyz
   x, y, z

loop_
   _atom_site_label
   _atom_site_fract_x
   _atom_site_fract_y
   _atom_site_fract_z
   _atom_site_charge
C	0.6657853728513341 0.8715796920330963 0.7024334081046522	0.097470
C	0.6147990387840579 0.9233105794866818 0.7077529858145404	-0.180390
C	0.5791108194372014 0.8874710023112935 0.4225543342431587	-0.177656
C	0.6309345163942018 0.8368348937878461 0.4273225148751382	0.103817
C	0.8339194307465240 0.6286485021650872 0.7035836813752996	0.105642
C	0.8848547059763108 0.5769551238481169 0.7090294525777022	-0.179240
C	0.9211105633230372 0.6122624720159791 0.4238055208984466	-0.175147
C	0.8692652780389466 0.6629655048823073 0.4284621314463480	0.093947
C	0.6281031744922322 0.6656640464568930 0.7033128081227703	0.100839
C	0.5764060587275612 0.6146655602422456 0.7086898072539350	-0.179334
C	0.6120702328516384 0.5786429626538251 0.4232220968673223	-0.175429
C	0.6627990512358328 0.6304199286821829 0.4279912307483161	0.097549
C	0.8715348092702313 0.8332019763485343 0.7022640867896633	0.101765
C	0.9230865782385667 0.8843579171697247 0.7077595177753088	-0.180974
C	0.8869489330205798 0.9208914298209381 0.4238912552867666	-0.176751
C	0.8361020401461365 0.8691954315649745 0.4288426795773833	0.098132
C	0.3332024536630787 0.3715367137749853 0.2977388004781586	0.101752
C	0.3843578075996247 0.4230892179924789 0.2922411198300643	-0.181052
C	0.4208912682785041 0.3869494032156238 0.5761104327044876	-0.176739
C	0.3691953906163305 0.3361021753586190 0.5711584105305827	0.098156
C	0.1656638554148698 0.1281040167619379 0.2966876914090525	0.100841
C	0.1146652918806982 0.0764077622779234 0.2913106485864624	-0.179386
C	0.0786428865066710 0.1120711562775244 0.5767794342384274	-0.175474
C	0.1304198634273777 0.1627997773978538 0.5720100911588648	0.097560
C	0.3715791591674336 0.1657862997796093 0.2975644221206250	0.097475
C	0.4233099193511501 0.1148003890445737 0.2922487959273752	-0.180315
C	0.3874712141084160 0.0791114632907872 0.5774493564444898	-0.177608
C	0.3368346381958667 0.1309343716715014 0.5726819503735701	0.103782
C	0.1286491412356030 0.3339205580661960 0.2964129630937065	0.105718
C	0.0769549909687014 0.3848555652154632 0.2909697171210314	-0.179221
C	0.1122613670670172 0.4211104279797266 0.5761922681291320	-0.175035
C	0.1629649271068398 0.3692656577715340 0.5715330735247719	0.093924
C	0.4326931430191490 0.0700317786023093 0.4346294562674137	0.140719
C	0.4869720395926869 0.0165669811746075 0.4296371529869515	-0.122505
C	0.0673771829190151 0.4299377007873171 0.4336343847611843	0.139574
C	0.0131193505092745 0.4833667963593941 0.4293274769414448	-0.122504
C	0.4295566446974571 0.4322864191852914 0.4341186097059436	0.141027
C	0.4830400306882790 0.4865682767316157 0.4295181848235224	-0.123915
C	0.0696996912217463 0.0669769190252723 0.4339635809191750	0.136952
C	0.0162533965198955 0.0126895814246108 0.4293971090524125	-0.120484
C	0.5669758903934191 0.5696994240719767 0.5660380532925072	0.136881
C	0.5126890588944699 0.5162528728227650 0.5706045607126142	-0.120366
C	0.9322858493769649 0.9295566102901280 0.5658808238401107	0.140941
C	0.9865677419530824 0.9830394044786180 0.5704817141873331	-0.123776
C	0.5700303218248752 0.9326939564482223 0.5653737295382897	0.140760
C	0.5165661105727263 0.9869729965726848 0.5703665534101847	-0.122474
C	0.9299373294328354 0.5673784321673757 0.5663656252849300	0.139625
C	0.9833659820362719 0.5131206292146191 0.5706737536084584	-0.122516
H	0.7004180873857092 0.8628298378428041 0.8126538037601488	0.105353
H	0.6103274977821127 0.9564419395326882 0.8228818257915493	0.114635
H	0.5450642950299009 0.8903951384768934 0.3096209113609074	0.113800
H	0.6394650339398724 0.8011400111409104 0.3189213446967821	0.095583
H	0.7984424951186253 0.6376528826062938 0.8122212607848920	0.095237
H	0.8892713812363844 0.5438663447278276 0.8236005998690525	0.113105
H	0.9552283966340585 0.6092688513592922 0.3104334246265037	0.115320
H	0.8611277435635811 0.6980358498685264 0.3187086185046984	0.105406
H	0.6375558369985027 0.6998990164179303 0.8139159273481504	0.102791
H	0.5434642495452663 0.6101819001582869 0.8240359201556111	0.113604
H	0.6090661174547148 0.5447457488813116 0.3094823956043757	0.114476
H	0.6973194626869641 0.6393586251476454 0.3176415800895179	0.103462
H	0.8634770778217892 0.7971339265610268 0.8100629254854118	0.099846
H	0.9564612645324435 0.8886894597044143 0.8219189535832258	0.114153
H	0.8897707334314774 0.9552298929919011 0.3114592633653386	0.114692
H	0.7996671772079765 0.8616887029900441 0.3215554882377134	0.099987
H	0.2971337549390610 0.3634806690852402 0.1899396580788792	0.099895
H	0.3886910326936098 0.4564636916202289 0.1780799153319754	0.114150
H	0.4552293660612815 0.3897701926281117 0.6885397743308881	0.114705
H	0.3616874668589679 0.2996671829434229 0.6784497171415308	0.099971
H	0.1998990924568039 0.1375566718530660 0.1860836803888295	0.102807
H	0.1101827760740215 0.0434658901342005 0.1759642600893248	0.113589
H	0.0447458111969580 0.1090663199359537 0.6905201059363184	0.114451
H	0.1393582282493442 0.1973205679221576 0.6823586952424806	0.103445
H	0.3628297867337140 0.2004205822168279 0.1873457563531561	0.105346
H	0.4564413737760527 0.1103283034897816 0.1771179788703364	0.114611
H	0.3903938468651609 0.0450645533576197 0.6903854125749058	0.113800
H	0.3011396671306794 0.1394661226851176 0.6810813972895483	0.095582
H	0.1376532915102450 0.2984451864621476 0.1877717113421652	0.095201
H	0.0438652373454905 0.3892722561572811 0.1764009553944162	0.113103
H	0.1092666211278412 0.4552277642906618 0.6895662279048139	0.115245
H	0.1980347282795963 0.3611283558425470 0.6812877479833145	0.105440
H	0.5057939238211585 0.0019291834234527 0.3000075445661821	0.100428
H	0.9944816729404142 0.4979566701717970 0.3000441296297776	0.100146
H	0.4976986398055184 0.5053112912100478 0.3001177239177436	0.100713
H	0.0016434067363072 0.9939214456904341 0.2999052046908399	0.099877
H	0.4939195281240113 0.5016426714088161 0.7000953659465043	0.099852
H	0.0053097201745021 0.9976971975549206 0.6998832689955209	0.100698
H	0.5019282047414573 0.0057955337319258 0.6999956714067466	0.100403
H	0.9979554523688737 0.4944831162921156 0.6999577637816407	0.100134
Ni	0.2498194583037993 0.2497950045787389 0.4346635668235191	0.766083
Ni	0.7497971822938749 0.7498155156457139 0.5653322042612740	0.766095
Al	0.2517131774360803 0.2517368283599021 0.9347827967432774	1.674660
Al	0.7517430131392260 0.7517097214370602 0.0652186179278511	1.674720
F	0.2519861611478569 0.2487547734996929 0.1732819221458402	-0.587554
F	0.2487547425883711 0.2517871273965993 0.6959290322720550	-0.586299
F	0.7487556010763994 0.7519928863567938 0.8266993446159970	-0.587598
F	0.7517896441566996 0.7487556852538342 0.3040733011685353	-0.586298
F	0.1867386070751202 0.1882081891965932 0.9348314254085143	-0.631139
F	0.2309838004744194 0.3401454875352751 0.9412292724687642	-0.632412
F	0.3397226047872139 0.2293291697119659 0.9273616509490303	-0.632383
F	0.7293227518456233 0.8397036174009849 0.0726439787094578	-0.632357
F	0.8401545650442789 0.7309939656627513 0.0587407763591392	-0.632408
F	0.6882318717814324 0.6867202220757388 0.0651717673726082	-0.631155
N	0.3288464238295146 0.1738339806184337 0.4357091296381183	-0.233714
N	0.1711128724384903 0.3260633696075343 0.4339250390457144	-0.233283
N	0.3257617555822264 0.3285329311043051 0.4347253294742337	-0.231003
N	0.1735666269287942 0.1708168872743354 0.4345931172563611	-0.238773
N	0.6708167439506439 0.6735653085438378 0.5654091319327690	-0.238864
N	0.8285321745719583 0.8257610559705859 0.5652757246577064	-0.231019
N	0.6738331251053562 0.8288458516951843 0.5642915890380025	-0.233695
N	0.8260628072874669 0.6711118138556220 0.5660695205194837	-0.233196
	  	
