#======================================================================

# CRYSTAL DATA

#----------------------------------------------------------------------

data_VESTA_phase_1


_pd_phase_name                         ALFFIVE_14_Ni_i
_cell_length_a                         13.27208
_cell_length_b                         13.25469
_cell_length_c                         7.81618
_cell_angle_alpha                      87.67069
_cell_angle_beta                       87.60520
_cell_angle_gamma                      90.11864
_symmetry_space_group_name_H-M         P 1
_symmetry_Int_Tables_number            1

loop_
_symmetry_equiv_pos_as_xyz
   x, y, z

loop_
   _atom_site_label
   _atom_site_fract_x
   _atom_site_fract_y
   _atom_site_fract_z
   _atom_site_charge
C	0.5697073335355778 0.2679620550273021 0.3688629372412725	-0.183563
C	0.4650348267176445 0.2719024313845153 0.3730435165617180	0.111484
C	0.9398664423682712 0.2895620447870234 0.4200862019648302	-0.176543
C	0.0441087383530913 0.2817273720406611 0.4036568438315069	0.110053
C	0.2660081753647114 0.5694823639454992 0.3709780442126832	-0.185765
C	0.2698931725116755 0.4646494179675414 0.3754419725704641	0.110495
C	0.2978383734654719 0.9400186097997355 0.4151182638186709	-0.178072
C	0.2891660326683855 0.0443491606439118 0.3998844829167783	0.110079
C	0.9321306991078067 0.2340123869798778 0.1308204815115680	-0.186513
C	0.0368300167935570 0.2298778023431736 0.1243743330109857	0.106539
C	0.5633550988690545 0.2065583353899000 0.0833258750376304	-0.170405
C	0.4590809823829064 0.2160449991439025 0.0962378511873751	0.100257
C	0.2078605669873493 0.5631373011570537 0.0835657914602743	-0.176144
C	0.2174222194271681 0.4588063859184340 0.0966397366368440	0.099425
C	0.2305425931148063 0.9318711160658147 0.1340553418861985	-0.186381
C	0.2261319163704580 0.0366857336086483 0.1280412652202251	0.109124
C	0.4322801060804641 0.7343622707959807 0.6311708281054037	-0.183180
C	0.5369233816496713 0.7315675092695730 0.6238245369900309	0.108695
C	0.0633254671180827 0.7293703055839830 0.5714259392886342	-0.164113
C	0.9587579772503109 0.7326746535864167 0.5885583436761919	0.099446
C	0.7349976357117826 0.4321694814457029 0.6303407626838243	-0.183225
C	0.7322875166152055 0.5369853083482997 0.6231954813105888	0.108667
C	0.7159595110356191 0.0626478395519672 0.5772864997275643	-0.164191
C	0.7220734563674063 0.9580696238197568 0.5926712375376604	0.099921
C	0.0693268071518420 0.7624297013028423 0.8720514144223255	-0.181196
C	0.9646162850609565 0.7635629553759437 0.8781187920961089	0.104650
C	0.4402016775592174 0.7782098128284388 0.9271187448689052	-0.166098
C	0.5446140620223060 0.7749547486448802 0.9077784571493488	0.112327
C	0.7790626252981443 0.4400113216378368 0.9260783138976225	-0.167951
C	0.7749710330379845 0.5445102119626445 0.9074407856172133	0.111240
C	0.7669293423159580 0.0691329221444343 0.8693603698321414	-0.179951
C	0.7696441322822271 0.9643343666945794 0.8744474202886593	0.111703
C	0.6203931177143482 0.2351852976013118 0.2200658650923493	0.187371
C	0.8821966845872745 0.2636095798546481 0.2824330214372773	0.189923
C	0.2349518947943340 0.6202026745421092 0.2213272648689063	0.191716
C	0.2663539031827482 0.8821027676575841 0.2812085339247745	0.190207
C	0.3825022166622708 0.7574944451997346 0.7868951342856199	0.185605
C	0.1201608075087502 0.7454041556574629 0.7146159678046421	0.186513
C	0.7581321865658682 0.3822897111196281 0.7858340940103989	0.187350
C	0.7400479443217789 0.1197622514327466 0.7165945981274702	0.184289
H	0.6111597867098865 0.2848769975967707 0.4813809987141350	0.107701
H	0.4229416595178983 0.2918306053994261 0.4892269622728268	0.097831
H	0.9041247904890872 0.3145558180603994 0.5386100192908720	0.124360
H	0.0917677223522674 0.2997943001586254 0.5081791086884155	0.098582
H	0.2818318320165074 0.6112149472841916 0.4837953057005395	0.110975
H	0.2881214165528800 0.4227078967184106 0.4926529844248656	0.099227
H	0.3277050928471908 0.9043057877386569 0.5299352250034446	0.124868
H	0.3115024889798927 0.0922598995178048 0.5018076861775411	0.099238
H	0.8897686438187524 0.2187856851487433 0.0184231769378282	0.107420
H	0.0780847681398713 0.2084098098422587 0.0077503140436017	0.101334
H	0.5994293444503705 0.1780015486677182 0.9676914186458591	0.123553
H	0.4131861677131932 0.1979300357927485 0.9891337202150641	0.106704
H	0.1810427279314827 0.5992092598777421 0.9667104000537632	0.123621
H	0.2011206583241244 0.4129435523972551 0.9884839520592783	0.107702
H	0.2107071090609227 0.8892340372133332 0.0242779656754419	0.109946
H	0.2005863194453401 0.0779498045714140 0.0142662386923320	0.100384
H	0.3903828178446346 0.7216249872234438 0.5170976318550371	0.101937
H	0.5783034264381041 0.7130597572124443 0.5057545339965719	0.100708
H	0.0994693853488177 0.7147436374862947 0.4476159216302632	0.120288
H	0.9131738176241680 0.7210480305816801 0.4783318975557299	0.107081
H	0.7228135217542961 0.3900489304415799 0.5162295506079370	0.102451
H	0.7141615330737812 0.5784899838520220 0.5051162450550037	0.101137
H	0.6930347510342237 0.0987201777650189 0.4578587444692765	0.122390
H	0.7059320565439340 0.9122145997080408 0.4845017890301810	0.106705
H	0.1102849988674172 0.7710960927025599 0.9884729086841645	0.101447
H	0.9226873059377472 0.7726712349215904 -0.0008629142716933	0.102657
H	0.4044978536839706 0.7963824298960637 0.0496693215936811	0.122686
H	0.5922386044619485 0.7912722094131273 0.0131560948027164	0.096796
H	0.7977638534271266 0.4042332634017698 0.0481985753446245	0.122998
H	0.7905967186321690 0.5921480813333087 0.0132355695889219	0.096995
H	0.7811479690931151 0.1103410458308031 0.9835495545668100	0.103250
H	0.7861177154365899 0.9222540133845752 0.9923397777588923	0.100635
N	0.7763854241604776 0.2757444085924596 0.3005869366867870	-0.106231
N	0.2799168090679150 0.7761705611116295 0.2962829234841781	-0.109273
N	0.7261977115442748 0.2227896562325636 0.2030463860386943	-0.101935
N	0.2220061823386305 0.7260269556845043 0.2068219778752652	-0.102211
N	0.2260900602576700 0.7400223996495054 0.6881189734921463	-0.097623
N	0.7318109801302841 0.2257440191707665 0.6924805039443583	-0.097887
N	0.2765555009648363 0.7636520590370286 0.8142937979635018	-0.100405
N	0.7658294449114836 0.2763159530975280 0.8112656867153604	-0.102685
N	0.4102214130808307 0.2480977051808565 0.2387416128677081	-0.229090
N	0.0922357138859385 0.2524451648211128 0.2587504299591025	-0.224536
N	0.2476889051106630 0.4098152570719147 0.2402128189463023	-0.232234
N	0.2540117370162677 0.0922415511711557 0.2590944470339765	-0.227531
N	0.5924998851642213 0.7515075585359200 0.7595753309734012	-0.222717
N	0.9097680445469383 0.7497956028528787 0.7389609433270639	-0.226748
N	0.7517539147302666 0.5925467434868580 0.7592549951574562	-0.223222
N	0.7487308685223046 0.9093409055322698 0.7384495284368311	-0.227449
F	0.3690853734254491 0.2000346157055542 0.7388153629878423	-0.620729
F	0.2107665515516876 0.3704245667960232 0.7398007911294791	-0.619115
F	0.1505799227262006 0.1559001210616967 0.7672442905015698	-0.628279
F	0.7038130528122981 0.8700713239048229 0.2395568720150176	-0.614549
F	0.8686916533773428 0.7058597545332019 0.2407969487671266	-0.608986
F	0.6527928109026042 0.6535741362706891 0.2640076308732105	-0.624704
F	0.2494438869929277 0.2485083514089191 0.5103229863742029	-0.589278
F	0.2511753358711721 0.2492838318123512 0.9862862025530083	-0.590292
F	0.7486279421381441 0.7500816465216449 0.4861154153479563	-0.587958
F	0.7500527606991508 0.7501572203790060 0.0102503080796418	-0.586946
Al	0.2463964544606503 0.2445212737055504 0.7490834225520573	1.671616
Al	0.7445264548953099 0.7461007241285368 0.2490409412127647	1.665259
Ni	0.2511188061040292 0.2507732548094371 0.2483728609505328	0.766306
Ni	0.7509929821258330 0.7508526353322673 0.7482325757768499	0.762037
	  	
