#======================================================================

# CRYSTAL DATA

#----------------------------------------------------------------------

data_VESTA_phase_1


_pd_phase_name                         ALFFIVE_14_Cd_i
_cell_length_a                         13.71560
_cell_length_b                         13.71071
_cell_length_c                         8.18253
_cell_angle_alpha                      87.94292
_cell_angle_beta                       87.89132
_cell_angle_gamma                      91.68397
_symmetry_space_group_name_H-M         P 1
_symmetry_Int_Tables_number            1

loop_
_symmetry_equiv_pos_as_xyz
   x, y, z

loop_
   _atom_site_label
   _atom_site_fract_x
   _atom_site_fract_y
   _atom_site_fract_z
   _atom_site_charge
C	0.5752274233287764 0.2578718890712489 0.3646989952416594	-0.181937
C	0.4740118551091083 0.2611826608736570 0.3675828487022976	0.108801
C	0.9327348065958612 0.2778565529836260 0.4208568848154864	-0.176524
C	0.0333886598679969 0.2685913019211355 0.4070421105605159	0.113880
C	0.2564358262944147 0.5752079813602007 0.3684599960905319	-0.182523
C	0.2590562256272914 0.4738652029552698 0.3717499954718660	0.107217
C	0.2891122143292663 0.9332009220595736 0.4175648895982770	-0.175696
C	0.2802160063656145 0.0339445009674682 0.4046979938110325	0.110035
C	0.9248304773316645 0.2361317420113763 0.1365177169714115	-0.183409
C	0.0259758894855269 0.2315414105750575 0.1320741620754783	0.109556
C	0.5695537453124885 0.2225009186916842 0.0774856896710461	-0.175339
C	0.4687133616808576 0.2302118011936239 0.0896751610227591	0.102524
C	0.2241244411962970 0.5698624968441456 0.0800760676309541	-0.176125
C	0.2316566918692666 0.4690312290486731 0.0924124714706784	0.100879
C	0.2346118639457798 0.9248152938037044 0.1403009221356511	-0.183156
C	0.2302252883717020 0.0259915818579275 0.1366377117834606	0.109624
C	0.4252289816104513 0.7401927939810752 0.6379182171721337	-0.180739
C	0.5263179011558704 0.7361422996952642 0.6325122122150038	0.109162
C	0.0703541216668395 0.7367092309980159 0.5731613720378712	-0.166686
C	0.9692004731956723 0.7402555119070126 0.5874070907186220	0.100332
C	0.7399671339575721 0.4250177934986842 0.6372494631901008	-0.181172
C	0.7363491679715800 0.5261989871426784 0.6319181322537193	0.109853
C	0.7272260450193625 0.0697761827062425 0.5750723218527686	-0.168931
C	0.7324261255656277 0.9686733921777629 0.5883882045450773	0.099838
C	0.0752726456043036 0.7530064785210364 0.8664559508188194	-0.179988
C	0.9739776238854768 0.7543041404395657 0.8704523533859622	0.105934
C	0.4333356711425977 0.7712585969950027 0.9265725146021027	-0.169150
C	0.5342513135745420 0.7647966391282078 0.9104396263183733	0.113282
C	0.7709515353939768 0.4328267255187275 0.9260252727564244	-0.171685
C	0.7643159768713261 0.5337643439862430 0.9102808561787825	0.112558
C	0.7545691309150308 0.0751045657359822 0.8653132824042289	-0.177397
C	0.7566112417294824 0.9738407371329890 0.8687105143529689	0.107262
C	0.6239196915135018 0.2381135810099720 0.2161513070756957	0.187795
C	0.8773746850426757 0.2601030867843115 0.2840789747772415	0.188555
C	0.2383754104549020 0.6240217653818633 0.2194351256127712	0.187804
C	0.2647117025512821 0.8775538454006658 0.2840680380832608	0.189698
C	0.3777440737990426 0.7581396713295684 0.7885414542054207	0.187903
C	0.1244435643258495 0.7443462336729413 0.7141963958682359	0.185492
C	0.7577084189981220 0.3773987050086282 0.7877257680159651	0.187537
C	0.7399152477652035 0.1240431761103386 0.7148062443247633	0.186089
H	0.6157264751786512 0.2661922720880874 0.4756244713924027	0.107834
H	0.4319304055201273 0.2719791190542543 0.4809962936990559	0.105471
H	0.8976466733924443 0.2976859104554961 0.5357566529952782	0.124512
H	0.0797127281229476 0.2783118483503739 0.5112075814754070	0.102849
H	0.2638970351490232 0.6157884334418799 0.4795672172248031	0.110067
H	0.2683205820147852 0.4319448517897239 0.4859628583649201	0.107724
H	0.3141154135955039 0.8980492955847509 0.5290859025039805	0.124397
H	0.2966972459925738 0.0807530803764788 0.5059242444242475	0.102135
H	0.8833171786726626 0.2250445802502297 0.0274572582130367	0.108413
H	0.0671190805128283 0.2156220118097246 0.0196737726031722	0.106145
H	0.6055547919375989 0.2053434167914548 0.9620187836002868	0.123283
H	0.4237761474253099 0.2203188952849462 0.9833679181500897	0.109475
H	0.2087644502969681 0.6060392339353571 0.9638819143001169	0.122543
H	0.2242130866472043 0.4243865722588300 0.9851530225066601	0.109675
H	0.2189227938772527 0.8830390082870292 0.0331973363928785	0.110002
H	0.2097656450963771 0.0671870215440327 0.0270789937386803	0.103808
H	0.3839818538670050 0.7316379143620003 0.5278018451178713	0.102136
H	0.5674930662881250 0.7230994208607572 0.5189143388321587	0.104854
H	0.1064923543217819 0.7287901190576122 0.4541586638407432	0.122578
H	0.9245136900126871 0.7354463487939099 0.4797967420253387	0.109054
H	0.7319256840187838 0.3836164742983494 0.5271727295267097	0.103660
H	0.7239156085335591 0.5674678802902808 0.5182446849881930	0.105790
H	0.7143424085865721 0.1058265466652935 0.4577874420451756	0.122685
H	0.7243457150406579 0.9238222104448741 0.4814834708876431	0.110234
H	0.1151413069644601 0.7561974845753985 0.9790288875220315	0.104566
H	0.9319588588187039 0.7584481997535174 0.9860437675525970	0.108994
H	0.3983642749503671 0.7855275199137097 0.0442919629494769	0.123545
H	0.5809872938891846 0.7729684544274156 0.0144513792391510	0.101367
H	0.7853332128329135 0.3976900755957047 0.0435425932202358	0.124331
H	0.7717391144265890 0.5803097535947659 0.0148148968884405	0.102113
H	0.7608603417101041 0.1152369136335689 0.9771105376443492	0.104356
H	0.7643519145792913 0.9317424715901890 0.9831168866994364	0.106790
N	0.7753325804684245 0.2727020219450784 0.3010617971625728	-0.106631
N	0.2776942948016485 0.7754094067159228 0.2993170898010758	-0.109345
N	0.7259831846639756 0.2265181820423489 0.1998982036707277	-0.097877
N	0.2267946965402390 0.7260422008548034 0.2045049979659078	-0.096625
N	0.2268161630156608 0.7383819288109510 0.6922308018939575	-0.096276
N	0.7320897089223924 0.2263912089883560 0.6947752177558231	-0.098628
N	0.2753317193996497 0.7662591113881106 0.8113923109014634	-0.107397
N	0.7667567950532458 0.2750064345019297 0.8087629724569276	-0.105133
N	0.4222173435473009 0.2489432799621744 0.2325194160523474	-0.232249
N	0.0788620836631839 0.2467986822341532 0.2650283586362350	-0.234176
N	0.2482077329559591 0.4223098436179933 0.2359800314592048	-0.235068
N	0.2517526209309184 0.0791761499264517 0.2665735761785943	-0.229826
N	0.5795395394281879 0.7480236303227739 0.7661157715795649	-0.229760
N	0.9223917164472746 0.7489111367829048 0.7334686090262396	-0.231008
N	0.7480318049881456 0.5792412664781462 0.7658932365946570	-0.231867
N	0.7469520294927104 0.9220887154413590 0.7327274911971401	-0.230388
F	0.3650020221954588 0.2026775632098747 0.7464732994850773	-0.642642
F	0.2306365381779380 0.3759006277226103 0.7447406614428355	-0.637383
F	0.1459692110627494 0.1725978329422010 0.7490848324635582	-0.655781
F	0.7116708944115180 0.8715353032892864 0.2450008626719255	-0.637209
F	0.8743489365146888 0.7251034563720553 0.2414393378227447	-0.634447
F	0.6644299480724315 0.6559499180746771 0.2498626507417976	-0.654265
F	0.2560549001212287 0.2559947715947966 0.5225335208094969	-0.602206
F	0.2442841346009465 0.2463158910430853 0.9726632859905450	-0.602843
F	0.7481011928731555 0.7477755516202284 0.4709694646283532	-0.602306
F	0.7551441745705654 0.7572379868927457 0.0215123575535489	-0.601310
Al	0.2482911073853681 0.2502778715570219 0.7476888521596248	1.684871
Al	0.7506053410451562 0.7515732693488927 0.2461946236708588	1.681173
Cd	0.2507057169121076 0.2512610467061573 0.2473894289609004	0.825689
Cd	0.7514931760425229 0.7511362509717340 0.7461975058823122	0.824376
	  	
