#======================================================================

# CRYSTAL DATA

#----------------------------------------------------------------------

data_VESTA_phase_1


_pd_phase_name                         ALFFIVE_18_Cd
_cell_length_a                         14.53446
_cell_length_b                         14.24542
_cell_length_c                         8.00551
_cell_angle_alpha                      90.05634
_cell_angle_beta                       94.81114
_cell_angle_gamma                      90.02343
_symmetry_space_group_name_H-M         P 1
_symmetry_Int_Tables_number            1

loop_
_symmetry_equiv_pos_as_xyz
   x, y, z

loop_
   _atom_site_label
   _atom_site_fract_x
   _atom_site_fract_y
   _atom_site_fract_z
   _atom_site_charge
F	0.4999944823172465 0.3521757998412688 0.4987473662257435	-0.617486
F	0.5291647325151592 0.4777734961799151 0.7221742093782494	-0.607956
F	0.3942271897090380 0.5330607789960641 0.5281906803995772	-0.589553
F	0.0006030701952855 0.8522053855662395 0.5019330089067440	-0.617368
F	0.0292261214310705 0.9791739909253017 0.7238252032442258	-0.607136
F	0.8940471142441628 0.0329052113390093 0.5278397993413128	-0.590034
F	0.6028128403664200 0.5348187253414758 0.4719203294935926	-0.591360
F	0.4684766030193188 0.4780661776722920 0.2762586695697904	-0.605728
F	0.1028277892790152 0.0351743769839862 0.4720391882642615	-0.591158
F	0.9687179821322082 0.9768039811104799 0.2778125225684030	-0.606565
C	0.6823680963728287 0.1674358175318100 0.6547879619017424	-0.421039
C	0.7518157956492603 0.1594752300843942 0.8016051483613260	0.201086
C	0.7525121482105525 0.1975150573385742 0.9632249164699659	-0.150474
C	0.6840021267228680 0.2592824001535995 0.0287363027624180	-0.146720
C	0.6730224759584044 0.3565316892092714 0.9956903783694303	0.214753
C	0.7257024110272986 0.4166604913098622 0.8847314942052875	-0.429400
C	0.8742060203223392 0.1911689889481439 0.2222721883830923	-0.435547
C	0.8373912973316952 0.1688498148571134 0.0475883275268614	0.210825
C	0.6192315693590781 0.2375281609920906 0.1430475934243879	0.201701
C	0.5963611171707142 0.1463224877256963 0.2205919005593844	-0.426456
C	0.1820463858787550 0.6675573598207045 0.6547732529549207	-0.421322
C	0.2515588691794119 0.6595096123588835 0.8014369176049183	0.201123
C	0.2524258040614033 0.6975536389159216 0.9630892448293952	-0.151451
C	0.1840548146901095 0.7594009577790278 0.0288255874841494	-0.146204
C	0.1730300604202988 0.8566186412388231 0.9956498724822267	0.215366
C	0.2256100623107921 0.9166830531978898 0.8844230548310662	-0.430970
C	0.3743748290607956 0.6912560049020766 0.2218463473815443	-0.435943
C	0.3374116523488046 0.6689405980516390 0.0471798780185201	0.211184
C	0.1193313448298644 0.7376314832919350 0.1431919265044085	0.201711
C	0.0964004916527164 0.6464294946478417 0.2205517004525947	-0.426993
C	0.3199321855998775 0.1666841084465178 0.3429932987434286	-0.422120
C	0.2490043028946651 0.1596898671567409 0.1983413839390928	0.203284
C	0.2478475467715345 0.1969792090527433 0.0361799533415753	-0.151089
C	0.3164817718179480 0.2585068540912693 0.9704673027313472	-0.146696
C	0.3273781380323290 0.3556269682403269 0.0057092684590468	0.216404
C	0.2732849231865049 0.4153025128101086 0.1152713135437511	-0.430996
C	0.1239029452600536 0.1930741555900071 0.7805273515885238	-0.433581
C	0.1617776537507183 0.1700016183589815 0.9542564457832147	0.212065
C	0.3816575348046751 0.2374103688223787 0.8565827601792363	0.200543
C	0.4053013561328287 0.1469671096528601 0.7770239742660643	-0.425434
C	0.8196269497461819 0.6666112795749356 0.3430045477581506	-0.420459
C	0.7488813427795853 0.6595706569956481 0.1980118792823135	0.201950
C	0.7478481634943975 0.6969535184918946 0.0359174655089882	-0.150156
C	0.8164406398293453 0.7585935765279265 0.9703432779863557	-0.146843
C	0.8273666338803428 0.8556812959628211 0.0056402617008946	0.216162
C	0.7732439701579387 0.9153209075739217 0.1152315715130780	-0.431067
C	0.6240245191972227 0.6928563010854059 0.7797669033050150	-0.433794
C	0.6618759340222853 0.6699171540858346 0.9536444431084101	0.211052
C	0.8816089482788833 0.7374816815261802 0.8564448829149979	0.200467
C	0.9052662802776937 0.6470301058071576 0.7769942905054891	-0.425213
H	0.7152254187187267 0.1867587506587919 0.5409646238143113	0.144632
H	0.6312487144410276 0.2215738707271403 0.6777804589586512	0.142860
H	0.6455571224769450 0.1006790015227126 0.6289713862651634	0.132004
H	0.6806246082186735 0.4426240645240643 0.7777922285597854	0.150694
H	0.7820033537533886 0.3759821831361054 0.8372213958093658	0.132263
H	0.7552237396423416 0.4780930928778805 0.9531183870603920	0.131120
H	0.8560991315158579 0.0759995584603975 0.6953676998320957	0.286455
H	0.8704775440405600 0.1304595499892851 0.3059643527291945	0.147488
H	0.8343359041717218 0.2489356518313657 0.2715103759474872	0.131534
H	0.9470189767248137 0.2123698122369053 0.2263277517977287	0.138922
H	0.5652513485959503 0.1571512100497811 0.3393246626344615	0.140319
H	0.6585558841335200 0.1029665139535349 0.2439154462114654	0.148609
H	0.5468475750440350 0.1060508114304230 0.1368886531626720	0.132232
H	0.5294731353123562 0.3318592205106844 0.2604902333238912	0.276381
H	0.2149043158661883 0.6868292708547445 0.5408413367706824	0.144646
H	0.1310169291891478 0.7217650306663608 0.6780183036362760	0.143132
H	0.1451691239281873 0.6007908970902587 0.6293013271309722	0.132050
H	0.1803411353008368 0.9427925640335851 0.7778610705901009	0.150790
H	0.2818012648550183 0.8759806093238290 0.8364967545230418	0.133012
H	0.2552922305181375 0.9780158330687171 0.9528935950007521	0.131713
H	0.3558988676908503 0.5760672775526769 0.6949084744905724	0.286999
H	0.3707517973993501 0.6305407078048567 0.3055589996446643	0.147578
H	0.3345310636846796 0.7490232785625377 0.2710875153402479	0.131379
H	0.4471506302189957 0.7125238399074910 0.2257604222780817	0.139027
H	0.0652721923890915 0.6571712007089969 0.3392721619001458	0.140316
H	0.1585181806398080 0.6029885258844185 0.2439547843339408	0.148731
H	0.0468568107694285 0.6061497834109463 0.1369324841647770	0.132455
H	0.0293077750374880 0.8320264030811036 0.2601432316126829	0.277072
H	0.2881463097555242 0.1824566218195877 0.4595304501687807	0.144242
H	0.3693041208506504 0.2228251834831916 0.3215417148394066	0.144402
H	0.3586348524369762 0.1005488950469289 0.3626361447219820	0.131912
H	0.3178999141180454 0.4456747940499408 0.2188657176779978	0.151465
H	0.2194334480742907 0.3732015756665352 0.1675003082115335	0.132050
H	0.2400444219053784 0.4735962185108237 0.0433746865125617	0.131664
H	0.1436776115361882 0.0792312224039206 0.3079943131597321	0.287032
H	0.1273823456123345 0.1329776525497969 0.6951802537873488	0.147536
H	0.1630697279176676 0.2514744300726114 0.7316299890769191	0.131520
H	0.0510252330556361 0.2137348977329376 0.7784466816456617	0.138543
H	0.4376146668831042 0.1589074653408177 0.6597524126478861	0.140621
H	0.3432741585929132 0.1036857222257536 0.7503389156225962	0.147757
H	0.4541337133339668 0.1062310885069420 0.8609858849765044	0.132403
H	0.4721258545949986 0.3326393210319212 0.7431590242009406	0.276696
H	0.7876543432931846 0.6826270035677231 0.4593159842867746	0.144088
H	0.8691701980143530 0.7225734623114840 0.3212989662532303	0.144193
H	0.8580927130897201 0.6003285667627133 0.3627151262035069	0.131755
H	0.8178455959999302 0.9455051691501574 0.2189992985819686	0.151864
H	0.7192756353429206 0.8732384375465518 0.1671891321792239	0.132171
H	0.7402277923959792 0.9737130256363726 0.0433377883305854	0.131687
H	0.6433381724652314 0.5789136406090746 0.3071239659101248	0.287040
H	0.6275796606394823 0.6327286543989575 0.6944173248816219	0.148062
H	0.6632801164803691 0.7512093617165709 0.7309913633950543	0.131302
H	0.5511684585026225 0.7136932220959702 0.7775676427996350	0.138566
H	0.9375448780711578 0.6589464968781891 0.6596806029221047	0.140330
H	0.8432297136329452 0.6037738889863685 0.7501318470176436	0.147635
H	0.9540987011495123 0.6061624717559363 0.8607978649592205	0.132291
H	0.9719723030383600 0.8325367007154038 0.7425587506409306	0.276390
N	0.8312570253381636 0.1109117162589776 0.7967714758420644	-0.153190
N	0.6060081775636110 0.3914148495159467 0.0835409549470581	-0.260795
N	0.8842535106519361 0.1163273085650274 0.9439467996870854	-0.258999
N	0.5741878635346975 0.3183877350196009 0.1708595648821637	-0.146993
N	0.3310379076681149 0.6110139908120141 0.7963028344753424	-0.153109
N	0.1059910944119286 0.8914723435364809 0.0835170435341633	-0.260530
N	0.3842074629140894 0.6164971198865203 0.9432584790842942	-0.259329
N	0.0742423915756261 0.8184721519533757 0.1709532811915043	-0.146865
N	0.1685911411556474 0.1131501705885469 0.2057751129307189	-0.154076
N	0.3948651597856110 0.3910035391747828 0.9196319061573889	-0.258779
N	0.1145469124354093 0.1189966827491508 0.0597333572804788	-0.262527
N	0.4268887541006193 0.3184931051308376 0.8313803047220168	-0.147381
N	0.6684669558491383 0.6129369216202620 0.2051381630546952	-0.154315
N	0.8949634035251115 0.8909764096601615 0.9196715295832275	-0.259075
N	0.6146051249862039 0.6188562406583201 0.0588875857868063	-0.260941
N	0.9269673677964656 0.8184921433304142 0.8313381774004704	-0.147368
Al	0.4988136297259524 0.4759358185769267 0.4992596714224159	1.670404
Al	-0.0007866666966904 0.9759856125810698 0.5007852563151011	1.670546
Cd	0.5002730955441492 0.5104534726718799 0.0011375007074051	0.868991
Cd	0.0002435383917666 0.0103210361119539 0.0019337518019500	0.869338
	  	
