#======================================================================

# CRYSTAL DATA

#----------------------------------------------------------------------

data_VESTA_phase_1


_pd_phase_name                         ALFFIVE_14_Zn_i
_cell_length_a                         13.38663
_cell_length_b                         13.36700
_cell_length_c                         7.90318
_cell_angle_alpha                      87.76781
_cell_angle_beta                       87.69164
_cell_angle_gamma                      90.25980
_symmetry_space_group_name_H-M         P 1
_symmetry_Int_Tables_number            1

loop_
_symmetry_equiv_pos_as_xyz
   x, y, z

loop_
   _atom_site_label
   _atom_site_fract_x
   _atom_site_fract_y
   _atom_site_fract_z
   _atom_site_charge
C	0.5714872656645015 0.2662324122641384 0.3684535509807744	-0.184755
C	0.4677131048097043 0.2699055692566641 0.3724133013172058	0.110178
C	0.9382755865551986 0.2881905915506838 0.4189291072248976	-0.177230
C	0.0415967527378142 0.2800920061286808 0.4029046724000103	0.110351
C	0.2644397220607577 0.5712013925952136 0.3707737532091322	-0.185005
C	0.2678979902744466 0.4672448032044578 0.3751567106392936	0.108973
C	0.2967084386820621 0.9384610236888300 0.4140823787991132	-0.178189
C	0.2878636332368700 0.0419237669880978 0.3992838989376507	0.109148
C	0.9302640434630822 0.2347883304364073 0.1312926892082884	-0.188642
C	0.0340749737842004 0.2305899911021916 0.1251118254307455	0.108397
C	0.5650634237000501 0.2080402248200872 0.0838327080640966	-0.173358
C	0.4616762475512527 0.2174398709994722 0.0962555417462981	0.101391
C	0.2094617956484621 0.5647521129878799 0.0844092328655357	-0.174866
C	0.2189241043363269 0.4612924586286761 0.0970550756566212	0.099172
C	0.2314542150142664 0.9300600775873418 0.1344869343396496	-0.187200
C	0.2270590538314551 0.0340032528545911 0.1288549808860866	0.109041
C	0.4303400922563771 0.7354782556516136 0.6320530008749731	-0.184292
C	0.5341296557077281 0.7325491626055390 0.6249300673376758	0.107766
C	0.0649561176392157 0.7302708720582916 0.5728247766676324	-0.166393
C	0.9612718906499075 0.7337331592631048 0.5892890134850107	0.099553
C	0.7359874350215935 0.4303638945328205 0.6312769270865854	-0.185890
C	0.7329995438291731 0.5343172946184771 0.6243476322000333	0.110953
C	0.7173007515273117 0.0644652690763751 0.5779641059767869	-0.166907
C	0.7236833591316425 0.9607407486532966 0.5924853300428660	0.100305
C	0.0710871515143486 0.7608031726299288 0.8712114079322585	-0.182117
C	0.9672396112412580 0.7616715537741484 0.8771390082536376	0.105745
C	0.4385358038902284 0.7773600071908952 0.9258502767749390	-0.166598
C	0.5420651491950205 0.7733624161853626 0.9071858352791612	0.111518
C	0.7780829030412648 0.4385419248630555 0.9249148305943105	-0.170227
C	0.7731910701701012 0.5421481590469667 0.9068740233803112	0.111643
C	0.7652484208734265 0.0709476767843246 0.8685750244997356	-0.181245
C	0.7677133211983450 0.9670132380785846 0.8733936412187477	0.110150
C	0.6215145846049178 0.2350906376942328 0.2202418806429359	0.188156
C	0.8810841794224058 0.2635814324251194 0.2818267650720911	0.190366
C	0.2349189900803823 0.6212403421388544 0.2218292002550692	0.189033
C	0.2665035628976144 0.8810639842252261 0.2805846524416775	0.189484
C	0.3812299867107315 0.7578646988050101 0.7864839867212133	0.187172
C	0.1213015609287452 0.7450458447997155 0.7150484888640720	0.187378
C	0.7585072010831747 0.3812133706551226 0.7854108107865886	0.188713
C	0.7398325861773504 0.1210313526497658 0.7168193441234773	0.185946
H	0.6126601417407376 0.2822030834919276 0.4803086744098989	0.107493
H	0.4255822510406925 0.2884346993675264 0.4876244285708312	0.100417
H	0.9028412523270053 0.3125826594786812 0.5363475829792030	0.124640
H	0.0891573131257379 0.2966673857699557 0.5068970743974536	0.100314
H	0.2792873389029931 0.6127462533110997 0.4828677328058664	0.110343
H	0.2847386449953769 0.4253090022777358 0.4913808626427018	0.101294
H	0.3260122773604031 0.9030464769051596 0.5278332858730389	0.124787
H	0.3088993141048081 0.0897196239632946 0.5008134268656839	0.100355
H	0.8881050657840183 0.2203546875540927 0.0198511901695391	0.107821
H	0.0753209135359137 0.2100474762819669 0.0097221704251444	0.102262
H	0.6010422578800593 0.1807086375508473 0.9689924642455869	0.123979
H	0.4158928721990206 0.2006136992844562 0.9896165216603290	0.108491
H	0.1838370495594789 0.6007331430283168 0.9684215853939683	0.123428
H	0.2039702082573069 0.4155135310569077 0.9894466636816107	0.108381
H	0.2124283968895520 0.8875875878056779 0.0255129798958251	0.110130
H	0.2023598477019546 0.0752909331622908 0.0162996333953558	0.101308
H	0.3886542925197354 0.7232193012442807 0.5191193004474873	0.101862
H	0.5754962944397073 0.7150191990863896 0.5081064018200704	0.102301
H	0.1009633411142255 0.7166368502398490 0.4503549605800962	0.121284
H	0.9156275801623454 0.7234496591389441 0.4799992327533917	0.107385
H	0.7244522248454165 0.3883920715900501 0.5182881141170417	0.102999
H	0.7158151839600865 0.5757932623375692 0.5075329821677315	0.101807
H	0.6954561459490450 0.1004376707817434 0.4596867876897344	0.122835
H	0.7089733052772631 0.9149403734587092 0.4848856321231774	0.108159
H	0.1117611095787176 0.7689535960509869 0.9866075953069409	0.101320
H	0.9252767772355035 0.7697083738940451 0.9968459938428177	0.103502
H	0.4031502081209561 0.7949998559780073 0.0471100547947780	0.122491
H	0.5896338782601878 0.7878909453455389 0.0119658767330511	0.098309
H	0.7963558259108666 0.4030722967626055 0.0456981767077282	0.123444
H	0.7870710906993361 0.5897988598319238 0.0119987682497083	0.098269
H	0.7786973055403315 0.1118584751154753 0.9819602508938315	0.103632
H	0.7827331342978030 0.9248966398692338 0.9902466636499335	0.102913
N	0.7761925045277052 0.2753472290228980 0.3003336694949167	-0.105018
N	0.2796417403081080 0.7759845085532064 0.2961054872097269	-0.107808
N	0.7264763535135819 0.2232559539757401 0.2028961582226422	-0.099895
N	0.2224712046867826 0.7262731778074586 0.2069081378670660	-0.098729
N	0.2262864142077552 0.7395260504904707 0.6891257438472871	-0.096730
N	0.7313521919607673 0.2260943122792215 0.6936049957388589	-0.096314
N	0.2762664838160795 0.7644275019620415 0.8133178753893450	-0.101468
N	0.7667297872846266 0.2761861606751192 0.8099798935272603	-0.103136
N	0.4136663673424884 0.2477260352846996 0.2383225258966178	-0.219192
N	0.0888620069989571 0.2519869340528879 0.2588380352151097	-0.216746
N	0.2473212985895544 0.4131642712479004 0.2401837080281761	-0.220239
N	0.2538327000560253 0.0889769326046087 0.2593413240794478	-0.215089
N	0.5891560769913834 0.7511811979025789 0.7599046045829704	-0.213383
N	0.9131106105994339 0.7493276964813198 0.7387163210419959	-0.216503
N	0.7511391655089935 0.5893376011653547 0.7596561090092259	-0.215293
N	0.7484932751121374 0.9127596546961979 0.7376729124345841	-0.217663
F	0.3686221411768917 0.2008449078286812 0.7409446518917778	-0.628434
F	0.2136891981831433 0.3706888383735719 0.7416938125669537	-0.626446
F	0.1507576350389342 0.1579161674960686 0.7647839733838317	-0.637012
F	0.7052422201255805 0.8701232546675963 0.2413115314511862	-0.622643
F	0.8692631359590103 0.7087513005529911 0.2414461817729150	-0.617666
F	0.6544733206751076 0.6542404027344918 0.2620672168386536	-0.633528
F	0.2501546471971290 0.2491549138029767 0.5143179785320650	-0.586431
F	0.2502898370064356 0.2480619617619333 0.9835506899738512	-0.586189
F	0.7479901425075112 0.7494432623231808 0.4825872886860066	-0.585457
F	0.7502397689640875 0.7508847287822448 0.0142454865617083	-0.584519
Al	0.2467773711561934 0.2450576335636836 0.7493511799552148	1.670810
Al	0.7452152588723967 0.7467504695521927 0.2489946910266685	1.664596
Zn	0.2512482410443267 0.2511517086013996 0.2481013170284408	0.735959
Zn	0.7512411781295737 0.7510824182427209 0.7479269642387579	0.734593
	  	
