#======================================================================

# CRYSTAL DATA

#----------------------------------------------------------------------

data_VESTA_phase_1


_pd_phase_name                         ALFFIVE_18_Fe
_cell_length_a                         14.23555
_cell_length_b                         14.01978
_cell_length_c                         7.80169
_cell_angle_alpha                      89.95253
_cell_angle_beta                       95.59571
_cell_angle_gamma                      90.27837
_symmetry_space_group_name_H-M         P 1
_symmetry_Int_Tables_number            1

loop_
_symmetry_equiv_pos_as_xyz
   x, y, z

loop_
   _atom_site_label
   _atom_site_fract_x
   _atom_site_fract_y
   _atom_site_fract_z
   _atom_site_charge
F	0.4997602493457626 0.3536038115869722 0.4985384294640298	-0.609272
F	0.5200333342296428 0.4865080497530251 0.7342913442456324	-0.571543
F	0.3878140270959458 0.5268642468843260 0.5116945239891368	-0.582811
F	-0.0005066087237599 0.8535713243204056 0.4980581562699853	-0.609262
F	0.0201927769360216 0.9866209211651440 0.7342309987692326	-0.572008
F	0.8877072242819686 0.0265341456798615 0.5118097891618897	-0.582858
F	0.6125658742748058 0.5283480417016559 0.4920684128241654	-0.579850
F	0.4809645259017192 0.4892964808625974 0.2667107022283821	-0.574411
F	0.1125127692574425 0.0282118084820845 0.4917846926189077	-0.579960
F	0.9809266158048108 0.9895153917891892 0.2665287466882230	-0.574087
C	0.6811663067476155 0.1605484390000065 0.6508843045876611	-0.420917
C	0.7536216865975855 0.1540405931296411 0.8010424399198579	0.196353
C	0.7581274311584022 0.1979423780346620 0.9625573564308501	-0.155010
C	0.6883442959313952 0.2616782272577319 0.0254001277237267	-0.145635
C	0.6742832238133925 0.3596245714069430 0.9856706933506592	0.218248
C	0.7278889594516277 0.4213230443911988 0.8730167631082376	-0.427494
C	0.8852902502039828 0.1966369990546109 0.2266529852606938	-0.434238
C	0.8451760703324084 0.1685982249797471 0.0503312173694145	0.215844
C	0.6218343960924906 0.2388908448916082 0.1403633186405954	0.203278
C	0.5984889021056746 0.1461974621677590 0.2197475361689832	-0.425899
C	0.1812563271542589 0.6607292665401835 0.6506663265771478	-0.420658
C	0.2536918479031818 0.6541468048305901 0.8008085577104419	0.195831
C	0.2581527883468024 0.6979879481218354 0.9623550451212625	-0.154496
C	0.1884201839323869 0.7617466721620234 0.0253011511054952	-0.146014
C	0.1742932750732214 0.8596930706286504 0.9855980772214287	0.218642
C	0.2279662487641964 0.9213895638061653 0.8730680086552169	-0.428073
C	0.3853357393325564 0.6967053157275720 0.2264352270336719	-0.433495
C	0.3451907157644345 0.6686633518057958 0.0501566070897554	0.215724
C	0.1219293777046234 0.7389496527454440 0.1403001195848346	0.203537
C	0.0986372732801863 0.6461803908829074 0.2195562442108248	-0.425900
C	0.3187460298947860 0.1646401586194645 0.3505045606226584	-0.423569
C	0.2460812161160726 0.1558149386130892 0.2010024513800154	0.199409
C	0.2418107499496857 0.1977444790500198 0.0375642651047836	-0.153171
C	0.3121881417331280 0.2605316965113149 0.9725169809818970	-0.146254
C	0.3267077915019931 0.3586753755491743 0.0104993155318287	0.218391
C	0.2719832521611726 0.4204435699211129 0.1198217274206420	-0.426927
C	0.1125285955305753 0.1971539503391237 0.7769141350787778	-0.433141
C	0.1537148763904138 0.1691652431701519 0.9524336969641761	0.216895
C	0.3792971853650838 0.2370761689386539 0.8596347864037901	0.202288
C	0.4023618836692001 0.1445219295501634 0.7804866824627692	-0.427002
C	0.8188027147255219 0.6644993508668920 0.3503611639018637	-0.422586
C	0.7461322731455494 0.6557151772382351 0.2008064947493123	0.199327
C	0.7418930096357528 0.6976269000214361 0.0373522656521296	-0.153645
C	0.8123056296570498 0.7604593357836579 0.9724718773532111	-0.145872
C	0.8268295410391365 0.8585910556170346 0.0105684728560145	0.217526
C	0.7720504537237588 0.9203400365908182 0.1197945297298303	-0.426732
C	0.6126056000928678 0.6972713676147411 0.7768293540737566	-0.434229
C	0.6537191383105956 0.6691590268434617 0.9523286326357280	0.216632
C	0.8794470445824041 0.7370269348871039 0.8596684915047669	0.202845
C	0.9024783698117826 0.6444811053324062 0.7804192735689166	-0.427122
H	0.7124529632120546 0.1843843800455018 0.5348332074371891	0.143918
H	0.6269267693165533 0.2121760248388121 0.6779306856414186	0.137575
H	0.6466022936000310 0.0913288441377043 0.6210098042278608	0.132172
H	0.6819307412653562 0.4511827273482563 0.7652691175748078	0.147119
H	0.7836581889821239 0.3796699319265184 0.8209852114797634	0.131847
H	0.7606952544815944 0.4817998680207826 0.9464884387663477	0.130562
H	0.8558024607341091 0.0647118014350526 0.6963923845264895	0.281519
H	0.8733247916100398 0.1411395059094024 0.3215803013082632	0.144306
H	0.8518322829301844 0.2627044610714282 0.2649340175343707	0.128751
H	0.9617913383830381 0.2082711973146059 0.2310723971127090	0.139817
H	0.5627384666884941 0.1568902916146055 0.3364894754073170	0.138940
H	0.6625267673215254 0.1042010760855388 0.2527431896017683	0.148805
H	0.5512602479590312 0.1032392992989657 0.1297498448739302	0.132152
H	0.5270272856499264 0.3328168929508074 0.2519027949736972	0.273489
H	0.2126223231380613 0.6845772050643163 0.5347321446690584	0.143856
H	0.1270112657431445 0.7123431076256126 0.6776845742490297	0.137739
H	0.1467132248820119 0.5915317149619670 0.6207024496877630	0.132213
H	0.1821295075727021 0.9513119245622942 0.7652566276671129	0.147395
H	0.2837557573313905 0.8797491477720094 0.8211044036879419	0.131898
H	0.2607409221961436 0.9818292336198797 0.9467587108893579	0.130676
H	0.3558698548752155 0.5647869357716551 0.6962791783285263	0.281455
H	0.3734735373466422 0.6411530878503821 0.3214423707771732	0.144019
H	0.3518816446849217 0.7627971064150758 0.2647997919148962	0.128564
H	0.4618537725001106 0.7084548751102500 0.2307448647979894	0.139598
H	0.0628276957384111 0.6567860331048199 0.3362438846472559	0.139083
H	0.1626930872884186 0.6042042682575468 0.2525021215610830	0.148605
H	0.0514695220976955 0.6032425358017907 0.1294077092567115	0.131948
H	0.0271278861058369 0.8327788092323298 0.2521087769739758	0.273652
H	0.2865182374135484 0.1846580836672626 0.4674883929514201	0.144829
H	0.3701012890078159 0.2201166324387921 0.3249522633612799	0.141326
H	0.3570735879845287 0.0974918255432523 0.3776732059114673	0.131918
H	0.3177182381041077 0.4548133144524138 0.2233336178126472	0.147942
H	0.2186074815124286 0.3772596623286352 0.1769338677522473	0.131876
H	0.2357934808428435 0.4773085841125778 0.0420880711914559	0.130472
H	0.1427866899156825 0.0687948330558895 0.3100972293282874	0.281461
H	0.1259314811418894 0.1431340548915504 0.6804842191473374	0.143846
H	0.1441122282205985 0.2649567740964787 0.7403555687260099	0.129553
H	0.0357550464824707 0.2057808747759949 0.7734111265553114	0.139923
H	0.4412926391928015 0.1558095572122157 0.6674474166827196	0.139724
H	0.3381417047719503 0.1033572237690444 0.7410869785148895	0.148744
H	0.4466185653933615 0.1004019536878727 0.8727500841437397	0.132452
H	0.4759242599767096 0.3307162594000208 0.7492128916702583	0.273943
H	0.7865778303343105 0.6845951640847455 0.4673373245055100	0.144685
H	0.8702402923217787 0.7198967174900797 0.3247972897389037	0.140922
H	0.8569862375701911 0.5972805523091345 0.3775144888454390	0.131672
H	0.8177324546526989 0.9547073390592310 0.2233680463059996	0.147935
H	0.7186122306137995 0.8771867983595456 0.1767554130227119	0.131962
H	0.7359186766659525 0.9772570052681524 0.0420755901967192	0.130399
H	0.6428467480385252 0.5687697173728465 0.3100829395286603	0.281271
H	0.6259462525904141 0.6432291440381809 0.6804562728833405	0.144106
H	0.6442889749233388 0.7650234878629543 0.7403178066919924	0.130202
H	0.5358555980322719 0.7060451878390918 0.7732058633926860	0.140208
H	0.9413852290032539 0.6558160842995192 0.6673730680105172	0.139624
H	0.8382435148013065 0.6033603975145513 0.7409518433124410	0.148672
H	0.9467054931535664 0.6002853849640941 0.8726123055518629	0.132329
H	0.9760935368974178 0.8306710482235518 0.7494131784282537	0.273900
N	0.8330334224821105 0.1018701827514535 0.7995643755027815	-0.153462
N	0.6036419507098206 0.3939165545075034 0.0701638153057305	-0.265059
N	0.8897299781509461 0.1097682949201615 0.9490954149203836	-0.261434
N	0.5735524315724018 0.3198016800360626 0.1628445151975285	-0.147010
N	0.3330905889171253 0.6019598540040232 0.7994171307428825	-0.153578
N	0.1036924734566317 0.8940006274892257 0.0702049985973565	-0.265339
N	0.3897634092140355 0.6098249013508104 0.9489955805149173	-0.261295
N	0.0736676456279770 0.8198489434002348 0.1629327356455486	-0.147169
N	0.1659039416088450 0.1046561688591422 0.2054021214727321	-0.153430
N	0.3982740457938913 0.3924681199785951 0.9272390168539484	-0.263782
N	0.1086353248928203 0.1117926215763409 0.0564874487439095	-0.262475
N	0.4285645119519397 0.3179239597043527 0.8370529587535095	-0.145648
N	0.6658931217866871 0.6046392567298432 0.2053051630700411	-0.153635
N	0.8984686119866551 0.8923842361948605 0.9275143030965131	-0.262552
N	0.6085817172800826 0.6118222829864960 0.0564041891805721	-0.262342
N	0.9287570319583572 0.8178649219739574 0.8372916799077441	-0.146261
Al	0.5000583218293150 0.4781239288242370 0.5000450954647263	1.659191
Al	-0.0001036689128074 0.9781176593834000 0.4998076039749144	1.659546
Fe	0.5008383471301110 0.5054336737272590 0.9988663879856061	0.831007
Fe	0.0009896772374488 0.0054815664881326 0.9989241322235580	0.830534
	  	
