#======================================================================

# CRYSTAL DATA

#----------------------------------------------------------------------

data_VESTA_phase_1


_pd_phase_name                         ALFFIVE_6_Zn_i
_cell_length_a                         17.82773
_cell_length_b                         17.82774
_cell_length_c                         15.27442
_cell_angle_alpha                      89.99997
_cell_angle_beta                       90.00016
_cell_angle_gamma                      89.97076
_symmetry_space_group_name_H-M         P 1
_symmetry_Int_Tables_number            1

loop_
_symmetry_equiv_pos_as_xyz
   x, y, z

loop_
   _atom_site_label
   _atom_site_fract_x
   _atom_site_fract_y
   _atom_site_fract_z
   _atom_site_charge
N	0.2439668126213170 0.1292852390804307 0.1280053212351362	-0.227334
N	0.2562080072309658 0.3708119581273938 0.1287022724234182	-0.229768
N	0.3707298793936222 0.2438043977761834 0.1284939541537501	-0.228541
N	0.1292203822131281 0.2560165529928384 0.1276120181645942	-0.228471
N	0.7561947342167715 0.6292705825486098 0.3715047799333265	-0.228494
N	0.7439831527201056 0.8707792819516104 0.3723894538962580	-0.228502
N	0.6291880251494640 0.7437937586464659 0.3712951797744887	-0.229824
N	0.8707146349629081 0.7560348675726519 0.3719975064221158	-0.227330
N	0.7562067297350963 0.8708120785185843 0.8712950738567864	-0.229888
N	0.7439655816376466 0.6292847209152874 0.8719972211844075	-0.227328
N	0.6292206325969215 0.7560170661013016 0.8723888661646528	-0.228446
N	0.8707306255808591 0.7438047397611770 0.8715054062059933	-0.228577
N	0.2439831568091509 0.3707789797927828 0.6276103377034375	-0.228449
N	0.2561951195316945 0.1292700870069161 0.6284943940349491	-0.228567
N	0.3707147348069209 0.2560350704906155 0.6280016636526521	-0.227260
N	0.1291880386050656 0.2437942541415436 0.6287060485768022	-0.229778
C	0.2004208286306852 0.0933396627375050 0.1862560427524380	0.109489
C	0.1919020481232231 0.0158992904940577 0.1855997607304015	-0.182646
C	0.2323476250933963 0.9729743862156941 0.1247985814294078	0.111203
C	0.2789435051560334 0.0111821731476393 0.0657817994718034	-0.182351
C	0.2820828196054614 0.0890199003826215 0.0684365864018575	0.104002
C	0.2265701892653624 0.8905318395556351 0.1236453531112482	0.059602
C	0.2906869110472994 0.8466766867443986 0.1208875773592399	-0.172455
C	0.2862276607661231 0.7675378151725156 0.1220497616533093	0.083763
C	0.1487796294167562 0.7784321285228656 0.1245909363973822	-0.122141
C	0.1550211461198895 0.8552910669064998 0.1266115340396017	-0.135108
C	0.2996354876194152 0.4066468255856315 0.1873059601722409	0.099530
C	0.3081623476432931 0.4841558997857898 0.1864294371548732	-0.187050
C	0.2676597287644766 0.5270609931804179 0.1256280807733113	0.105890
C	0.2212051785584208 0.4888650695567211 0.0664439786361495	-0.184112
C	0.2182662785200576 0.4109963998054203 0.0687046316383738	0.102139
C	0.2734577633057577 0.6094841142693777 0.1240971913492049	0.064240
C	0.2093567008540052 0.6533454108537304 0.1210926494572115	-0.173412
C	0.2137777686878088 0.7324943302261435 0.1220578149298153	0.084231
C	0.3512007471908145 0.7215960062213324 0.1246492724998464	-0.121989
C	0.3449927988344509 0.6447403341306923 0.1268456073407934	-0.137118
C	0.4066279547938267 0.2001782788190693 0.1867051251805151	0.102991
C	0.4841283740044434 0.1918194815152842 0.1862564988058636	-0.185243
C	0.5270510029229878 0.2324149357955504 0.1256036762815239	0.108496
C	0.4888248696998334 0.2789033407478122 0.0664690542181923	-0.180592
C	0.4109994020391629 0.2819221120939098 0.0689101660552530	0.111035
C	0.6094859125330041 0.2265922942553065 0.1241169023265926	0.060378
C	0.6532957147583353 0.2906900308366633 0.1211195527351757	-0.172499
C	0.7324331367032904 0.2862041731546625 0.1220738310620149	0.085958
C	0.7216054054384465 0.1487767068726490 0.1246569570084145	-0.122038
C	0.6447526446829607 0.1550229524471593 0.1268522917770750	-0.135559
C	0.0933008707590942 0.2994235753645639 0.1862263141043073	0.101681
C	0.0158392939630039 0.3080117528652823 0.1853937503246833	-0.183458
C	0.9729549583547876 0.2675828821501665 0.1245561200925455	0.109254
C	0.0111700517740156 0.2210253880138149 0.0654475750019386	-0.186027
C	0.0890734340808607 0.2179900916683897 0.0677430591253444	0.099914
C	0.8905124760847966 0.2733543399755515 0.1235438839990560	0.060683
C	0.8466685553656146 0.2092634347626023 0.1208442012511837	-0.173908
C	0.7675159064055128 0.2137402352414063 0.1220592883933791	0.085509
C	0.7783439337756729 0.3511726143917095 0.1246014544009898	-0.123460
C	0.8552069356651804 0.3448929864196257 0.1265731625963425	-0.135821
C	0.7998210554445188 0.5933725851543067 0.3132943310077642	0.102918
C	0.8081801637057476 0.5158716776764469 0.3137432042915995	-0.185403
C	0.7675844795958819 0.4729493884604271 0.3743955810603273	0.108513
C	0.7210966646219966 0.5111751253067471 0.4335306147219285	-0.180562
C	0.7180770073313422 0.5890011408292898 0.4310887301656384	0.111028
C	0.7734074385497335 0.3905142613824722 0.3758827999168242	0.060449
C	0.7093095600813208 0.3467040126821868 0.3788797268628646	-0.172489
C	0.7137958322459431 0.2675669260381607 0.3779253759884690	0.086023
C	0.8512229039487755 0.2783949856508312 0.3753424822686870	-0.122070
C	0.8449763363516625 0.3552477365705634 0.3731471622637515	-0.135626
C	0.7005766098335371 0.9066990078832713 0.3137743539612150	0.101631
C	0.6919886620342993 0.9841606684449550 0.3146064547294327	-0.183428
C	0.7324172427805179 0.0270451978691821 0.3754442173868780	0.109265
C	0.7789749718739306 0.9888302705983740 0.4345528322935612	-0.186034
C	0.7820101150633431 0.9109265623716777 0.4322576342595978	0.099979
C	0.7266455410273986 0.1094874001056532 0.3764562043077395	0.060667
C	0.7907364401325732 0.1533315521322319 0.3791555813745441	-0.173883
C	0.7862594762141725 0.2324840944244297 0.3779400117308352	0.085473
C	0.6488273113120148 0.2216558634998254 0.3753977736192077	-0.123459
C	0.6551070786156351 0.1447930252107985 0.3734266162845475	-0.135834
C	0.5933537955264991 0.7003657593158198 0.3126923367512411	0.099495
C	0.5158441936858171 0.6918378718365727 0.3135701599894680	-0.187023
C	0.4729393045099139 0.7323407146276318 0.3743720856557547	0.105812
C	0.5111351829018758 0.7787946985063829 0.4335555387697862	-0.184096
C	0.5890041581404714 0.7817340815837932 0.4312937116859875	0.102205
C	0.3905161431820843 0.7265420665213888 0.3759023242460553	0.064236
C	0.3466549484442631 0.7906435234193413 0.3789070091064793	-0.173391
C	0.2675060016305127 0.7862224696159941 0.3779421517812704	0.084162
C	0.2784042119826308 0.6487990804508957 0.3753505873769263	-0.121991
C	0.3552598089719292 0.6550071181378795 0.3731541462155040	-0.137128
C	0.9066599379081326 0.7995799744579076 0.3137453504867832	0.109486
C	0.9841005162597103 0.8080979233619251 0.3144004980755510	-0.182650
C	0.0270257815120092 0.7676523832918867 0.3752016357386419	0.111182
C	0.9888184799224912 0.7210564456119092 0.4342186676790055	-0.182375
C	0.9109804605732816 0.7179178706298219 0.4315649399745461	0.104018
C	0.1094683511061684 0.7734297985106607 0.3763552496642044	0.059617
C	0.1533234971291920 0.7093131032333965 0.3791124312174991	-0.172456
C	0.2324624353639940 0.7137723659186312 0.3779501173151053	0.083789
C	0.2215683503895910 0.8512205487562079 0.3754096540850199	-0.122131
C	0.1447091330929309 0.8449789903227254 0.3733893672920834	-0.135065
C	0.7996346738353773 0.9066459694442842 0.8126923747497812	0.099497
C	0.8081624406297573 0.9841556089290530 0.8135697108080152	-0.187005
C	0.7676595393555878 0.0270606927892895 0.8743716430403176	0.105836
C	0.7212054878199050 0.9888649009727585 0.9335549025555131	-0.184137
C	0.7182658310922848 0.9109960208605850 0.9312932116289235	0.102222
C	0.7734582864264663 0.1094839546596732 0.8759021795363627	0.064260
C	0.7093568324019079 0.1533451920969399 0.8789070384968219	-0.173384
C	0.7137778598493927 0.2324941188409917 0.8779421061205908	0.084253
C	0.8512009614035200 0.2215959725811701 0.8753506081675541	-0.122021
C	0.8449928666837025 0.1447404736596587 0.8731543772661456	-0.137137
C	0.7004204062973688 0.5933396529725981 0.8137450316811202	0.109505
C	0.6919020704356733 0.5158993094537789 0.8144005038937142	-0.182694
C	0.7323476795267836 0.4729742169138946 0.8752017325756873	0.111263
C	0.7789438198338886 0.5111813345992294 0.9342188826166645	-0.182434
C	0.7820824449685047 0.5890192677578734 0.9315650697621564	0.103974
C	0.7265702262965739 0.3905316753895200 0.8763547216809627	0.059627
C	0.7906869639200995 0.3466765883871825 0.8791124280064606	-0.172478
C	0.7862277664080196 0.2675376872090366 0.8779501587369745	0.083768
C	0.6487796791008051 0.2784318559354587 0.8754090155483693	-0.122175
C	0.6550211090134826 0.3552908405101669 0.8733884882777592	-0.135091
C	0.5933010980985653 0.7994237758136777 0.8137737198637094	0.101664
C	0.5158395115393868 0.8080116987384344 0.8146059726712929	-0.183462
C	0.4729551517584090 0.7675829064104904 0.8754437048767265	0.109262
C	0.5111701122677642 0.7210252546624544 0.9345526392963589	-0.186075
C	0.5890738322025260 0.7179902026837718 0.9322573901964374	0.099953
C	0.3905125302080035 0.7733544504073261 0.8764560245190707	0.060695
C	0.3466686902950516 0.7092634454725395 0.8791557287926995	-0.173957
C	0.2675159847455372 0.7137402508642008 0.8779407390772577	0.085534
C	0.2783439824067156 0.8511726165278906 0.8753986397356972	-0.123450
C	0.3552069676041995 0.8448931470162692 0.8734269191882774	-0.135838
C	0.9066274904408047 0.7001787769436251 0.8132949230352224	0.102935
C	0.9841283528984363 0.6918194344077820 0.8137434946681107	-0.185336
C	0.0270508053165762 0.7324151166907850 0.8743964325019140	0.108525
C	0.9888255412025407 0.7789036740035429 0.9335310127160023	-0.180580
C	0.9109996259386481 0.7819227357636330 0.9310898539874286	0.111060
C	0.1094860837852471 0.7265922496705650 0.8758833344629734	0.060386
C	0.1532957242365870 0.7906901412903035 0.8788804923704043	-0.172511
C	0.2324330889609121 0.7862041928095332 0.8779261764581546	0.085959
C	0.2216053782641675 0.6487767614826748 0.8753430742067386	-0.122026
C	0.1447526452511348 0.6550229361247970 0.8731477887501568	-0.135587
C	0.2005763961052558 0.4066989217381297 0.6862251899996726	0.101644
C	0.1919887191640441 0.4841604520581813 0.6853931630499349	-0.183363
C	0.2324174111982830 0.5270451916339474 0.6245557425893672	0.109242
C	0.2789749179128603 0.4888302821763207 0.5654470303010165	-0.186084
C	0.2820099438839678 0.4109264584038058 0.5677420957894426	0.099976
C	0.2266458367255430 0.6094877442008044 0.6235437084190018	0.060673
C	0.2907367500860660 0.6533317041403556 0.6208440438256747	-0.173884
C	0.2862599701961425 0.7324842671025030 0.6220592812892041	0.085521
C	0.1488277446154826 0.7216562593483679 0.6246014802534380	-0.123462
C	0.1551071802720320 0.6447933486946683 0.6265730799413222	-0.135823
C	0.2998213746218621 0.0933724110937036 0.6867045621363106	0.102952
C	0.3081807726933167 0.0158715731867935 0.6862560956114919	-0.185254
C	0.2675850084376580 0.9729493751183849 0.6256033750512069	0.108486
C	0.2210963091628667 0.0111751309519513 0.5664691101201013	-0.180631
C	0.2180771482951134 0.0890009395579943 0.5689098381207814	0.111146
C	0.2734080010552167 0.8905141808156302 0.6241165133530545	0.060369
C	0.2093102447725048 0.8467044515038666 0.6211194627755515	-0.172445
C	0.2137961024739142 0.7675671747744673 0.6220738963020043	0.085983
C	0.3512234034145913 0.7783948905099231 0.6246569621981339	-0.122055
C	0.3449772866183686 0.8552475389263370 0.6268520969737595	-0.135631
C	0.4066603901083976 0.2995800060488749 0.6862541393707657	0.109520
C	0.4841007658807871 0.3080978751060047 0.6855992869012589	-0.182694
C	0.5270258868348588 0.2676524303851517 0.6247982630065445	0.111244
C	0.4888185445654715 0.2210564316868304 0.5657811223010158	-0.182338
C	0.4109805657754717 0.2179180746748207 0.5684343759214588	0.103934
C	0.6094684304276244 0.2734298857984019 0.6236447863300556	0.059578
C	0.6533234975732151 0.2093131600524183 0.6208875666641368	-0.172429
C	0.7324624248988280 0.2137724237799922 0.6220497790161618	0.083768
C	0.7215683738093305 0.3512206694117801 0.6245902462866054	-0.122107
C	0.6447092241937307 0.3449791442721055 0.6266105675767834	-0.135066
C	0.0933538458480135 0.2003656991300254 0.6873081992102948	0.099537
C	0.0158443380140867 0.1918376005652950 0.6864300719438046	-0.187036
C	0.9729393041693676 0.2323406294286572 0.6256280457928605	0.105837
C	0.0111350367201942 0.2787947485410648 0.5664447334532341	-0.184076
C	0.0890038444273859 0.2817345288677969 0.5687069028981377	0.102135
C	0.8905160521196666 0.2265420003362773 0.6240975963280017	0.064245
C	0.8466549307469541 0.2906435761954346 0.6210928913183144	-0.173403
C	0.7675059948419410 0.2862225317389414 0.6220577343396129	0.084173
C	0.7784041455040249 0.1487990783146274 0.6246492850378647	-0.121990
C	0.8552597325678645 0.1550069902730888 0.6268457019414524	-0.137140
H	0.1732529242375874 0.1283266700733624 0.2354126062277482	0.099190
H	0.1560716841867918 0.9888784248682839 0.2339938129415204	0.111780
H	0.3108409032551778 0.9803606684281636 0.0167036745429248	0.111326
H	0.3151109418169440 0.1210911500106672 0.0214359328152050	0.098860
H	0.3458997270475478 0.8731844810179101 0.1203785535484636	0.107330
H	0.0937100264500150 0.7517483417952351 0.1253661115941071	0.108884
H	0.1048370913422833 0.8902714343476610 0.1286196240671933	0.097957
H	0.3270915645986480 0.3716233878229803 0.2365764096699850	0.103940
H	0.3444421326392649 0.5111892875787528 0.2343763134990410	0.112873
H	0.1895125294423845 0.5195762573309759 0.0170778940513005	0.113539
H	0.1868289275859398 0.3792394842180823 0.0198367869268718	0.105534
H	0.1541570236666702 0.6267913895217853 0.1204479564828631	0.107829
H	0.4062667949111657 0.7483113653884109 0.1252945341354041	0.105771
H	0.3951814437690373 0.6097647581101555 0.1287912610365253	0.099050
H	0.3713417686098784 0.1719824976574859 0.2349078254488928	0.098640
H	0.5111832919870510 0.1555785865012578 0.2342457088752839	0.111570
H	0.5195371988524394 0.3104525773638231 0.0170313276737708	0.113156
H	0.3791070055116103 0.3139237716673054 0.0208852578758621	0.100394
H	0.6267404506207220 0.3459036318722093 0.1205048772736992	0.108068
H	0.7482939760892269 0.0936828689946694 0.1252653673538701	0.106488
H	0.6098302425122897 0.1048233513566705 0.1287054508237451	0.099626
H	0.1279758167969489 0.3258419901755592 0.2364205992075589	0.105429
H	0.9888550846745944 0.3438627518790850 0.2338382992290034	0.112631
H	0.9803250650412948 0.1889855612817994 0.0165263981805329	0.112122
H	0.1210694441583821 0.1853877202078713 0.0200165622574674	0.102489
H	0.8732413114938863 0.1540518460068649 0.1202888461847931	0.106436
H	0.7515822645238476 0.4062390399607902 0.1254123465628774	0.107574
H	0.8901916170369840 0.3950392491851454 0.1286604912165386	0.097683
H	0.8280177313212582 0.6286585430962155 0.2650917836413186	0.098686
H	0.8444211856136770 0.4888169221168975 0.2657549569034331	0.111636
H	0.6895476040131916 0.4804630035645590 0.4829682745885381	0.113152
H	0.6860759393399550 0.6208935276793260 0.4791131511922824	0.100396
H	0.6540961648421922 0.3732591277192541 0.3794933795164881	0.108040
H	0.9063165005424723 0.2517064944869854 0.3747348955169896	0.106527
H	0.8951758075929140 0.3901700548159131 0.3712946877283963	0.099641
H	0.6741581671935599 0.8720241184319835 0.2635798342688871	0.105458
H	0.6561377723240822 0.0111451294076684 0.2661616833513570	0.112606
H	0.8110149107034414 0.0196751394402895 0.4834737642617694	0.112108
H	0.8146134895158338 0.8789307431913641 0.4799836203360389	0.102472
H	0.8459478665694836 0.1267588958770976 0.3797113154040149	0.106401
H	0.5937609044131870 0.2484173583983760 0.3745872567744471	0.107569
H	0.6049611242273639 0.1098079870104995 0.3713397544591341	0.097685
H	0.6283761716624470 0.6729092356990769 0.2634221112317546	0.103942
H	0.4888109082977696 0.6555577995909874 0.2656242160083601	0.112888
H	0.4804242614422624 0.8104870613850380 0.4829221304673865	0.113559
H	0.6207609622124628 0.8131708568951055 0.4801622651363220	0.105479
H	0.3732089317783697 0.8458431896102561 0.3795518177124605	0.107853
H	0.2516886748306348 0.5937331795663827 0.3747053819976185	0.105768
H	0.3902352386131461 0.6048183931225335 0.3712084782010335	0.099045
H	0.8716727627964743 0.8267471516158003 0.2645879086400775	0.099224
H	0.0111211593195720 0.8439281553671404 0.2660058492697860	0.111784
H	0.0196400164417916 0.6891588699888811 0.4832965572148631	0.111339
H	0.8789099775878016 0.6848887072663203 0.4785651350581775	0.098871
H	0.1268156856417080 0.6541000537036512 0.3796212947298567	0.107329
H	0.2482518867261974 0.9062902793519531 0.3746338210416453	0.108883
H	0.1097288848077503 0.8951631863164053 0.3713809198459763	0.097942
H	0.8270917626789867 0.8716232525905483 0.7634231828867210	0.103973
H	0.8444425117772153 0.0111888593900985 0.7656238176813928	0.112867
H	0.6895134056904898 0.0195758217478130 0.9829219062298222	0.113585
H	0.6868293594334108 0.8792394314335105 0.9801619044057797	0.105496
H	0.6541572985299363 0.1267912424455220 0.8795516964093015	0.107831
H	0.9062667358392166 0.2483115266007690 0.8747053814726485	0.105782
H	0.8951818573955318 0.1097649629313632 0.8712084429166338	0.099051
H	0.6732535700912253 0.6283271281701290 0.7645877076467695	0.099213
H	0.6560718956958268 0.4888784709832374 0.7660057683776031	0.111762
H	0.8108416718682374 0.4803597859499950 0.9832966499183939	0.111375
H	0.8151110223926856 0.6210905016495364 0.9785651685836572	0.098877
H	0.8458997759060086 0.3731845524988395 0.8796213724254416	0.107330
H	0.5937101644604559 0.2517481358455055 0.8746337133518937	0.108877
H	0.6048370290303867 0.3902713281614063 0.8713803268481639	0.097957
H	0.6279759472511689 0.8258414981518785 0.7635787489595712	0.105429
H	0.4888549925842265 0.8438627142002061 0.7661612268500729	0.112609
H	0.4803254582877464 0.6889853875301692 0.9834737105029973	0.112134
H	0.6210699274794694 0.6853874052740699 0.9799834481383245	0.102485
H	0.3732415032873121 0.6540518845112048 0.8797110530928820	0.106453
H	0.2515823107592404 0.9062389958560703 0.8745876555087031	0.107581
H	0.3901916322055270 0.8950394243727031 0.8713395075842035	0.097679
H	0.8713408758792706 0.6719828468289334 0.7650925105438287	0.098674
H	0.0111826988217224 0.6555786697193209 0.7657544987858015	0.111629
H	0.0195377252678751 0.8104526035549343 0.9829692785943767	0.113171
H	0.8791072107647651 0.8139243196363890 0.9791135392534275	0.100390
H	0.1267404819084298 0.8459036596538915 0.8794950390471080	0.108064
H	0.2482940800480384 0.5936830555676809 0.8747344294514808	0.106475
H	0.1098303702167603 0.6048233458044449 0.8712944557315889	0.099636
H	0.1741578529552803 0.3720239352455951 0.7364195276738499	0.105454
H	0.1561378571372961 0.5111448703541088 0.7338377920156289	0.112540
H	0.3110148338027843 0.5196753210486229 0.5165263900152050	0.112116
H	0.3146129209317811 0.3789309110847839 0.5200156856166122	0.102471
H	0.3459482188495855 0.6267588288747169 0.6202888041132703	0.106412
H	0.0937613959125322 0.7484179493438792 0.6254124812872269	0.107578
H	0.1049610242982873 0.6098085302973307 0.6286604778877962	0.097688
H	0.3280174066336189 0.1286588119036512 0.7349071770596718	0.098637
H	0.3444213833276971 0.9888169823767348 0.7342449769520095	0.111574
H	0.1895473038010849 0.9804625216574450 0.5170311209617282	0.113185
H	0.1860756946333537 0.1208933288576831 0.5208860142931366	0.100363
H	0.1540967606770990 0.8732597776377026 0.6205049798876277	0.108030
H	0.4063170928517016 0.7517061546109509 0.6252654642092126	0.106486
H	0.3951766917249107 0.8901699603028955 0.6287054041941410	0.099662
H	0.3716730130450202 0.3267468378921521 0.7354113567084408	0.099198
H	0.5111215379075481 0.3439280222470255 0.7339940584507449	0.111772
H	0.5196402038378392 0.1891586319291108 0.5167037219160444	0.111326
H	0.3789097479570832 0.1848891113041402 0.5214341913362889	0.098885
H	0.6268156209454150 0.1541000849318511 0.6203787768857266	0.107327
H	0.7482519591588808 0.4062903512483110 0.6253661639865137	0.108876
H	0.6097289141932571 0.3951633014595572 0.6286190826263229	0.097940
H	0.1283764423457591 0.1729088542646797 0.7365781746735296	0.103911
H	0.9888111937795780 0.1555576337604508 0.7343759690904056	0.112866
H	0.9804238654080368 0.3104870501359412 0.5170777388724335	0.113550
H	0.1207601805455088 0.3131708899216392 0.5198377928686289	0.105515
H	0.8732089708417140 0.3458432474290672 0.6204481890634085	0.107850
H	0.7516885398672667 0.0937332711515900 0.6252945745031117	0.105764
H	0.8902352654773079 0.1048182961082475 0.6287914018003506	0.099047
F	0.2562484284815542 0.1531675944401683 0.3778647589717521	-0.664323
F	0.1630444236532373 0.2966055081636768 0.3786136094760670	-0.654783
F	0.3310307617517559 0.3057799113719430 0.3787793550084697	-0.660831
F	0.6942218786835557 0.6689698020379965 0.1212445078112419	-0.660910
F	0.7033966271803638 0.8369533367258839 0.1213787151549532	-0.654861
F	0.8468371643138547 0.7437525518955281 0.1221327338291712	-0.664381
F	0.6630587390729366 0.7966192156811824 0.6214007740894549	-0.654753
F	0.7562413264378121 0.6531608309916516 0.6221279169821895	-0.664321
F	0.8310446269179758 0.8057649789065444 0.6212221563487096	-0.660801
F	0.1942196813335256 0.1689546828914533 0.8787565465890588	-0.660841
F	0.3468359859088568 0.2437514646371696 0.8778797572491875	-0.664338
F	0.2033768845524519 0.3369346542758721 0.8786085542629545	-0.654718
F	0.2493201445084959 0.2503206652541351 0.2599262984456769	-0.584595
F	0.2491118638807709 0.2492593329241110 0.4970448030657884	-0.583566
F	0.7496994797936705 0.7506948958142194 0.2400782557685272	-0.584630
F	0.7507324065247267 0.7508731668054187 0.0029591174451224	-0.583707
F	0.7493256188891352 0.7502991090276190 0.7400732677753462	-0.584580
F	0.7491066071589583 0.7492682171599342 0.5029554617716706	-0.583595
F	0.2497097531706486 0.2506800450874206 0.7599217255574703	-0.584588
F	0.2507171435112926 0.2508688164025232 0.9970421436690413	-0.583582
Zn	0.2498429521685558 0.2502417921378822 0.1284831212808592	0.743412
Zn	0.7497584489016157 0.7501568256141242 0.3715164758570061	0.743491
Zn	0.7498431611070210 0.7502415996441623 0.8715181870369322	0.743532
Zn	0.2497576667168927 0.2501568549034051 0.6284840771342912	0.743370
Al	0.2499237575688661 0.2510177175443835 0.3784882082927374	1.699682
Al	0.7489866862215069 0.7500759372665650 0.1215148092928703	1.700023
Al	0.7499281016637213 0.7510136413323761 0.6215138054897937	1.699562
Al	0.2489824190285762 0.2500641342796655 0.8784855357072100	1.699629
	  	
