#======================================================================

# CRYSTAL DATA

#----------------------------------------------------------------------

data_VESTA_phase_1


_pd_phase_name                         ALFFIVE_2_Ni_i
_cell_length_a                         13.86796
_cell_length_b                         13.86797
_cell_length_c                         7.93049
_cell_angle_alpha                      89.99988
_cell_angle_beta                       89.99983
_cell_angle_gamma                      89.74193
_symmetry_space_group_name_H-M         P 1
_symmetry_Int_Tables_number            1

loop_
_symmetry_equiv_pos_as_xyz
   x, y, z

loop_
   _atom_site_label
   _atom_site_fract_x
   _atom_site_fract_y
   _atom_site_fract_z
   _atom_site_charge
C	0.0002051189023173 0.3024776418901456 0.3479352749119586	-0.162754
C	-0.0000605054918961 0.2024122718959626 0.3536872873509500	0.093811
C	0.5002074118936234 0.8024574331757683 0.8480031467978671	-0.162819
C	0.4999409384254163 0.7024130075763116 0.8537327541494999	0.093990
C	-0.0001655868462042 0.6985422443068708 0.3477934316660182	-0.162836
C	-0.0006251291561528 0.7985708615810324 0.3537658656041520	0.106069
C	0.4998140516541531 0.1985461053834442 0.8478508813130859	-0.163434
C	0.4993604844292749 0.2985664480864603 0.8537985070936878	0.105697
C	0.6985411061348539 -0.0001628294362277 0.3477918424582198	-0.162773
C	0.7985699023944259 -0.0006229129528747 0.3537646424173603	0.106051
C	0.1985450311716746 0.4998164481942728 0.8478500173131546	-0.163515
C	0.2985656818263573 0.4993620403240917 0.8537977223845473	0.105733
C	0.3024761941574183 0.0002070871932237 0.3479364249561832	-0.162851
C	0.2024104614367568 -0.0000585629126916 0.3536874119083843	0.093915
C	0.8024553136711196 0.5002107526080263 0.8480038800857460	-0.162876
C	0.7024109770623577 0.4999433976543152 0.8537339969748053	0.093998
C	0.0002050970780635 0.3024773387195540 0.6520635188763840	-0.162762
C	-0.0000606658227462 0.2024120208977606 0.6463124868277197	0.093840
C	0.5002075253220387 0.8024568334838661 0.1519941066446384	-0.162775
C	0.4999410429012454 0.7024127064472833 0.1462644429018405	0.093914
C	-0.0001656820840178 0.6985419186207329 0.6522074447424211	-0.162821
C	-0.0006252903478853 0.7985706516295532 0.6462340986815702	0.106059
C	0.4998145285744977 0.1985460560506833 0.1521494561143669	-0.163461
C	0.4993605796667417 0.2985662887825644 0.1462000015029729	0.105702
C	0.3024759810469134 0.0002070721046040 0.6520640358508264	-0.162808
C	0.2024103104241795 -0.0000585127338432 0.6463133683729843	0.093870
C	0.8024554120634374 0.5002103061389125 0.1519950114409921	-0.162839
C	0.7024112952937643 0.4999429952846729 0.1462655045008348	0.093980
C	0.6985409351348518 -0.0001629867492771 0.6522059754363825	-0.162780
C	0.7985698296493582 -0.0006230841105834 0.6462326140158451	0.106011
C	0.1985454374058572 0.4998163836769972 0.1521491824839770	-0.163520
C	0.2985656554407098 0.4993620054969382 0.1462000266750081	0.105668
C	0.0007546786907327 0.4565476928345172 0.4999993877543051	-0.090635
C	0.0005032656609835 0.3546668314344584 0.4999993878269556	0.160687
C	0.5007507008249995 0.9565498639826359 -0.0000001071811010	-0.090272
C	0.5004989185731407 0.8546946031040316 -0.0000010533709456	0.160486
C	0.0007925908115707 0.5444828629780050 0.5000003052122505	-0.102316
C	0.0003945255666691 0.6463553777901472 0.5000004294060338	0.162716
C	0.5007927376005830 0.0444855510302421 0.0000007550097397	-0.102825
C	0.5003772720322350 0.1463275927056815 0.0000003061512552	0.164107
C	0.5444813846265593 0.0007954138467232 0.4999995119201416	-0.102502
C	0.6463541157854310 0.0003974488881163 0.4999990350486171	0.162683
C	0.0444834962184573 0.5007935536381488 0.0000032543569755	-0.103068
C	0.1463279558152487 0.5003793102231238 0.0000003038619675	0.164160
C	0.4565461109582309 0.0007569084588228 0.4999998130105176	-0.090416
C	0.3546651056398790 0.0005053713547063 0.5000000705332693	0.160738
C	0.9565499854312132 0.5007534525521816 -0.0000001889617134	-0.090019
C	0.8546929556818671 0.5005025922351758 -0.0000009382151188	0.160527
H	-0.0001827814095538 0.3397505237377939 0.2270737206697430	0.118219
H	-0.0016804742915990 0.1604056663896379 0.2378038360936852	0.103814
H	0.4998199686571348 0.8397095353530607 0.7271408603949533	0.118037
H	0.4983117495769118 0.6604988968361579 0.7377617163378140	0.103954
H	-0.0005456661798208 0.6610416543469294 0.2271720692506142	0.118475
H	-0.0024918740934691 0.8414654324902850 0.2388771279122259	0.096955
H	0.4994315729207879 0.1610753324977005 0.7272347666901636	0.118490
H	0.4974908307409842 0.3414165881824758 0.7388580952244096	0.096841
H	0.6610399351889751 -0.0005431760706121 0.2271707098245512	0.118473
H	0.8414641638027468 -0.0024901349965395 0.2388754545482024	0.096943
H	0.1610734216155103 0.4994331804755775 0.7272340988408762	0.118527
H	0.3414154593362232 0.4974881012802808 0.7388563071998633	0.096848
H	0.3397492206393752 -0.0001804406228812 0.2270745324050411	0.118208
H	0.1604035130061029 -0.0016784669326305 0.2378042873352650	0.103776
H	0.8397073432113347 0.4998213951129356 0.7271413838376883	0.118072
H	0.6604952066085751 0.4983075612206320 0.7377649524550308	0.103945
H	-0.0001827289432747 0.3397501367348404 0.7729249707446392	0.118203
H	-0.0016806702700612 0.1604052121317774 0.7621961166713713	0.103800
H	0.4998199363456810 0.8397078384852913 0.2728571304551010	0.118029
H	0.4983117405192355 0.6604981319595709 0.2622350578626843	0.103994
H	-0.0005456573398503 0.6610410514393678 0.7728287178929079	0.118450
H	-0.0024916966395125 0.8414651468514135 0.7611226516495730	0.096962
H	0.4994325888525915 0.1610757175522171 0.2727658255382659	0.118503
H	0.4974911103665494 0.3414167507323158 0.2611396715286377	0.096845
H	0.3397490257521420 -0.0001805441255285 0.7729257162161490	0.118220
H	0.1604034204709727 -0.0016784679722619 0.7621969452121626	0.103777
H	0.8397072341794545 0.4998210714064965 0.2728571570229202	0.118042
H	0.6604952669479026 0.4983071229778575 0.2622348892640684	0.103957
H	0.6610396901688296 -0.0005433056123141 0.7728272737382759	0.118464
H	0.8414641076973708 -0.0024899191723579 0.7611215322711640	0.096941
H	0.1610739409976683 0.4994331678408592 0.2727650790675748	0.118522
H	0.3414152567073191 0.4974881853928459 0.2611410132232435	0.096868
Ni	0.0006041279773826 0.0006024321654806 0.5000017673546084	0.767789
Ni	0.5006147791866249 0.5006166713683137 0.0000080915045221	0.767662
Al	-0.0005454071390927 -0.0005462986903913 0.0000027635608365	1.660207
Al	0.4994537408019694 0.4994330864426740 0.5000009797864032	1.661388
N	-0.0000265127624882 0.1527360208025563 0.4999997842476241	-0.231181
N	0.4999776844450042 0.6527129792581385 -0.0000012386301580	-0.231287
N	-0.0003265528016302 0.8483376163264270 0.5000000829090940	-0.233913
N	0.4996686274373364 0.3483719267700909 -0.0000003621690009	-0.232976
N	0.8483370768341323 -0.0003250907567034 0.4999985698748729	-0.233902
N	0.3483710234145872 0.4996703083429974 -0.0000010154308139	-0.232974
N	0.1527347227675816 -0.0000247744824691 0.5000005678918991	-0.231170
N	0.6527105890195061 0.4999799864630461 0.0000004545160516	-0.231221
F	0.0006294782272190 0.0006239925818668 0.7633793899683280	-0.585368
F	0.5006644073157877 0.5006602220412877 0.2629404470644283	-0.585672
F	0.0006259831960804 0.0006218848792635 0.2366287292899855	-0.585383
F	0.5006654185093117 0.5006566303683554 0.7370593452711418	-0.585649
F	0.6190224726188718 0.4645684375483064 0.4999962793449392	-0.605512
F	0.4647597896940676 0.6190554241380104 0.5000013274739180	-0.605443
F	0.4117401410971790 0.4118080601879509 0.4999984771426516	-0.624193
F	0.9116662956282963 0.9116727029673906 0.0000111908427731	-0.624149
F	0.9645368200926991 0.1191362280858946 0.0000027128968586	-0.605464
F	0.1191418929660426 0.9645387149030610 0.0000034280926603	-0.605481
	  	
