#======================================================================

# CRYSTAL DATA

#----------------------------------------------------------------------

data_VESTA_phase_1


_pd_phase_name                         ALFFIVE_3_Cu
_cell_length_a                         13.78705
_cell_length_b                         13.78722
_cell_length_c                         8.08950
_cell_angle_alpha                      89.96680
_cell_angle_beta                       89.97749
_cell_angle_gamma                      90.76131
_symmetry_space_group_name_H-M         P 1
_symmetry_Int_Tables_number            1

loop_
_symmetry_equiv_pos_as_xyz
   x, y, z

loop_
   _atom_site_label
   _atom_site_fract_x
   _atom_site_fract_y
   _atom_site_fract_z
   _atom_site_charge
C	0.2593506565246045 0.4506879122834933 0.6365298786757797	0.056344
C	0.2371629017442756 0.0518094145561540 0.6462779309442944	0.064673
C	0.2385561458628641 0.4509295260721200 0.3529854925907056	0.056834
C	0.2587648132304419 0.0515200472377187 0.3632652655647096	0.064079
C	0.0516722168009186 0.2591629941310762 0.3625632860903268	0.063296
C	0.4507463119636870 0.2383867480544487 0.3532903826736257	0.057723
C	0.4506070374307635 0.2594105846742445 0.6368882000191569	0.056978
C	0.0518962333204540 0.2371199799652726 0.6455662880170140	0.065118
C	0.9507770518522431 0.2384115402289585 0.6464802089039909	0.057176
C	0.5515620141012224 0.2590419057467218 0.6371608691159424	0.062470
C	0.5518668946651708 0.2371137168028856 0.3541523379684942	0.064959
C	0.9507059673486923 0.2594915010421225 0.3628572284126468	0.057193
C	0.7370862870823860 0.0518709136244944 0.3541513788306553	0.065217
C	0.7594965561741895 0.4507276213754949 0.3628251445965662	0.057423
C	0.7590591553067261 0.0515379485922574 0.6371535996781388	0.062807
C	0.7384149583781199 0.4507858581650918 0.6464421037061304	0.057717
C	0.4506257479480803 0.7384620635881777 0.6473607462160069	0.056059
C	0.0517808827409812 0.7589076286230713 0.6369497190536128	0.063355
C	0.0521690949132205 0.7370956104851721 0.3539118008153518	0.066067
C	0.4504773518007809 0.7591325793376954 0.3636318774483706	0.055581
C	0.2371215355843883 0.5521607325807848 0.3538693864754149	0.065705
C	0.2591490482183519 0.9504692233081710 0.3636101878574892	0.055343
C	0.2589260092457955 0.5517407758185301 0.6369356210024328	0.063054
C	0.2384529540789307 0.9505864614420805 0.6473392892911870	0.056377
C	0.7594404447499971 0.9505836583718026 0.6368844028942449	0.057172
C	0.7371312459394093 0.5519058401207015 0.6455156057753457	0.064909
C	0.7383870875817533 0.9507458561249265 0.3532746312982092	0.057856
C	0.7591863467410848 0.5516962684093620 0.3625275458550156	0.063397
C	0.5515300254972600 0.7587574973677358 0.3632844300123206	0.063765
C	0.9509347666544445 0.7385426388346163 0.3530142431941419	0.057150
C	0.9507251284122373 0.7593470922417699 0.6365445348889895	0.056505
C	0.5518492967884197 0.7371856217479025 0.6463061098500692	0.065209
H	0.2647732482493791 0.4099181210522170 0.7515527752046829	0.126136
H	0.2263458024062228 0.0925342713533888 0.7601933990940598	0.122036
H	0.2305459565516766 0.4110749920629227 0.2369963037394633	0.126363
H	0.2651417598264532 0.0928837209933499 0.2490145750715669	0.120957
H	0.0931201131766575 0.2658094029682985 0.2485153087593803	0.120696
H	0.4107336616758411 0.2302906791824998 0.2375270841567516	0.125654
H	0.4098382487950541 0.2649567761908422 0.7518591438981562	0.125908
H	0.0926908067301274 0.2261653182418593 0.7593536867374556	0.121966
H	0.9107511558789607 0.2303070321583364 0.7623117357617414	0.125961
H	0.5929887775195404 0.2656153806068432 0.7511947608966163	0.121210
H	0.5926782208080899 0.2262243296330401 0.2403081520919575	0.121880
H	0.9099451187904259 0.2650052009829752 0.2479136771635275	0.125662
H	0.7261819847716243 0.0926876665780378 0.2403160508122614	0.122040
H	0.7650166511408782 0.4100022447984950 0.2478623425288731	0.125828
H	0.7656688223247221 0.0929393094695422 0.7511953669199186	0.121268
H	0.7303238120709350 0.4107781497528012 0.7622928223215599	0.126085
H	0.4106691660636680 0.7304585233128169 0.7633907428573136	0.126596
H	0.0932552868634344 0.7653954109509314 0.7510421939104257	0.121530
H	0.0930012662965026 0.7260574806360339 0.2400378438008589	0.121910
H	0.4095667266822586 0.7645298008693563 0.2487539095079631	0.126575
H	0.2260752478236544 0.5929780007187836 0.2399859471729368	0.121852
H	0.2645443620772018 0.9095810420573984 0.2487441048254967	0.126400
H	0.2654030986923709 0.5931925194200253 0.7510303590324182	0.121421
H	0.2304284877223264 0.9106284177651003 0.7633608776014211	0.126379
H	0.7649949089722665 0.9098211650293805 0.7518703195622294	0.125766
H	0.7261784870296597 0.5926816534902660 0.7592996606187589	0.122263
H	0.7302930951751152 0.9107611440148069 0.2374979890347365	0.125802
H	0.7658604377589526 0.5931259823762568 0.2484659847997917	0.120871
H	0.5928866503840811 0.7651284876103045 0.2490216807647933	0.121023
H	0.9110700510648322 0.7305335676218243 0.2370070161104151	0.126185
H	0.9099499246420323 0.7647742350137441 0.7515599273853257	0.126073
H	0.5925862373422470 0.7263781475958900 0.7602406890420278	0.121755
Cu	0.2508552705354496 0.2508549816407168 0.4983317921063305	0.716289
Cu	0.7508501204636185 0.2508523114269464 0.5014460863996653	0.716983
Cu	0.2508486173378827 0.7508331496805830 0.5016633348494414	0.712632
Cu	0.7508853693576633 0.7508710619887327 0.4983614432530316	0.716961
Al	0.2507820838857676 0.2509412469970248 -0.0033988785242841	1.660164
Al	0.7508063529591198 0.2508730648591977 0.0032179386942198	1.661389
Al	0.2508446325179811 0.7508452096272219 0.0035327397444927	1.662333
Al	0.7509377941312870 0.7508247449271360 -0.0034520470508671	1.660841
F	0.2543251824794498 0.2550093979767598 0.7697280729933855	-0.628351
F	0.2485979004719470 0.2483242987486479 0.2236261423464383	-0.629174
F	0.1615915696441029 0.1613560891203728 -0.0130152272330449	-0.621458
F	0.2184616160566511 0.3723477789788042 -0.0001832294152744	-0.614369
F	0.3722758467720250 0.2187569667439512 -0.0009677906281870	-0.614311
F	0.7485047477659933 0.2485659093200709 0.7761868044828751	-0.629736
F	0.7545265375457800 0.2544236714824121 0.2300402912453113	-0.628582
F	0.6611620472857236 0.1616795237002054 0.0126751599168151	-0.622188
F	0.7187671992592480 0.3723620735707512 0.0004095672629362	-0.614810
F	0.8722118293135047 0.2184671128189452 0.0003477910593632	-0.614893
F	0.2476623079474719 0.7476290963899522 0.7779078879966166	-0.629249
F	0.2558980507931214 0.7560128939262887 0.2291901599820365	-0.627521
F	0.1615134725808415 0.6613259648440158 0.0171009154280387	-0.621039
F	0.2179714708417634 0.8724023239036305 -0.0005847918937972	-0.614926
F	0.3724333311579344 0.7182029761816022 -0.0002822070180311	-0.614875
F	0.7551775816246843 0.7542277413771581 0.7697102379932446	-0.628203
F	0.7482373803308497 0.7486479332136186 0.2236140969479751	-0.629384
F	0.6611419465930127 0.6618417771319596 -0.0131932246827434	-0.621365
F	0.7188919064447525 0.8723268001767419 -0.0011105716569646	-0.614200
F	0.8723043977657340 0.7183621618606552 0.0000623515684434	-0.614169
N	0.4007414983335486 0.2500026432828133 0.4946508478003692	-0.187127
N	0.1017155996888126 0.2485902263135409 0.5037895512069372	-0.185968
N	0.2500921527559186 0.4009539640405719 0.4942572017937896	-0.185799
N	0.2484153472975234 0.1015456737119015 0.5044804776015155	-0.184581
N	0.9007807754846906 0.2500555947204560 0.5051453908228144	-0.187218
N	0.6016699293031460 0.2485182362883127 0.4958788141921078	-0.185673
N	0.7500516649961675 0.4007924048243310 0.5051151872011398	-0.187426
N	0.7485010509652672 0.1016651115575654 0.4958734616472991	-0.185294
N	0.4009081518873682 0.7499166810215487 0.5060166134496434	-0.184768
N	0.1016473647366327 0.7483516183319963 0.4957149987634436	-0.185686
N	0.2499287525373529 0.9008773081586912 0.5059941725060808	-0.185539
N	0.2483782181298848 0.6016331646275538 0.4956809953601829	-0.185806
N	0.9009811197654616 0.7500917863581321 0.4942686198993753	-0.185708
N	0.6015664416467358 0.7484278953380720 0.5045060288375849	-0.184427
N	0.7500250420460519 0.9007239376623072 0.4946365077346594	-0.187335
N	0.7486109755730487 0.6017398976847269 0.5037402541144114	-0.185998
	  	
