#======================================================================

# CRYSTAL DATA

#----------------------------------------------------------------------

data_VESTA_phase_1


_pd_phase_name                         ALFFIVE_2_Fe_i
_cell_length_a                         14.06078
_cell_length_b                         14.06078
_cell_length_c                         7.89431
_cell_angle_alpha                      90.00005
_cell_angle_beta                       89.99997
_cell_angle_gamma                      89.75167
_symmetry_space_group_name_H-M         P 1
_symmetry_Int_Tables_number            1

loop_
_symmetry_equiv_pos_as_xyz
   x, y, z

loop_
   _atom_site_label
   _atom_site_fract_x
   _atom_site_fract_y
   _atom_site_fract_z
   _atom_site_charge
C	0.0002197291746982 0.3054454637030737 0.3470444489783900	-0.161133
C	-0.0000271146320755 0.2068397489158308 0.3529944638440746	0.094143
C	0.5002261101219451 0.8054639673217550 0.8471133349754907	-0.161261
C	0.4999796627679037 0.7068915078022303 0.8530430414337423	0.093944
C	-0.0001648603516724 0.6957318409316802 0.3469433165584892	-0.165725
C	-0.0006318864121337 0.7943537725174221 0.3531395893653809	0.104681
C	0.4998296785290700 0.1957648970991935 0.8470079232971698	-0.165424
C	0.4993630426539895 0.2943655039155098 0.8531620389419434	0.104083
C	0.6957316965402730 -0.0001645038542207 0.3469431378955186	-0.165751
C	0.7943537359971951 -0.0006313864682182 0.3531392866928825	0.104708
C	0.1957639748119371 0.4998300934944217 0.8470091390207865	-0.165392
C	0.2943639151555568 0.4993630526991507 0.8531618598730681	0.104022
C	0.3054449089543155 0.0002201703229687 0.3470445989747609	-0.161195
C	0.2068392216938796 -0.0000265616375467 0.3529951377992143	0.094119
C	0.8054611289581751 0.5002259717231011 0.8471145417104845	-0.161234
C	0.7068887926045044 0.4999792254693908 0.8530450788283901	0.093723
C	0.0002198238898550 0.3054454920130547 0.6529538733179876	-0.161160
C	-0.0000270558041686 0.2068399540151624 0.6470042645822121	0.094108
C	0.5002257267074038 0.8054637827074910 0.1528859008087420	-0.161332
C	0.4999793333620837 0.7068914838242054 0.1469565026222783	0.093960
C	-0.0001655935088687 0.6957326231403841 0.6530564264028563	-0.165651
C	-0.0006319012460762 0.7943534691864411 0.6468595197827157	0.104664
C	0.4998295826859646 0.1957644116745044 0.1529907722591693	-0.165378
C	0.4993632852287401 0.2943649315706300 0.1468387305728758	0.104029
C	0.3054451608150301 0.0002203651764699 0.6529538325317329	-0.161146
C	0.2068395885386989 -0.0000264704669168 0.6470045711122346	0.094130
C	0.8054623207937863 0.5002261587523947 0.1528870645608991	-0.161237
C	0.7068899403387220 0.4999792981192103 0.1469587764104585	0.093841
C	0.6957325871233685 -0.0001651106179110 0.6530559851696501	-0.165710
C	0.7943535510627953 -0.0006313743504135 0.6468590135146263	0.104633
C	0.1957637208348439 0.4998299643523765 0.1529911829597921	-0.165358
C	0.2943637532503210 0.4993632810330784 0.1468384341537905	0.103990
C	0.0007428442244271 0.4572388888057795 0.4999989788827092	-0.092026
C	0.0005085792399458 0.3569046447904635 0.4999993011051459	0.153509
C	0.5007382703217096 0.9572764830958125 0.0000014795298459	-0.092048
C	0.5005127935094543 0.8569556598598213 0.0000000078130059	0.153249
C	0.0007706163449433 0.5439755004397145 0.4999987403332843	-0.103820
C	0.0003680307811706 0.6443318278469066 0.4999989959064953	0.160692
C	0.5007684194896979 0.0439940222064582 -0.0000004045416091	-0.103681
C	0.5003637772806775 0.1443356985181189 -0.0000004428217375	0.160547
C	0.5439755908792430 0.0007713503018728 0.4999985396733091	-0.104107
C	0.6443317396216787 0.0003684696935185 0.4999988221258072	0.160779
C	0.0439928450559955 0.5007700281652038 -0.0000002517591878	-0.103779
C	0.1443338318384954 0.5003648073782816 0.0000002002489657	0.160539
C	0.4572382852068537 0.0007436094911740 0.4999987420414419	-0.091844
C	0.3569040977485834 0.0005091020732691 0.4999993063189263	0.153584
C	0.9572742224506724 0.5007403410095969 -0.0000002916626593	-0.092000
C	0.8569537216160614 0.5005137733093354 0.0000003832006166	0.153272
H	-0.0001385233983109 0.3424469236200614 0.2258112055423103	0.117242
H	-0.0015760492068535 0.1654347160607419 0.2364916132528580	0.100399
H	0.4998632052231474 0.8424255219682498 0.7258816341930406	0.117283
H	0.4984263590977405 0.6655374113371868 0.7364911952277020	0.100370
H	-0.0004896004630263 0.6585674500626154 0.2258630295784420	0.118478
H	-0.0023689882628893 0.8364239434253732 0.2374933887610817	0.093675
H	0.4995053242158334 0.1586300903336131 0.7259231432541391	0.118128
H	0.4976172061328978 0.3364162469835563 0.7375290941416214	0.093692
H	0.6585670005177412 -0.0004893110055482 0.2258632795545474	0.118477
H	0.8364240897311107 -0.0023686475595252 0.2374930123230437	0.093677
H	0.1586281653894226 0.4995053647713528 0.7259245788913535	0.118129
H	0.3364148066180796 0.4976154992231213 0.7375284206356009	0.093721
H	0.3424464823725891 -0.0001381825228025 0.2258113861134664	0.117251
H	0.1654337585146480 -0.0015757944723242 0.2364923521842120	0.100438
H	0.8424231402976834 0.4998628482027916 0.7258833175901933	0.117274
H	0.6655340330781313 0.4984240941067386 0.7364945516567082	0.100419
H	-0.0001381067353219 0.3424471487808507 0.7741874277833634	0.117234
H	-0.0015761877626981 0.1654346401461246 0.7635068584523182	0.100414
H	0.4998626639253574 0.8424258716843721 0.2741167058303637	0.117298
H	0.4984262484062458 0.6655378299132215 0.2635083840411840	0.100370
H	-0.0004896841668206 0.6585669080905397 0.7741350461095076	0.118449
H	-0.0023689521044743 0.8364236636888250 0.7625058798164692	0.093680
H	0.4995051824675405 0.1586287994545559 0.2740754869086846	0.118132
H	0.4976175757319973 0.3364149316586679 0.2624721018960769	0.093686
H	0.3424472215467801 -0.0001373979797492 0.7741870594971870	0.117237
H	0.1654340073269659 -0.0015756673716085 0.7635074722775987	0.100422
H	0.8424249478970703 0.4998630542598109 0.2741175481424080	0.117245
H	0.6655358410818498 0.4984239203817479 0.2635095825326639	0.100441
H	0.6585667578141123 -0.0004890988967078 0.7741345368256100	0.118481
H	0.8364241242190097 -0.0023684252017468 0.7625048987928235	0.093699
H	0.1586279063090670 0.4995052025686537 0.2740758005084407	0.118104
H	0.3364140951346371 0.4976155699919070 0.2624719092771903	0.093707
Fe	0.0007164979832353 0.0007162739505033 0.5000002972330071	0.828666
Fe	0.5007487529898823 0.5007503306225484 -0.0000016495906256	0.829342
Al	-0.0012863640739172 -0.0012872342098179 -0.0000014399625366	1.658634
Al	0.4988001568104780 0.4987903194503712 0.4999882244023471	1.660196
N	0.0000216811662491 0.1575867655479076 0.4999993931180855	-0.245409
N	0.5000414721278404 0.6575928657303377 -0.0000003083624004	-0.245328
N	-0.0003851079830817 0.8436152788549052 0.4999997478902135	-0.244063
N	0.4996236934802878 0.3436585211687650 0.0000010825491580	-0.243472
N	0.8436151021965871 -0.0003845800543875 0.4999990940001698	-0.244053
N	0.3436572811726579 0.4996241200173787 0.0000001631409505	-0.243428
N	0.1575865451066207 0.0000222593660448 0.5000000898474954	-0.245449
N	0.6575909688775804 0.5000416803613618 0.0000022567390523	-0.245113
F	-0.0000236213268485 -0.0000186825636037 0.7609873493489792	-0.557104
F	0.4999938973249943 0.4999859111297472 0.2604322240836460	-0.556863
F	-0.0000184087323058 -0.0000207903034017 0.2390178694726715	-0.557067
F	0.4999839862334840 0.4999870363531920 0.7395770296805027	-0.556902
F	0.6165703809317969 0.4655849846194256 0.5000025305484869	-0.606719
F	0.4656422950652266 0.6165725597808571 0.5000091661436924	-0.606722
F	0.4126077492734771 0.4126284711333120 0.5000131934275674	-0.624642
F	0.9123691003089712 0.9123657778273629 0.0000048347436498	-0.624484
F	0.9653355976390621 0.1166210905047954 -0.0000083497809587	-0.606424
F	0.1166210632288025 0.9653326469365056 -0.0000025206115083	-0.606406
	  	
