#======================================================================

# CRYSTAL DATA

#----------------------------------------------------------------------

data_VESTA_phase_1


_pd_phase_name                         ALFFIVE_7_Co
_cell_length_a                         18.71724
_cell_length_b                         18.71718
_cell_length_c                         7.98884
_cell_angle_alpha                      89.95275
_cell_angle_beta                       90.04614
_cell_angle_gamma                      90.00793
_symmetry_space_group_name_H-M         P 1
_symmetry_Int_Tables_number            1

loop_
_symmetry_equiv_pos_as_xyz
   x, y, z

loop_
   _atom_site_label
   _atom_site_fract_x
   _atom_site_fract_y
   _atom_site_fract_z
   _atom_site_charge
C	0.6686833619774367 0.8682333584568528 0.7001134567994147	0.085715
C	0.6165695289662024 0.9209763871250211 0.7037975111699991	-0.175768
C	0.5813060518607954 0.8858401745627905 0.4274099572738337	-0.172010
C	0.6341595324101341 0.8341177294209859 0.4319074719042569	0.090018
C	0.8315267761529056 0.6317969353083104 0.6996477295063276	0.093500
C	0.8835160507712333 0.5789344081807152 0.7041132622255221	-0.175643
C	0.9186406449318907 0.6141740046732880 0.4277332149775475	-0.172064
C	0.8659106549231542 0.6660567034255650 0.4314764110853040	0.082783
C	0.6316107985376473 0.6685326124805369 0.6996732320725563	0.089125
C	0.5788449721649264 0.6164523059923754 0.7038271715130208	-0.174989
C	0.6141103559983023 0.5812065670578942 0.4277589049089205	-0.171323
C	0.6659346079471123 0.6339655180712399 0.4319621214208760	0.085368
C	0.8682469262728748 0.8311010368962729 0.6999078039442140	0.089470
C	0.9209463593234889 0.8832981992321814 0.7040517220768842	-0.175873
C	0.8856610498538552 0.9185884719529941 0.4275584572697651	-0.170913
C	0.8337226209213778 0.8658957170758511 0.4318241904763521	0.086952
C	0.3311024219043922 0.3682474992177008 0.3000956259350619	0.089407
C	0.3832995110314214 0.4209467264333088 0.2959488867634363	-0.175985
C	0.4185866037724918 0.3856597629717085 0.5724428475522644	-0.170979
C	0.3658948497464555 0.3337213342281022 0.5681804645374483	0.086941
C	0.1685344506911099 0.1316117264069942 0.3003272141007656	0.089193
C	0.1164533928444515 0.0788461280410472 0.2961745664431270	-0.175024
C	0.0812069915714723 0.1141096841018741 0.5722431803307756	-0.171312
C	0.1339659931212095 0.1659339311214709 0.5680381179458214	0.085455
C	0.3682333700236575 0.1686834082323502 0.2998852414310628	0.085641
C	0.4209768642462445 0.1165697729953092 0.2962000810634856	-0.175755
C	0.3858402162916387 0.0813058090672145 0.5725920154404146	-0.171912
C	0.3341177575829310 0.1341589453105853 0.5680932127866272	0.090029
C	0.1317975558709635 0.3315264899467312 0.3003527318550323	0.093423
C	0.0789352356111453 0.3835158332258163 0.2958879706695415	-0.175649
C	0.1141739631373145 0.4186393243260137 0.5722653947577698	-0.172060
C	0.1660569040218983 0.3659094627104709 0.5685220801823494	0.082815
C	0.4314782156686792 0.0714397877441470 0.4346982627744538	0.136713
C	0.4869759961067038 0.0169865110401422 0.4315183173565656	-0.123784
C	0.0684594494914215 0.4285853970463379 0.4343342064161011	0.137665
C	0.0128918282632920 0.4830298632483570 0.4314380994629928	-0.123548
C	0.4284462515731082 0.4313915702552046 0.4344833489538744	0.137819
C	0.4829160562558314 0.4869367115359528 0.4314978404455287	-0.126368
C	0.0713255436807646 0.0684070149176230 0.4344990234640168	0.135762
C	0.0168769471141937 0.0128558952650292 0.4314643140819003	-0.121443
C	0.5684067556867416 0.5713244125913030 0.5655019398385885	0.135791
C	0.5128547360125479 0.5168767014777099 0.5685375707808240	-0.121416
C	0.9313912856131450 0.9284464210273689 0.5655175415312124	0.137771
C	0.9869358706205883 0.9829163005175460 0.5685028330514392	-0.126360
C	0.5714402879645083 0.9314776367407457 0.5653029083145062	0.136802
C	0.5169871486007193 0.9869753161352046 0.5684823655231167	-0.123822
C	0.9285862183057624 0.5684594088540372 0.5656659122227183	0.137650
C	0.9830300221700190 0.5128916840015058 0.5685626237612323	-0.123496
H	0.7033491985347951 0.8584605128910947 0.8076462958468799	0.112367
H	0.6117745471193091 0.9542092128118023 0.8152204515966206	0.118136
H	0.5471181765151706 0.8893057882861091 0.3174046463746216	0.116854
H	0.6439109948930695 0.7985042832160770 0.3268361379300245	0.104841
H	0.7962041431394398 0.6419311729591307 0.8051670375529394	0.104631
H	0.8884591218751076 0.5456142992233851 0.8153727143137125	0.116369
H	0.9527064996088968 0.6109050507846067 0.3175033646546273	0.118681
H	0.8566301712686414 0.7011895304508763 0.3246200708911355	0.111987
H	0.6419953505294757 0.7028270084694098 0.8068627772164151	0.109917
H	0.5457741280623989 0.6115574090989984 0.8154325939741219	0.117585
H	0.6107251440859651 0.5473096127183156 0.3173328410533346	0.118039
H	0.7005895920247195 0.6439183149785157 0.3252513534212482	0.110466
H	0.8588263394127555 0.7952561286525879 0.8054086642336111	0.108129
H	0.9543918162059972 0.8882007148490212 0.8151754339494962	0.117100
H	0.8890791132020713 0.9528725727759664 0.3176534150777670	0.117402
H	0.7975224626714521 0.8568811430172810 0.3269132845138860	0.107314
H	0.2952581993490982 0.3588274981123308 0.1945941141119642	0.108207
H	0.3882026009543288 0.4543937310138821 0.1848243109827825	0.117200
H	0.4528707179110921 0.3890771235180792 0.6823479775673498	0.117422
H	0.3568798590569770 0.2975198798744672 0.6730925025093965	0.107317
H	0.2028295837700901 0.1419963973169497 0.1931346617151072	0.109893
H	0.1115592237308035 0.0457763885892832 0.1845684262901049	0.117622
H	0.0473089932737602 0.1107239608491263 0.6826689705882845	0.118069
H	0.1439178355655937 0.2005889528464273 0.6747468139855661	0.110415
H	0.3584616337860991 0.2033505111264224 0.1923515541927710	0.112423
H	0.4542095181830040 0.1117750453399760 0.1847770785886391	0.118149
H	0.3893056318883242 0.0471177229719620 0.6825985626857176	0.116846
H	0.2985030179242189 0.1439100406056888 0.6731656784989398	0.104813
H	0.1419316743979571 0.2962042263641248 0.1948332930806431	0.104676
H	0.0456149473414586 0.3884593229459674 0.1846294025594652	0.116389
H	0.1109047432337293 0.4527051980608065 0.6824951539231792	0.118636
H	0.2011893501176225 0.3566288750740264 0.6753781294131025	0.111975
H	0.5065134996519816 0.0018375862919090 0.3074882814812830	0.102864
H	0.9933109189560894 0.4984436067720989 0.3075207903061933	0.102098
H	0.4982599937452665 0.5065296734376964 0.3075754090387030	0.103386
H	0.0016478553623451 0.9933254081699510 0.3074399624583451	0.101839
H	0.4933228557292862 0.5016458615449518 0.6925607371865116	0.101837
H	0.0065274320865080 0.9982584778895591 0.6924253463761708	0.103399
H	0.5018378284443454 0.0065132504452298 0.6925109864549284	0.102883
H	0.9984437631862905 0.4933106613551844 0.6924797655390857	0.102089
Co	0.2499838440794120 0.2499727994863723 0.4339890531646788	0.585464
Co	0.7499746004230637 0.7499857566158854 0.5660080508828814	0.585372
Al	0.2503817104811656 0.2504784119540754 0.9347631927299299	1.664727
Al	0.7504822969821957 0.7503821343563167 0.0652316886009792	1.664570
F	0.2504542026055601 0.2492737250441442 0.1628785233910134	-0.591430
F	0.2491778226732120 0.2503399743365659 0.7064866670453545	-0.592786
F	0.7492716836228537 0.7504533455140631 0.8371107270247985	-0.591379
F	0.7503506047638179 0.7491846505288011 0.2935055673391158	-0.592771
F	0.1837373662089721 0.1850706970616806 0.9351021624472080	-0.640376
F	0.2280160176801442 0.3410794156899052 0.9371285766199768	-0.641290
F	0.3406132691882641 0.2266907510111758 0.9320961247270474	-0.641088
F	0.7266665732230830 0.8406074740893185 0.0678971527030856	-0.641062
F	0.8410907919439091 0.7280377655745954 0.0628580034972761	-0.641205
F	0.6850758231688485 0.6837301051564540 0.0649057167390827	-0.640377
N	0.3252588857440057 0.1773923799172914 0.4340251705655131	-0.182318
N	0.1748334069544158 0.3227266664475770 0.4343813706027607	-0.182533
N	0.3225437684502827 0.3251005698910127 0.4341379771441687	-0.180357
N	0.1772271601457058 0.1746803061574324 0.4341478771880542	-0.185333
N	0.6746807223904786 0.6772267119395113 0.5658511499852754	-0.185198
N	0.8251013925980754 0.8225445033420729 0.5658650770754050	-0.180311
N	0.6773929497825534 0.8252595064212583 0.5659741260676077	-0.182310
N	0.8227273754843037 0.6748332931174488 0.5656172999252613	-0.182587
	  	
