#======================================================================

# CRYSTAL DATA

#----------------------------------------------------------------------

data_VESTA_phase_1


_pd_phase_name                         ALFFIVE_5_Zn_i
_cell_length_a                         19.99382
_cell_length_b                         19.99383
_cell_length_c                         15.39514
_cell_angle_alpha                      90.00014
_cell_angle_beta                       90.00013
_cell_angle_gamma                      89.98650
_symmetry_space_group_name_H-M         P 1
_symmetry_Int_Tables_number            1

loop_
_symmetry_equiv_pos_as_xyz
   x, y, z

loop_
   _atom_site_label
   _atom_site_fract_x
   _atom_site_fract_y
   _atom_site_fract_z
   _atom_site_charge
F	0.2847192235602191 0.1698688309344753 0.3514826690756556	-0.640620
F	0.1644962068348066 0.2626439151994550 0.3508831326784727	-0.654808
F	0.3049652401472656 0.3185554537927892 0.3511929358908292	-0.650002
F	0.6814373498981194 0.6950408873357455 0.1488030057907050	-0.650025
F	0.7373676775909912 0.8355119022944926 0.1491068180329095	-0.654804
F	0.8301200817546234 0.7152687271661889 0.1485142022747864	-0.640638
F	0.6644967524343455 0.7626526854094356 0.6491132680803450	-0.654857
F	0.7846968100861021 0.6698573175380500 0.6485115788425811	-0.640661
F	0.8049774347313378 0.8185548515450976 0.6488154619473228	-0.650015
F	0.1814449484678262 0.1950269438306848 0.8511820812655192	-0.650039
F	0.3301427393570466 0.2153057505645571 0.8514862616871003	-0.640666
F	0.2373423063954190 0.3355019688313975 0.8508856686575564	-0.654861
F	0.2498329024548752 0.2498965302620776 0.4690781442913534	-0.584039
F	0.2501108601031371 0.2495044575002792 0.2331650335977993	-0.584569
F	0.7501030924617025 0.7501715958446867 0.0309279865598693	-0.584069
F	0.7504984636470952 0.7498947398801078 0.2668369871857537	-0.584574
F	0.7498401089857284 0.7498947141735917 0.5309285372168357	-0.584138
F	0.7501072180786522 0.7494923485225187 0.7668384944729811	-0.584543
F	0.2501006711473343 0.2501609940256155 0.9690688201128438	-0.584125
F	0.2505028117120511 0.2498837271164942 0.7331566313349962	-0.584548
N	0.3578062179248527 0.2475344142094397 0.6005471114931540	-0.229495
N	0.1423189717988003 0.2523369138909062 0.6016862032995881	-0.226435
N	0.2524655667559983 0.3576927220970472 0.6010064256743071	-0.226363
N	0.2476302483550916 0.1422039220398514 0.6019168313265011	-0.229208
N	0.6423070605216650 0.7475338871168301 0.8989947760327193	-0.226351
N	0.8577959740683102 0.7523694456192459 0.8980829045465070	-0.229175
N	0.7476638101697248 0.8576810221520104 0.8983128207552767	-0.226402
N	0.7524665435988255 0.6421938499833765 0.8994544688913212	-0.229405
N	0.6423197952267282 0.7523370925081146 0.3983138835380121	-0.226442
N	0.8578064464539016 0.7475344290893182 0.3994522095432086	-0.229419
N	0.7476312585215684 0.6422031316101419 0.3980832487313501	-0.229283
N	0.7524661490726648 0.8576926337923629 0.3989947668647763	-0.226398
N	0.3577958347576663 0.2523692099413153 0.1019173068387601	-0.229234
N	0.1423073753859920 0.2475333399566984 0.1010046211953863	-0.226391
N	0.2524662759232759 0.1421939239839891 0.1005463554495159	-0.229455
N	0.2476630752342218 0.3576806266633409 0.1016859522670954	-0.226468
C	0.3906600986257313 0.2177146819498651 0.6662200411822681	0.099145
C	0.4600921924926020 0.2160012226693575 0.6700785719526617	-0.181582
C	0.4978306443314142 0.2470430358850520 0.6046221727683839	0.103787
C	0.4625051756978312 0.2780099620953485 0.5366263912219922	-0.185949
C	0.3929866448672061 0.2769555080942203 0.5365242436484656	0.099054
C	0.5715351288032237 0.2478281033544235 0.6080334912184089	0.055885
C	0.6076049689325524 0.1918668418255918 0.6374810972795850	-0.133006
C	0.6771182636728617 0.1926341570151146 0.6400946571091594	-0.122683
C	0.7131694632735005 0.2498260310605161 0.6151632929419816	0.066176
C	0.6770904531404002 0.3061385668635052 0.5871708787928230	-0.116778
C	0.6076247359489699 0.3048902745540427 0.5827164140743707	-0.128464
C	0.1093611246506854 0.2821637141641179 0.6672288202293023	0.103112
C	0.0399739567306680 0.2839000142625973 0.6710967840610946	-0.181021
C	0.0022489455915760 0.2527853565701456 0.6055109966688961	0.105422
C	0.0375858205476284 0.2219483481176955 0.5375876786630486	-0.181513
C	0.1070897497487098 0.2231989858215805 0.5376701658176016	0.107140
C	0.9285054031746307 0.2521738544798082 0.6084567521207365	0.054558
C	0.8923954051181957 0.3081849122349911 0.6376377412516313	-0.131837
C	0.8228772063406604 0.3074194965040231 0.6400724161591876	-0.122861
C	0.7868560048824936 0.2502239750271598 0.6151479798812460	0.066587
C	0.8229620212118766 0.1939273755055418 0.5871434971535673	-0.117310
C	0.8924259777939363 0.1951633666654757 0.5828764481255719	-0.126860
C	0.2821996121157901 0.3906505321735778 0.6665391641255429	0.108215
C	0.2840128841514609 0.4600584846022842 0.6703782492630834	-0.178847
C	0.2529914867795686 0.4977720433815696 0.6048555329314527	0.105657
C	0.2220371646525127 0.4624189325236461 0.5368946507564868	-0.184194
C	0.2231837777368285 0.3929421499273550 0.5370553092831691	0.104400
C	0.2522006557534630 0.5715045677664754 0.6081360795781258	0.055082
C	0.3081612417927621 0.6075836447893769 0.6375241625832400	-0.132892
C	0.3073755688439556 0.6770926133602482 0.6400863616978204	-0.122043
C	0.2501869103774161 0.7131460887859817 0.6151433179921759	0.066809
C	0.1938877895039047 0.6770694665208142 0.5871508722910527	-0.116681
C	0.1951472346818473 0.6076073805352462 0.5827584699103507	-0.127850
C	0.2177334119999714 0.1093235591044938 0.6675888811067056	0.098613
C	0.2160628993347072 0.0398924754589107 0.6712169087430414	-0.183229
C	0.2471654501854260 0.0021889945650076 0.6055973881144489	0.103025
C	0.2780247105045434 0.0375412786602548 0.5377121698009254	-0.183126
C	0.2768510954550084 0.1070701863172874 0.5377482195175359	0.097168
C	0.2478000498929538 0.9284732340396989 0.6084878749399463	0.055144
C	0.1917848505707506 0.8923832883842742 0.6376566741803930	-0.131931
C	0.1925660764460495 0.8228618614818861 0.6400610622246405	-0.123143
C	0.2497698590803337 0.7868314167483291 0.6151315841772570	0.065810
C	0.3060788548601551 0.8229238708855435 0.5871403452122796	-0.116938
C	0.3048181984976550 0.8923931000734945 0.5828894364916711	-0.128016
C	0.6093491677220967 0.7178000919089237 0.8334614132731277	0.108165
C	0.5399410917562146 0.7159872941584409 0.8296218101011030	-0.178838
C	0.5022275625372266 0.7470086005008622 0.8951445085950779	0.105607
C	0.5375805164420125 0.7779629681639063 0.9631055765908273	-0.184062
C	0.6070572942375050 0.7768161010513315 0.9629453966054394	0.104358
C	0.4284951007548079 0.7477993922220502 0.8918639262318584	0.055074
C	0.3924162428000475 0.6918388101006623 0.8624758273452745	-0.132883
C	0.3229072162558406 0.6926244734806394 0.8599136340077765	-0.122091
C	0.2868538464998137 0.7498131311647362 0.8848566685172332	0.066904
C	0.3229303834542039 0.8061122398027014 0.9128491195852810	-0.116762
C	0.3923925184049546 0.8048527703675564 0.9172415469169645	-0.127847
C	0.8906764174894153 0.7822662551004926 0.8324106374643030	0.098567
C	0.9601076275814765 0.7839370631079868 0.8287826272255372	-0.183157
C	0.9978110626030214 0.7528346697520643 0.8944024055896578	0.103003
C	0.9624588346898999 0.7219754986491470 0.9622877520132035	-0.183127
C	0.8929298644658745 0.7231487935933431 0.9622518625535071	0.097207
C	0.0715268595150400 0.7522000653852235 0.8915120401420527	0.055157
C	0.1076166764280136 0.8082152218652058 0.8623432820185029	-0.131937
C	0.1771381609659761 0.8074339831765242 0.8599389195370812	-0.123137
C	0.2131685029627506 0.7502302080452252 0.8848683776676972	0.065747
C	0.1770761217324563 0.6939212390490191 0.9128596227889825	-0.116929
C	0.1076068248141787 0.6951818985454469 0.9171105462865222	-0.128014
C	0.7178368063783152 0.8906391927856313 0.8327702101070482	0.103110
C	0.7161001164601470 0.9600263008037684 0.8289025300825581	-0.181068
C	0.7472146065489104 0.9977513062549946 0.8944886700615828	0.105430
C	0.7780516821464415 0.9624143241280100 0.9624119059955304	-0.181505
C	0.7768015963317708 0.8929104857587360 0.9623290923013055	0.107162
C	0.7478261143197864 0.0714947790374568 0.8915431184653241	0.054578
C	0.6918150520514189 0.1076047210734351 0.8623621437034796	-0.131849
C	0.6925804945640910 0.1771228111458195 0.8599275489780966	-0.122851
C	0.7497760804564378 0.2131440367866472 0.8848520004190626	0.066522
C	0.8060726654095556 0.1770379155336011 0.9128565006190269	-0.117270
C	0.8048366912228145 0.1075740480157724 0.9171234885768371	-0.126904
C	0.7822855409546958 0.6093399194487712 0.8337806977024624	0.099170
C	0.7839985976408248 0.5399078828850240 0.8299216299854892	-0.181686
C	0.7529569962648774 0.5021692341854803 0.8953781244486824	0.103990
C	0.7219900704024571 0.5374944838125587 0.9633740978814984	-0.185959
C	0.7230441371392121 0.6070131338443647 0.9634766323874245	0.098952
C	0.7521719432692893 0.4284648152449814 0.8919665969216103	0.055846
C	0.8081332743367095 0.3923950985120810 0.8625188984048709	-0.133004
C	0.8073659604093876 0.3228818899633192 0.8599053344398705	-0.122687
C	0.7501740491842553 0.2868305800077600 0.8848367296673442	0.066202
C	0.6938614405272587 0.3229096474203504 0.9128292359089387	-0.116785
C	0.6951096998222038 0.3923752513127863 0.9172837142809641	-0.128457
C	0.6093612171616091 0.7821636636507028 0.3327712146684155	0.103091
C	0.5399741076594152 0.7838999180531635 0.3289031727443286	-0.181009
C	0.5022491577924733 0.7527854492698119 0.3944891069600261	0.105432
C	0.5375865638735533 0.7219487507615949 0.4624123204298184	-0.181523
C	0.6070906255346430 0.7231994904241530 0.4623295635863053	0.107177
C	0.4285056263012502 0.7521738075085963 0.3915434285931628	0.054654
C	0.3923955107434046 0.8081847591971620 0.3623625004311766	-0.131856
C	0.3228774144282063 0.8074193727710495 0.3599277037687149	-0.122959
C	0.2868561882815526 0.7502240286665257 0.3848520026328198	0.066646
C	0.3229622723008427 0.6939274117911985 0.4128565415592911	-0.117312
C	0.3924261647752088 0.6951633855132323 0.4171237390009368	-0.126927
C	0.8906602603877970 0.7177148016564243 0.3337790005612242	0.099082
C	0.9600922946604796 0.7160013234957073 0.3299209820854824	-0.181566
C	0.9978308681954799 0.7470430012359296 0.3953778562377917	0.103837
C	0.9625054749422522 0.7780098196082715 0.4633737773795722	-0.185920
C	0.8929869672828145 0.7769556827484680 0.4634756409088694	0.099054
C	0.0715352820639601 0.7478280186950966 0.3919665615489677	0.055897
C	0.1076050144801870 0.6918666671984078 0.3625188345778268	-0.132980
C	0.1771182774602847 0.6926340638135609 0.3599052456691494	-0.122724
C	0.2131696057889741 0.7498260541844185 0.3848366349979221	0.066244
C	0.1770905247370282 0.8061386848343203 0.4128291605166772	-0.116828
C	0.1076248415132247 0.8048902602660506 0.4172836722680652	-0.128538
C	0.7177339294098597 0.6093233132335283 0.3324109133150686	0.098667
C	0.7160628757133533 0.5398929385704910 0.3287820283131024	-0.183211
C	0.7471655539773757 0.5021887768209926 0.3944021279089664	0.103018
C	0.7780246917773977 0.5375408462031677 0.4622872626700086	-0.183097
C	0.7768520808862751 0.6070693335459486 0.4622522282726722	0.097228
C	0.7478000260105392 0.4284732048880950 0.3915116124342644	0.055140
C	0.6917847852712307 0.3923832477803644 0.3623431131970334	-0.131926
C	0.6925659003848909 0.3228618758324832 0.3599389085306576	-0.123175
C	0.7497697729614097 0.2868314757491455 0.3848684025729923	0.065847
C	0.8060788847938263 0.3229239782776391 0.4128597287834286	-0.116955
C	0.8048182514697042 0.3923932377728902 0.4171104921302290	-0.127987
C	0.7821998198794665 0.8906508294177856 0.3334620377728104	0.108211
C	0.7840128698694337 0.9600587701733494 0.3296226132451914	-0.178868
C	0.7529915707861616 0.9977724410924759 0.3951452747869191	0.105693
C	0.7220371865802403 0.9624193604420213 0.4631060405886791	-0.184137
C	0.7231841111840658 0.8929426207557487 0.4629454710404122	0.104377
C	0.7522007319843528 0.0715048379992975 0.3918642952127862	0.055021
C	0.8081612102700341 0.1075836626682121 0.3624759341921089	-0.132873
C	0.8073755060506217 0.1770926353909915 0.3599136090241962	-0.122030
C	0.7501868583283463 0.2131461408757434 0.3848566100609251	0.066806
C	0.6938877838182085 0.1770695787091375 0.4128490360816153	-0.116648
C	0.6951473161519721 0.1076075721285189 0.4172416309085979	-0.127833
C	0.3906765132759134 0.2822663822812993 0.1675896455635191	0.098536
C	0.4601076780287590 0.2839370933178539 0.1712177412452397	-0.183153
C	0.4978111427228553 0.2528345425113273 0.1055980856568515	0.103031
C	0.4624587408409525 0.2219752052037404 0.0377125539470673	-0.183138
C	0.3929298376144569 0.2231484647371609 0.0377486414185871	0.097227
C	0.5715269397972180 0.2521999051947547 0.1084882177105220	0.055174
C	0.6076167656879873 0.3082152543334992 0.1376568724028741	-0.131931
C	0.6771382184575689 0.3074341061426804 0.1400610653951743	-0.123172
C	0.7131685568796849 0.2502302839318485 0.1151315714669409	0.065806
C	0.6770761298605938 0.1939211627203523 0.0871403124012280	-0.116941
C	0.6076068335251678 0.1951817694759867 0.0828895369596054	-0.128002
C	0.1093495031510613 0.2177999613389938 0.1665377312966783	0.108221
C	0.0399414510307148 0.2159873431784495 0.1703776210286248	-0.178918
C	0.0022276568572018 0.2470085480459248 0.1048549245323316	0.105603
C	0.0375805327490682 0.2779628914627080 0.0368939914247303	-0.184047
C	0.1070574313960120 0.2768158078720985 0.0370540959730187	0.104340
C	0.9284951445020558 0.2477993302215989 0.1081358616661210	0.055085
C	0.8924163884270574 0.1918388645482843 0.1375240986383753	-0.132945
C	0.8229073609656975 0.1926245797309060 0.1400863601428129	-0.121994
C	0.7868539384821427 0.2498132102231371 0.1151433305356382	0.066880
C	0.8229304377516110 0.3061122265507035 0.0871509569132456	-0.116710
C	0.8923925244478458 0.3048527146416239 0.0827584235738902	-0.127873
C	0.2822854497002529 0.1093400761062902 0.1662199636245446	0.099102
C	0.2839985833114378 0.0399079953817762 0.1700786921228913	-0.181587
C	0.2529569496947375 0.0021691572164905 0.1046219699210602	0.103897
C	0.2219901685734717 0.0374944631867915 0.0366258605382735	-0.185980
C	0.2230446175536584 0.1070129558730668 0.0365234242356902	0.099104
C	0.2521719712352967 0.9284647714184300 0.1080334361315346	0.055874
C	0.3081333680158801 0.8923950761742532 0.1374811870144724	-0.132984
C	0.3073659791938322 0.8228818880940542 0.1400947387674736	-0.122709
C	0.2501739556680176 0.7868304886907838 0.1151632797055070	0.066204
C	0.1938613339810726 0.8229096189891087 0.0871707716308979	-0.116824
C	0.1951096573575372 0.8923752210357840 0.0827162923340395	-0.128476
C	0.2178365229376309 0.3906386886308779 0.1672291916710062	0.103145
C	0.2161002940452270 0.4600260506809669 0.1710967980671926	-0.181030
C	0.2472147415227666 0.4977509432447955 0.1055110627416853	0.105455
C	0.2780522774375750 0.4624139331392150 0.0375876429622975	-0.181463
C	0.2768007532859629 0.3929095944974311 0.0376704718268499	0.107101
C	0.2478262782961718 0.5714944826025310 0.1084565739708295	0.054601
C	0.1918151670287994 0.6076045466587242 0.1376375615563774	-0.131887
C	0.1925806639191966 0.6771225733510347 0.1400722934637733	-0.122875
C	0.2497760037485750 0.7131438611602284 0.1151479571908841	0.066638
C	0.3060726614701619 0.6770377103076054 0.0871434502491741	-0.117314
C	0.3048366882979963 0.6075738993479541 0.0828763132091175	-0.126923
H	0.3601394493765871 0.1971850311600676 0.7186380650529965	0.106174
H	0.4842910620514992 0.1925127899553535 0.7257500302908299	0.113648
H	0.4889860212184104 0.3020426140961555 0.4831458556488674	0.111947
H	0.3637993313203642 0.2994125877532859 0.4839567818637380	0.102870
H	0.5805436623303039 0.1469319556081431 0.6570611845122348	0.099149
H	0.7041269527060173 0.1486592478154617 0.6629620981942400	0.100714
H	0.7039989472834942 0.3506271298573415 0.5658545484530452	0.100927
H	0.5806785626707718 0.3490452833876752 0.5602510764799136	0.102362
H	0.1405063944646976 0.3041836537494792 0.7179360691892757	0.098097
H	0.0154366402032995 0.3078032974786875 0.7261815498581352	0.110982
H	0.0112514023024719 0.1985183137634137 0.4835616290745279	0.112771
H	0.1361361160552439 0.2021431758339794 0.4843601497210459	0.102033
H	0.9193756185747629 0.3531762527402460 0.6570987543495561	0.098841
H	0.7958499080920277 0.3513788389329042 0.6629169197539704	0.101668
H	0.7960858181671042 0.1494111008604766 0.5658450012145610	0.101158
H	0.9193753794474704 0.1510083959631603 0.5604105245923731	0.102576
H	0.3029363765246428 0.3598251922366976 0.7183003797919777	0.100166
H	0.3074188715159901 0.4843969217971147 0.7259630405152764	0.112393
H	0.1981709000631744 0.4889096444472173 0.4833161104503477	0.111634
H	0.2007512007346277 0.3635578802977687 0.4848954915030089	0.098072
H	0.3531213045316663 0.5805506181550139 0.6570573331715083	0.098589
H	0.3513400281020074 0.7041041956842747 0.6629329917015599	0.101112
H	0.1493925226524414 0.7039826134781718 0.5658395739151736	0.100951
H	0.1509766317530825 0.5806912608422767 0.5603352060512384	0.102342
H	0.1959254428203621 0.1401836458666814 0.7189626445552616	0.103548
H	0.1920441183496073 0.0154116001738265 0.7262817141778285	0.111730
H	0.3015816576593955 0.0112899525625240 0.4836667625610674	0.112993
H	0.2978711929836050 0.1358984211464185 0.4839667892625094	0.107459
H	0.1468115686461483 0.9194089808341396 0.6571569092323778	0.099233
H	0.1486136611598691 0.7958412752465270 0.6629269478512930	0.101195
H	0.3506081970185977 0.7960466706871568 0.5658438976135493	0.100991
H	0.3489506257764806 0.9193642431959986 0.5603856904982035	0.102897
H	0.6401745355974561 0.6970636184853631 0.7817004762020678	0.100203
H	0.5156026693706648 0.6925814350955707 0.7740367539715458	0.112394
H	0.5110898323119522 0.8018290242624091 0.0166841480332900	0.111610
H	0.6364418236675295 0.7992486574633318 0.0151047114680253	0.098071
H	0.4194492875008508 0.6468788017146503 0.8429427111059151	0.098599
H	0.2958956027872744 0.6486600761526976 0.8370670133350371	0.101103
H	0.2960172250750149 0.8506074569090668 0.9341604163353134	0.100971
H	0.4193087231084761 0.8490232979320023 0.9396647951718474	0.102349
H	0.8598164777893849 0.8040743954847493 0.7810369508288063	0.103524
H	0.9845886326667194 0.8079559627197918 0.7737179748481131	0.111701
H	0.9887101276099114 0.6984187212041630 0.0163332399095887	0.112984
H	0.8641014580840269 0.7021288674141652 0.0160333165690852	0.107448
H	0.0805910741304465 0.8531884816206103 0.8428431336415104	0.099233
H	0.2041587885280860 0.8513863243850326 0.8370730991911235	0.101197
H	0.2039533949858162 0.6493919791391886 0.9341561117168179	0.101001
H	0.0806357816254660 0.6510494721372377 0.9396143135598631	0.102901
H	0.6958167343306316 0.8594939211839380 0.7820633351409780	0.098095
H	0.6921966168913429 0.9845636960516145 0.7738179345014722	0.110973
H	0.8014813625102071 0.9887484751822012 0.0164383131331692	0.112762
H	0.7978565831576282 0.8638639940505396 0.0156392373095100	0.102046
H	0.6468236661606923 0.0806244893570623 0.8429011703784705	0.098842
H	0.6486211418460438 0.2041502255536803 0.8370830759312206	0.101706
H	0.8505889357651056 0.2039142122178892 0.9341550745203286	0.101152
H	0.8489916914218314 0.0806246233821970 0.9395895125719934	0.102576
H	0.8028151365581877 0.6398605539380375 0.7813628805677215	0.106178
H	0.8074868591018082 0.5157091306681999 0.7742499078795555	0.113644
H	0.6979573497244065 0.5110137062348018 0.0168545898975394	0.111921
H	0.7005878405176407 0.6362005235265259 0.0160439663345072	0.102856
H	0.8530682018544924 0.4194564125958630 0.8429388382487025	0.099143
H	0.8513408433293838 0.2958731064549523 0.8370378508946896	0.100714
H	0.6493729005226357 0.2960010142998234 0.9341455586893139	0.100928
H	0.6509546888265478 0.4193214659855702 0.9397490734869002	0.102358
H	0.6405059566142821 0.8041833404170372 0.2820639136432982	0.098082
H	0.5154365204992185 0.8078029875072242 0.2738184050372297	0.110985
H	0.5112524125510661 0.6985185211940487 0.5164386533753561	0.112772
H	0.6361375199608247 0.7021434561211187 0.5156393946298570	0.102032
H	0.4193756357512301 0.8531760546187306 0.3429014650293252	0.098842
H	0.2958501399379223 0.8513786238243443 0.3370831692326975	0.101694
H	0.2960859362920768 0.6494113458025333 0.4341548463004573	0.101172
H	0.4193753581500087 0.6510082456616667 0.4395896309509106	0.102587
H	0.8601393919882999 0.6971846039309310 0.2813608448132106	0.106194
H	0.9842912501651895 0.6925127963783926 0.2742497418980852	0.113619
H	0.9889863319745047 0.8020424622412075 0.5168544307470910	0.111910
H	0.8637995022251150 0.7994117998971063 0.5160432725147072	0.102844
H	0.0805436730399809 0.6469317150275271 0.3429387732956279	0.099138
H	0.2041270683768781 0.6486591534874642 0.3370378050883466	0.100718
H	0.2039991354660971 0.8506272706360324 0.4341455857025128	0.100938
H	0.0806785926091546 0.8490453120949824 0.4397490282267242	0.102373
H	0.6959253038603709 0.6401838799999809 0.2810371134821944	0.103499
H	0.6920439122854215 0.5154114484658576 0.2737174601842203	0.111755
H	0.8015814833357674 0.5112895502223800 0.5163333321125478	0.112959
H	0.7978711610154980 0.6358985406801579 0.5160337643255389	0.107434
H	0.6468114174340617 0.4194089529008927 0.3428430141793827	0.099235
H	0.6486134669789287 0.2958411713008077 0.3370729531242107	0.101205
H	0.8506082340083595 0.2960466831114053 0.4341561825143992	0.100993
H	0.8489507717798859 0.4193643208056255 0.4396144575095550	0.102882
H	0.8029361175044925 0.8598259138222583 0.2817002900653892	0.100159
H	0.8074183849610832 0.9843969296000397 0.2740373485665206	0.112396
H	0.6981707636090410 0.9889101790366246 0.5166843602761247	0.111612
H	0.7007511300169588 0.8635582556779272 0.5151047070502890	0.098065
H	0.8531212986742844 0.0805506844794762 0.3429427355965531	0.098594
H	0.8513398739922760 0.2041042326194333 0.3370670649234223	0.101097
H	0.6493926118854970 0.2039827687096433 0.4341603576927501	0.100960
H	0.6509767841090475 0.0806914192757277 0.4396648220861348	0.102304
H	0.3598163711633372 0.3040748382326401 0.2189628041439690	0.103537
H	0.4845887677835747 0.3079562707060641 0.2262824875908555	0.111732
H	0.4887100917500380 0.1984187506025590 0.9836668337903975	0.112969
H	0.3641016633642091 0.2021293501500394 0.9839663741195634	0.107456
H	0.5805910272892266 0.3531885450668631 0.1571569201539578	0.099234
H	0.7041588677510268 0.3513865598999562 0.1629269917009862	0.101201
H	0.7039533839123278 0.1493918284980763 0.0658438120250868	0.100995
H	0.5806356893075527 0.1510492417191689 0.0603856527090582	0.102879
H	0.1401746840258292 0.1970639647569670 0.2182995106245117	0.100215
H	0.0156032293304620 0.1925818529569176 0.2259628260277065	0.112436
H	0.0110897624415348 0.3018293574631642 0.9833156427524382	0.111598
H	0.1364416253356887 0.2992491073626816 0.9848950027044590	0.098073
H	0.9194493433926837 0.1468787797747866 0.1570572902985020	0.098605
H	0.7958958033480472 0.1486602389141743 0.1629328942779761	0.101058
H	0.7960173159379615 0.3506074147105600 0.0658396415057795	0.100968
H	0.9193086608758844 0.3490232329391244 0.0603353002345912	0.102353
H	0.3028152944089800 0.1398608691498833 0.2186382107114796	0.106187
H	0.3074870559642814 0.0157091170748357 0.2257502243670924	0.113641
H	0.1979571843566930 0.0110136953848519 0.9831451765591076	0.111918
H	0.2005879672265794 0.1362001055780289 0.9839559902952675	0.102812
H	0.3530684375424465 0.9194564406397759 0.1570612967946949	0.099134
H	0.3513409279676536 0.7958730902930952 0.1629621981590158	0.100717
H	0.1493726781457156 0.7960010293522479 0.0658543553553950	0.100925
H	0.1509545590814368 0.9193215097162474 0.0602509981466010	0.102372
H	0.1958168463961958 0.3594938015625923 0.2179365705737031	0.098085
H	0.1921970038465887 0.4845634891895471 0.2261817457927472	0.110986
H	0.3014818418340146 0.4887479402601749 0.9835605823498074	0.112753
H	0.2978561803032773 0.3638625798316955 0.9843605944523787	0.102044
H	0.1468239007237076 0.5806243268956682 0.1570985964152894	0.098857
H	0.1486213561641821 0.7041498248579561 0.1629168548093146	0.101683
H	0.3505887540561464 0.7039140270858332 0.0658450863085100	0.101169
H	0.3489919214826501 0.5806246202886838 0.0604104302698667	0.102586
Zn	0.2502822993739274 0.2496790343001107 0.6007858500602107	0.740890
Zn	0.7503209699292117 0.7497177417635666 0.8992224191480603	0.740833
Zn	0.7502816446802333 0.7496760813714288 0.3992185192064640	0.740939
Zn	0.2503209381768906 0.2497174464741496 0.1007814891091548	0.740907
Al	0.2508689286530540 0.2503111723221538 0.3512295831877961	1.691371
Al	0.7496856099119042 0.7491339837179586 0.1487704907916166	1.691445
Al	0.7508709459903350 0.7503117859229427 0.6487738009963214	1.691560
Al	0.2496878647914496 0.2491302787481814 0.8512235577492580	1.691583
	  	
