#======================================================================

# CRYSTAL DATA

#----------------------------------------------------------------------

data_VESTA_phase_1


_pd_phase_name                         ALFFIVE_2_Co
_cell_length_a                         13.56142
_cell_length_b                         13.56143
_cell_length_c                         8.00131
_cell_angle_alpha                      90.05343
_cell_angle_beta                       89.94781
_cell_angle_gamma                      90.00818
_symmetry_space_group_name_H-M         P 1
_symmetry_Int_Tables_number            1

loop_
_symmetry_equiv_pos_as_xyz
   x, y, z

loop_
   _atom_site_label
   _atom_site_fract_x
   _atom_site_fract_y
   _atom_site_fract_z
   _atom_site_charge
C	0.5310317456877710 0.6950375420260031 0.1356762999551295	0.090333
C	0.5319498585636701 0.7971715965480242 0.1407020271143922	-0.165445
C	0.4684337009563468 0.3054971036682934 0.1359038831948228	0.085059
C	0.4679584719757053 0.2033177217232800 0.1404165222500519	-0.163249
C	0.3054763150857519 0.5312665560904488 0.1352370784151171	0.089638
C	0.2033298080279539 0.5319853373899550 0.1405100241581599	-0.164193
C	0.6949656278017606 0.4688972729996575 0.1354274369452482	0.082525
C	0.7971135575083964 0.4680810171670308 0.1399194890709904	-0.164219
C	0.4688969204966854 0.6949646915074301 0.8645710431267342	0.082593
C	0.4680804393387600 0.7971124590412855 0.8600802536337496	-0.164173
C	0.5312663026599667 0.3054748746861804 0.8647658132666173	0.089609
C	0.5319853804839961 0.2033284967742420 0.8594910143170414	-0.164207
C	0.6950362414122030 0.5310331970693136 0.8643249740209539	0.090420
C	0.7971709361788802 0.5319509748223301 0.8592999458668509	-0.165579
C	0.3054964507266416 0.4684338350674973 0.8640960404232316	0.085040
C	0.2033170307146854 0.4679581421607664 0.8595817438022361	-0.163157
C	0.5000246263794317 0.1494625887878128 -0.0001015913531530	0.163389
C	0.5000730363229257 0.0452117999172759 -0.0000698853197488	-0.096179
C	0.4999989704958644 0.8510217672663566 0.0004450712501457	0.165807
C	0.5000443944341555 0.9552624134673636 0.0003657497669363	-0.092622
C	0.8510216585340769 0.4999997838189365 -0.0004435046888392	0.165986
C	0.9552627381569521 0.5000442940790455 -0.0003645566940971	-0.092962
C	0.1494629728507456 0.5000236000890163 0.0001011091070191	0.163376
C	0.0452116083333139 0.5000727373106416 0.0000687969160201	-0.095824
H	0.5532614024689216 0.6512034611197601 0.2428705019786206	0.107797
H	0.5575719858681548 0.8344467781585962 0.2530083415593509	0.128621
H	0.4441455470062782 0.3491073106351749 0.2429730886718759	0.111102
H	0.4420220788895710 0.1659207133571863 0.2524068635762338	0.128969
H	0.3498015679006691 0.5552978829912726 0.2411384130041796	0.106127
H	0.1658061568086522 0.5577736548117455 0.2525663891078018	0.128320
H	0.6517911963228743 0.4467408584858513 0.2439639958465601	0.113212
H	0.8340933353927686 0.4424318358030979 0.2524036555820084	0.128939
H	0.4467390810848945 0.6517902324670473 0.7560323607887975	0.113210
H	0.4424313384792274 0.8340913310347243 0.7475958909550690	0.128960
H	0.5552961971302210 0.3497992723710112 0.7588655669819747	0.106111
H	0.5577734289738606 0.1658052986335413 0.7474339981710206	0.128346
H	0.6512025722588600 0.5532612441925048 0.7571295081503628	0.107782
H	0.8344455154364241 0.5575723520775108 0.7469944939665034	0.128660
H	0.3491066515914750 0.4441455599050088 0.7570281047028796	0.111076
H	0.1659182524007383 0.4420225757750073 0.7475901284932995	0.128912
Co	0.5001168386748446 0.5001168152186584 0.0000015068898441	0.584923
Al	0.4992812729088304 0.4992761039033438 0.4999992159750152	1.668039
F	0.4990851584331186 0.5017032061636658 0.7282680470510811	-0.591512
F	0.5017063647291178 0.4990879452532818 0.2717292695729054	-0.591476
F	0.4643178460806421 0.6231354152267687 0.4964494438329966	-0.638235
F	0.4083482821076791 0.4083242231406686 0.4999880963887500	-0.639296
F	0.6231540514478814 0.4643605514689508 0.5035566349301329	-0.638242
N	0.4998973466172998 0.3561006569993527 0.0003450711158579	-0.178433
N	0.4999819422118083 0.6443249927327382 0.0001324648103907	-0.182686
N	0.6443250479829229 0.4999826142695494 -0.0001329161294489	-0.182697
N	0.3561008136656066 0.4998973413257788 -0.0003428245196578	-0.178493
	  	
