#======================================================================

# CRYSTAL DATA

#----------------------------------------------------------------------

data_VESTA_phase_1


_pd_phase_name                         ALFFIVE_1_Cd
_cell_length_a                         11.76985
_cell_length_b                         11.77028
_cell_length_c                         8.11287
_cell_angle_alpha                      90.94823
_cell_angle_beta                       89.05730
_cell_angle_gamma                      90.09332
_symmetry_space_group_name_H-M         P 1
_symmetry_Int_Tables_number            1

loop_
_symmetry_equiv_pos_as_xyz
   x, y, z

loop_
   _atom_site_label
   _atom_site_fract_x
   _atom_site_fract_y
   _atom_site_fract_z
   _atom_site_charge
C	0.2457145938755577 0.4668431934232915 0.3605194338283731	0.102591
C	0.1275542206947966 0.4656481436963636 0.3567012884814135	-0.172491
C	0.7604547170181716 0.5212279138447170 0.3605418821688187	0.098573
C	0.8786365080120392 0.5225685703222240 0.3554991357501522	-0.172972
C	0.5307769972080126 0.2430309958328218 0.3671727709059056	0.101343
C	0.5319306711910445 0.1249128801877579 0.3616707409814649	-0.172995
C	0.4770412112659557 0.7576663799149060 0.3611108096518076	0.096994
C	0.4755281257013614 0.8758387349878637 0.3576333155081255	-0.171589
C	0.7576889823814250 0.4770097125628594 0.6388941611650151	0.096034
C	0.8758685276130672 0.4754804144789040 0.6423575246678193	-0.171396
C	0.2430490102189798 0.5307237550668827 0.6328772469367467	0.101613
C	0.1249259522472482 0.5318810183967511 0.6383414710562236	-0.173012
C	0.4669118068923787 0.2456836788473704 0.6395276760611540	0.102723
C	0.4657066926516072 0.1275250928329093 0.6433048165918905	-0.172862
C	0.5213045455765817 0.7604432100042210 0.6394631401750686	0.098712
C	0.5226409754739204 0.8786193273311045 0.6445036344089482	-0.173107
C	0.0645353761603521 0.4988437693569071 0.4977560638891586	0.100474
C	0.9390114619166108 0.4990075130630844 0.4986273292476608	0.096711
C	0.4989040504833767 0.0645201411627729 0.5022450024041805	0.100852
C	0.4990743993265349 0.9389889194919251 0.5013652579418207	0.096485
H	0.2976703122068518 0.4416437872708319 0.2528962882787760	0.103865
H	0.0853020038078543 0.4371556208466559 0.2447697128002021	0.117916
H	0.7108066808987893 0.5358722972440736 0.2503253979346586	0.103120
H	0.9230735685155114 0.5430098830749075 0.2409128051885875	0.116450
H	0.5551177805060801 0.2934116918089725 0.2602801661512804	0.098249
H	0.5600146082847005 0.0805356689103106 0.2492699499508416	0.116119
H	0.4606610023126388 0.7063361640358247 0.2502550772118308	0.108091
H	0.4543866998299359 0.9178340958269648 0.2434911417995422	0.117996
H	0.7063688431891660 0.4606857511476010 0.7497789071706566	0.108640
H	0.9178809824958279 0.4543438969532023 0.7565056504677672	0.117891
H	0.2934220273410386 0.5550683390208543 0.7397731238737461	0.098144
H	0.0805341984971908 0.5599763107119011 0.7507204970617568	0.116212
H	0.4417041930703298 0.2976257984518860 0.7471745739861885	0.103884
H	0.4372034222677842 0.0852577975832603 0.7552161809250996	0.118125
H	0.5359657274410091 0.7107864416108121 0.7496524721087687	0.102996
H	0.5430803916181032 0.9230546561848928 0.7590893068126827	0.116386
Cd	0.5018952222180965 0.5018835697084186 0.4999383131963374	0.829219
Al	0.4974991265158737 0.4977327668073255 -0.0000107378373588	1.689469
F	0.4983257824748394 0.4996205389197694 0.7753706752552212	-0.599846
F	0.4991716816956999 0.4984038201766057 0.2245811011542313	-0.599473
F	0.3927462682358202 0.3928057682171077 -0.0003451705741829	-0.653107
F	0.6404914378775028 0.4584209775743648 -0.0038171080884980	-0.647538
F	0.4578339028442883 0.6406570152504988 0.0039927171016375	-0.647117
N	0.3020609058035100 0.4990467860634835 0.4965629367126790	-0.234398
N	0.7013556177896182 0.4994021183283607 0.4999111585793247	-0.239713
N	0.4991181886784741 0.3020426788560158 0.5035053876788698	-0.234489
N	0.4994606156744256 0.7013324556094495 0.5000869332776062	-0.239771
	  	
