#======================================================================

# CRYSTAL DATA

#----------------------------------------------------------------------

data_VESTA_phase_1


_pd_phase_name                         ALFFIVE_13_Cu_i
_cell_length_a                         15.14612
_cell_length_b                         15.14349
_cell_length_c                         7.97214
_cell_angle_alpha                      90.12433
_cell_angle_beta                       89.82655
_cell_angle_gamma                      89.84117
_symmetry_space_group_name_H-M         P 1
_symmetry_Int_Tables_number            1

loop_
_symmetry_equiv_pos_as_xyz
   x, y, z

loop_
   _atom_site_label
   _atom_site_fract_x
   _atom_site_fract_y
   _atom_site_fract_z
   _atom_site_charge
C	0.5399316768724081 0.6811135231179261 0.8709653190446052	0.112038
C	0.5434112742302097 0.7729164047777997 0.8687714841692452	-0.148026
C	0.4636902963600185 0.3219785771326011 0.8773502812570051	0.104486
C	0.4601770269576101 0.2301612225991692 0.8783276087035317	-0.139801
C	0.8215993469875091 0.9732224219773342 0.3635357410106880	0.106197
C	0.7298869223603596 0.9704001698320930 0.3603502328043794	-0.135019
C	0.3219594707803398 0.5417831945766841 0.8685910598724256	0.108131
C	0.2301185232650868 0.5455666824482023 0.8654077833457089	-0.149193
C	0.1816202396301087 0.9732643668441276 0.3581910084711715	0.093774
C	0.2733499882720452 0.9711039865591194 0.3562108012768002	-0.135079
C	0.6808913613480080 0.4639518419687417 0.8806386272858711	0.104129
C	0.7725921533324246 0.4604475087364687 0.8808988786842534	-0.137893
C	0.4564894820433923 0.6817944593833811 0.1171607790391426	0.107702
C	0.4525797227288709 0.7735109804347342 0.1181104365618346	-0.138421
C	0.5399051620670927 0.3242100311626819 0.1313153648768758	0.109487
C	0.5427668521216872 0.2323606481429371 0.1368706475313605	-0.149848
C	0.1792606376956377 0.0184763380333876 0.6380666916623008	0.108155
C	0.2708217617816318 0.0213291098458202 0.6443243877484114	-0.136579
C	0.6786308037715221 0.5430323394240310 0.1318965567047496	0.111770
C	0.7704119761679910 0.5467944699542846 0.1357968067867275	-0.147330
C	0.8210021467506258 0.0284973237334129 0.6368022547798816	0.104865
C	0.7293695509336350 0.0295330103883911 0.6425687211312596	-0.136901
C	0.3204854367612259 0.4595817942898330 0.1157698270142203	0.107026
C	0.2286953764755059 0.4565477853122302 0.1163869876131387	-0.140235
C	0.9667609686461995 0.8194599540290514 0.6353933313083782	0.106402
C	0.9648520438576589 0.7276281728656246 0.6400114161869982	-0.135822
C	0.9842925079536029 0.1784594829078140 0.6394934751856324	0.088401
C	0.9808034712477700 0.2700644814913967 0.6425806559015477	-0.135393
C	0.0211703805698265 0.8183143487535454 0.3614974484115973	0.104011
C	0.0233992812869336 0.7267229749897404 0.3573520967585451	-0.138109
C	0.0284520547278177 0.1775367183962313 0.3589376282099306	0.109951
C	0.0299395861716610 0.2692503325160360 0.3535556613111742	-0.137145
C	0.0042133553847458 0.3163386977345275 0.4972600699021724	0.042163
C	0.0016135860749831 0.4129975054311027 0.4973341599059969	0.255821
C	0.4980871258667298 0.8199153931987874 0.9934215228374070	0.056202
C	0.4990008837423481 0.9173771321959213 0.9981672162114671	0.247793
C	0.9949129285562447 0.6804233841285876 0.4994503859823552	0.038720
C	0.9971051588506766 0.5835617412906793 0.4994255091739461	0.245036
C	0.5011606277958133 0.1845769591482250 0.0093555754931221	0.056373
C	0.5004738062494469 0.0870077864225654 0.0101586327750327	0.250975
C	0.6829081477758449 -0.0005868585719531 0.5019949851958972	0.038511
C	0.5860892976232400 0.9976589463827881 0.5036158764885325	0.246532
C	0.1827152207287062 0.5013693721944023 0.9904241364508601	0.056851
C	0.0852346316495517 0.5022658404460180 0.9932787017047077	0.247560
C	0.3187974948000417 0.9962401412203932 0.5013584870188940	0.041024
C	0.4155104999275851 0.9962350252298863 0.5034443175619568	0.255487
C	0.8181467866429765 0.5036764923595103 0.0093881501333356	0.053491
C	0.9156655544285704 0.5034767887105930 0.0071250941130815	0.249804
H	0.5694077066541484 0.6408241710339598 0.7722027001418228	0.108290
H	0.5797139973825978 0.8068267176891414 0.7699543095086591	0.123635
H	0.4370795379735330 0.3607524911802374 0.7733764217693336	0.115444
H	0.4284651715781193 0.1942711104310416 0.7765295394696913	0.118129
H	0.8612605509548105 0.9526787153317887 0.2555859353989245	0.112467
H	0.6957456351997335 0.9466887133288577 0.2490646349679637	0.119731
H	0.3624961513429558 0.5715951368447169 0.7704233497904029	0.108111
H	0.1964487567671076 0.5813249113550898 0.7658049289066278	0.124730
H	0.1439200138013392 0.9591376056867729 0.2447186015584643	0.110857
H	0.3082907709908679 0.9519649956951256 0.2420716668897519	0.115978
H	0.6419760791442749 0.4372565023440597 0.7774171721100468	0.115736
H	0.8084761596841157 0.4274854984140177 0.7799406656845659	0.117821
H	0.4281301468515915 0.6423324745375757 0.2181731902912626	0.115238
H	0.4181397034450989 0.8087172368328949 0.2180891826277070	0.117554
H	0.5676584598000678 0.3650961263882660 0.2309835315728308	0.107447
H	0.5755436416316412 0.1990167428240195 0.2405046117456846	0.124242
H	0.1387899727540997 0.0327182348170169 0.7478914874668635	0.110883
H	0.3040056177439923 0.0410041106776166 0.7593790312376032	0.119349
H	0.6378684210215188 0.5703935845147311 0.2321977495674718	0.109262
H	0.8037051324359759 0.5812726106395459 0.2375954639808771	0.124250
H	0.8604425193396295 0.0480142554612035 0.7445056881744885	0.102030
H	0.6950017820382546 0.0518557979038352 0.7551492267894351	0.120710
H	0.3595851033517587 0.4305731599685443 0.2167656922434308	0.114196
H	0.1930863009589688 0.4228634571704586 0.2163105889181163	0.117102
H	0.9463947029369075 0.8593267646432466 0.7431831021041577	0.113865
H	0.9417888712821395 0.6937465181793471 0.7522357236307330	0.120118
H	0.9708052626335587 0.1401377954286919 0.7525594576195870	0.111729
H	0.9614438519265672 0.3044340442093620 0.7570486621745902	0.119820
H	0.0397074024510692 0.8576219908183217 0.2529474421527378	0.102330
H	0.0460877880341174 0.6922444939407316 0.2452498765330991	0.119744
H	0.0429600028636880 0.1375361108027973 0.2485634686269321	0.111489
H	0.0484745334401930 0.3031666758266594 0.2384172840110232	0.119401
N	0.9457300745655082 0.5403542369381612 0.6113641735870436	-0.134907
N	0.4209559706887132 0.0467038927724458 0.0094508230618883	-0.149446
N	0.5435022906805087 0.0492380665442418 0.6168115335447085	-0.137075
N	0.9564672997966575 0.4240242018589089 0.0025169895245586	-0.143402
N	0.0507584923918996 0.5431593690284668 0.3867302804694568	-0.134177
N	0.5791898668617214 0.0448822518577522 0.0114041744557755	-0.151723
N	0.9571428321807147 0.5822942803622427 0.0053438859802267	-0.146725
N	0.5451219600530511 0.9435971312151752 0.3932600258746753	-0.133594
N	0.0534282572506723 0.4562640856221452 0.3864152152914725	-0.132463
N	0.5784554602686831 0.9576720464652775 0.0006538244565315	-0.145514
N	0.4582334049117885 0.9429961764678365 0.3933006746160208	-0.128551
N	0.0443338118878386 0.5816467001748681 0.9938328478731072	-0.149687
N	0.9476467035765577 0.4534357664243465 0.6093237568679429	-0.129807
N	0.4203075708029947 0.9593884695227434 0.0069314705288459	-0.140820
N	0.0437546535558911 0.4233989679453340 0.9988939129810044	-0.147281
N	0.4565584474775977 0.0484507871046209 0.6166265953584071	-0.134054
N	0.0060655257448258 0.1335264211569183 0.4992844377213635	-0.210659
N	0.4985429476666134 0.6369943991486662 0.9944706270145367	-0.221853
N	0.9948753112464377 0.8634010436282209 0.4985167850750458	-0.207610
N	0.5018685543976973 0.3674477665559066 0.0030425200296010	-0.219807
N	0.8657868055393301 0.0015403606092778 0.4997841478402598	-0.206983
N	0.3655926544995621 0.5006363070950688 0.9928689177274951	-0.217888
N	0.1359592573310465 0.9954506965264804 0.4973912969893747	-0.211932
N	0.6353090658063646 0.5034608297193126 0.0054547270096694	-0.222133
Cu	0.0008940588093060 0.9985605375686499 0.4985656527684442	0.721573
Cu	0.5004905444032252 0.5022686526970515 0.9991373804514277	0.735886
Al	0.9971777016968416 0.9950117458867129 0.9987725515067267	1.670913
Al	0.4974467893354227 0.5004917080708993 0.4992605141831539	1.693626
F	0.0004259564907173 -0.0029243782081333 0.2260137596054528	-0.625699
F	0.5068332366407207 0.4966236358339650 0.7271476749842822	-0.634707
F	-0.0018299122673968 0.9968203150815184 0.7714692397970300	-0.624516
F	0.4914956491977019 0.5070953883286057 0.2711915661400984	-0.635500
F	0.9153584381350111 0.9143553585528805 0.0007344564171560	-0.634431
F	0.4182119508180942 0.4165266361129679 0.5022649423816709	-0.655557
F	0.9652980583086389 0.1060869932301410 0.9985631100601972	-0.628526
F	0.4618966068984302 0.6106092396494759 0.5138404102908581	-0.658580
F	0.1079404961874779 0.9620621081127119 -0.0025584263295461	-0.628680
F	0.6092507984947468 0.4711699822716284 0.4818703846009924	-0.657474
	  	
