#======================================================================

# CRYSTAL DATA

#----------------------------------------------------------------------

data_VESTA_phase_1


_pd_phase_name                         ALFFIVE_16_Cd_i
_cell_length_a                         25.58470
_cell_length_b                         25.58489
_cell_length_c                         7.84189
_cell_angle_alpha                      90.04585
_cell_angle_beta                       89.95788
_cell_angle_gamma                      90.01837
_symmetry_space_group_name_H-M         P 1
_symmetry_Int_Tables_number            1

loop_
_symmetry_equiv_pos_as_xyz
   x, y, z

loop_
   _atom_site_label
   _atom_site_fract_x
   _atom_site_fract_y
   _atom_site_fract_z
   _atom_site_charge
C	0.4814421292678766 0.3813659843419582 0.3664833511351369	0.100831
C	0.4806780954810993 0.3270571808509906 0.3601009543788724	-0.172176
C	0.9558951999215951 0.6114703042189588 0.9424043534471086	-0.127410
C	0.9560952529322556 0.5571892502575191 0.9430988976487903	-0.123146
C	0.5134949018428395 0.6202953495345112 0.3594941846419448	0.096070
C	0.5142589039908382 0.6745837562994678 0.3553171352586033	-0.173027
C	0.0440596591698236 0.3894152825349410 0.9428345747562991	-0.124688
C	0.0439907816690560 0.4436973321964893 0.9438492468300771	-0.128741
C	0.6198102921686145 0.4862278072470281 0.3577262859521527	0.091767
C	0.6741087636893679 0.4853825062213867 0.3519271085206616	-0.175379
C	0.3894993065864341 0.9558258184889709 0.9422543271434630	-0.125541
C	0.4437866940746611 0.9560260082899349 0.9432962521056807	-0.127115
C	0.3807183573689195 0.5179888963699369 0.3624589638817756	0.098568
C	0.3264163209035830 0.5189617481492015 0.3589079190814639	-0.171321
C	0.6115814434810074 0.0440537625912460 0.9427830689298586	-0.126695
C	0.5572953945396940 0.0439425271199476 0.9438031183404965	-0.124549
C	0.5180039605415574 0.3807369239369066 0.6374396629075612	0.099025
C	0.5189666028443075 0.3264377122746293 0.6410719412390595	-0.171217
C	0.0440558919047063 0.6115757098812664 0.0572483481313926	-0.126691
C	0.0439456985650177 0.5572913035026065 0.0562090319469860	-0.124839
C	0.4862381183142722 0.6197997546686590 0.6421884673386150	0.092109
C	0.4853918555923935 0.6740966465694027 0.6480461634228483	-0.175506
C	0.9558363286658383 0.3894960312041921 0.0577534051403087	-0.125283
C	0.9560319518713173 0.4437821711823032 0.0566988985226202	-0.128009
C	0.3813834964351176 0.4814491738227429 0.6334360729056370	0.100954
C	0.3270749172467942 0.4806832310188114 0.6398810531400012	-0.172447
C	0.6114741863813837 0.9558952861826967 0.0576270426051644	-0.127400
C	0.5571920408095852 0.9560939733990995 0.0569068871239375	-0.123222
C	0.6202839320456101 0.5134870745894941 0.6404274361123310	0.095629
C	0.6745714553891802 0.5142524879036241 0.6446667676785253	-0.172544
C	0.3894170793214317 0.0440503769328358 0.0571787348699892	-0.124911
C	0.4437020220670977 0.0439865225992738 0.0561493777900141	-0.127858
C	0.5440285106425338 0.8894390162918892 0.5571775806985093	-0.125495
C	0.5439756217539881 0.9437195646930086 0.5561178657307088	-0.127880
C	0.0133981984172068 0.1203010448379651 0.1403581745529650	0.096123
C	0.0142094710369096 0.1745878399015970 0.1446906532465558	-0.172683
C	0.4558761627157744 0.1114977021215114 0.5576177624222305	-0.126691
C	0.4560975782417012 0.0572162147769116 0.5569263140175176	-0.123561
C	0.9814578350299932 0.8813583624265005 0.1342173340100900	0.099601
C	0.9806658912389301 0.8270516014914590 0.1403491947925978	-0.171828
C	0.1115619188834693 0.5440806785228834 0.5573333253692796	-0.126761
C	0.0572790394322414 0.5439773134891180 0.5562544504327003	-0.124489
C	0.8807028625336261 0.0179901675543061 0.1369946815166200	0.099425
C	0.8264072794563759 0.0189463660342839 0.1408814252643629	-0.171324
C	0.8894832687729256 0.4558555777818100 0.5576836267199702	-0.125019
C	0.9437709753842978 0.4560715577244793 0.5566705369386796	-0.128523
C	0.1197614118574309 0.9863103684739436 0.1424068522428659	0.094168
C	0.1740602113076533 0.9854367421839263 0.1480542348228512	-0.174741
C	0.4558532752340896 0.8894836560946836 0.4423365904463169	-0.124802
C	0.4560721591515017 0.9437684160334316 0.4433371819947645	-0.128479
C	0.9863069002471715 0.1197602383099361 0.8576029842756170	0.094181
C	0.9854372771477881 0.1740579308002673 0.8519773894985531	-0.174818
C	0.5440775956004829 0.1115634348993845 0.4427127231951174	-0.126659
C	0.5439757580192942 0.0572817952801603 0.4437713362121972	-0.124605
C	0.0179922336109580 0.8806930427649626 0.8630460597327885	0.099223
C	0.0189502757357339 0.8263985020555162 0.8591625972561314	-0.171635
C	0.8894373180102308 0.5440298141115434 0.4428474741827312	-0.125463
C	0.9437216907103618 0.5439736919769179 0.4438955347792234	-0.127987
C	0.1203067880237826 0.0133993200721921 0.8596523558462589	0.096120
C	0.1745941866196281 0.0142079426994929 0.8553444977894125	-0.173044
C	0.1115012102623216 0.4558761356886574 0.4424276647575760	-0.126640
C	0.0572177908356371 0.4560965842343510 0.4430985768013028	-0.123728
C	0.8813579622027587 0.9814550471334413 0.8658176124935799	0.099433
C	0.8270502526510972 0.9806620337810263 0.8596863463711713	-0.171738
C	0.4997905434950926 0.2982982481170863 0.4998919944301522	0.170913
C	0.4997810601561800 0.2427844576149923 0.4988973493962364	-0.116145
C	0.4998355424048551 0.1950873201285500 0.4993349204391860	-0.095597
C	0.4999221438426032 0.1396278069175129 0.4998773588521537	0.124669
C	0.5000534641731144 0.0292283763296587 0.5002589189090098	0.065396
C	-0.0002205865068327 0.7982780453737814 0.0003357384862240	0.171187
C	-0.0002177501993152 0.7427681849876280 0.0011457645486965	-0.115678
C	-0.0001553365001638 0.6950674119051258 0.0006632784283136	-0.096341
C	-0.0000735489979744 0.6396128212583904 0.0001057394946673	0.125348
C	0.0000291576161273 0.5292244665568759 -0.0002576630674996	0.065124
C	0.4998057596533194 0.7027865876297900 0.5021472343409596	0.172881
C	0.4997182256761635 0.7582852216624185 0.5023421736834902	-0.117041
C	0.4997633157608524 0.8059704378227839 0.5009649892759516	-0.095414
C	0.4998739309118350 0.8614117351412458 0.5000560264821456	0.123278
C	0.5000351636082732 0.9717552014326856 0.4999213062988793	0.071852
C	-0.0001906826276263 0.2027778730961703 -0.0020357025332086	0.172667
C	-0.0002580474860978 0.2582809385152175 -0.0021167569923081	-0.116957
C	-0.0002085415354363 0.3059679509308635 -0.0008180799084358	-0.095387
C	-0.0001074536181582 0.3614116015644244 0.0000341959227478	0.123428
C	0.0000138511839487 0.4717447071489475 0.0000780655970672	0.071881
C	0.7027863484436867 0.4997994979659747 0.4978617931316841	0.172801
C	0.7582837954009741 0.4997146549631217 0.4977054506168415	-0.117255
C	0.8059729624161607 0.4997657686415889 0.4990781613883805	-0.095206
C	0.8614122344805096 0.4998770430401481 0.4999789241418705	0.123428
C	0.9717550571697130 0.5000331739707778 0.5000858168163427	0.071994
C	0.2027818275464086 -0.0001944216835633 0.0020756583545024	0.172750
C	0.2582848315612778 -0.0002660254084573 0.0021658019177038	-0.116919
C	0.3059720883609990 -0.0002202492569997 0.0008509146199865	-0.095483
C	0.3614152711089402 -0.0001188722004568 -0.0000137610325139	0.123710
C	0.4717477568088795 0.0000091589594539 -0.0000862828314367	0.069439
C	0.2982989624304548 0.4997904350574125 0.5001243583346592	0.171020
C	0.2427830416054694 0.4997842754728233 0.5011778985306639	-0.115664
C	0.1950888662039768 0.4998391878222279 0.5007432226003242	-0.096248
C	0.1396264183301483 0.4999241303559750 0.5001863739932104	0.125098
C	0.0292292150567335 0.5000516159477800 0.4997581919777041	0.065226
C	0.7982820580945786 -0.0002240164111546 -0.0002903065452340	0.170749
C	0.7427700435478963 -0.0002218157991618 -0.0010930420775670	-0.115736
C	0.6950727918364052 -0.0001568871350895 -0.0006056703706205	-0.096158
C	0.6396164067723634 -0.0000749864824836 -0.0000648595762798	0.125263
C	0.5292280193154258 0.0000281873644271 0.0002562384334542	0.065884
H	0.4677786073180671 0.4048298230000051 0.2589940373012271	0.105509
H	0.4655887238202164 0.3071282027291671 0.2477556986261085	0.124096
H	0.9218316925120867 0.6327732705989554 0.8963272799771851	0.112369
H	0.9222422638656249 0.5358879677651782 0.8949734353810909	0.105790
H	0.5222683909281676 0.5973262234982881 0.2458047586800002	0.104324
H	0.5256017006973431 0.6948878733299091 0.2391730548034294	0.123397
H	0.0781096139511879 0.3680207528919264 0.8968660280513779	0.111408
H	0.0779692471044722 0.4648991977146998 0.8961738320658761	0.107404
H	0.5963520406078353 0.4762894385673498 0.2460242325712245	0.111490
H	0.6940222400391054 0.4737897982227660 0.2352396091867865	0.124021
H	0.3681787341874778 0.9217516925200797 0.8960901452559245	0.111834
H	0.4650729987463421 0.9221263401185663 0.8953713937915432	0.106949
H	0.4038233077284206 0.5322737340428384 0.2549651772046791	0.096361
H	0.3059178516150704 0.5342191198774767 0.2480499938481632	0.121932
H	0.6329674190541766 0.0780822975820798 0.8966559062437441	0.111883
H	0.5360900217093690 0.0778624380161050 0.8959293086531938	0.106452
H	0.5323083066023103 0.4038604579593933 0.7448839591183221	0.096206
H	0.5342240788259277 0.3059508654957756 0.7519573514663701	0.121871
H	0.0780847231556384 0.6329610728235777 0.1033907477635228	0.111935
H	0.0778660249645293 0.5360845677856524 0.1040672942377915	0.106546
H	0.4763094203252006 0.5963333441324611 0.7538740397275073	0.111280
H	0.4738041000377604 0.6939984827627311 0.7647683924834806	0.123983
H	0.9217636460572639 0.3681739589533062 0.1039210206909669	0.111784
H	0.9221331058594254 0.4650682089090563 0.1046235009031485	0.106942
H	0.4048533496482139 0.4678075335796062 0.7409484765767258	0.105307
H	0.3071613300440877 0.4655987384008728 0.7522541585697468	0.124328
H	0.6327757301036578 0.9218340181361164 0.1037124201225755	0.112406
H	0.5358900561799310 0.9222418488644193 0.1050183708690944	0.105765
H	0.5973011634687972 0.5222644561614621 0.7540790023400289	0.104415
H	0.6948656191964434 0.5255928336370482 0.7608382999301356	0.123207
H	0.3680236614704128 0.0780992035100727 0.1031537606786303	0.111481
H	0.4649029144805590 0.0779659629289954 0.1038172088495631	0.107351
H	0.5780555184047892 0.8680555684556521 0.6031218343043877	0.111618
H	0.5779414702478576 0.9649432834750067 0.6037422476503732	0.107167
H	0.0221519622971031 0.0973477879311023 0.2539633353799878	0.103915
H	0.0255246396495698 0.1949047958303366 0.2608949586001342	0.123189
H	0.4217880681496586 0.1328110050640154 0.6037379451801359	0.112287
H	0.4222326176817466 0.0359288511083802 0.6050432934202200	0.105626
H	0.9677783394290207 0.9048191556800840 0.2418995556488558	0.106271
H	0.9655659238584131 0.8071401255047509 0.2527029237248046	0.124003
H	0.1329317684898320 0.5781262928918504 0.6035185456685371	0.111954
H	0.0360548958468105 0.5779184828789531 0.6041425282656202	0.106289
H	0.9038103579326691 0.0322580420120616 0.2444605181988725	0.095803
H	0.8059205424439406 0.0341910996104169 0.2519641442952857	0.121976
H	0.8681489106632071 0.4217972821385918 0.6038402598723798	0.111714
H	0.9650461692792258 0.4222004015797766 0.6045651356195716	0.107154
H	0.0963219357787370 0.9764490030821490 0.2543551878210636	0.108231
H	0.1939363673160342 0.9738861104205797 0.2647110179238144	0.124030
H	0.4217928391660253 0.8681479826189555 0.3961822949312179	0.111632
H	0.4222011428953968 0.9650443839102981 0.3954334752323972	0.107162
H	0.9764354392397160 0.0963224732789178 0.7456511884319007	0.108169
H	0.9738867738935374 0.1939377100688058 0.7353266639024877	0.124124
H	0.5781227393308458 0.1329339822601134 0.3965354908209449	0.111955
H	0.5779175281207198 0.0360591197777869 0.3958734962134931	0.106330
H	0.0322602524769595 0.9037979217137739 0.7555825418625176	0.095946
H	0.0341949147112630 0.8059092871301187 0.7480841082853893	0.122007
H	0.8680573055029237 0.5780566704203270 0.3969119085538794	0.111631
H	0.9649450518004977 0.5779371537582875 0.3962695133321916	0.107179
H	0.0973570618978666 0.0221472359161266 0.7460288193482076	0.104046
H	0.1949134124991155 0.0255220634778086 0.7391481151047363	0.123248
H	0.1328157474928197 0.4217874255965671 0.3963247614518731	0.112221
H	0.0359320621469315 0.4222295326446754 0.3949782514800474	0.105661
H	0.9048142881194117 0.9677749818873828 0.7581277202987050	0.106248
H	0.8071350709070323 0.9655580290429480 0.7473378101888553	0.124091
Cd	0.5006794620065353 0.5006806448179500 0.4998668652663560	0.836606
Cd	0.0006558086398021 0.0006492682867681 0.0000319639211029	0.837017
Al	0.4969842480395192 0.4970223299870665 -0.0001184401481731	1.681885
Al	-0.0030524321931726 -0.0030295160648329 0.5000158791065054	1.683054
F	0.5092159148060955 0.4872071147316578 0.2238986381881103	-0.590840
F	-0.0119739192463082 0.0083074087162882 0.7244506657158616	-0.590009
F	0.4872190427642875 0.5092457405210881 0.7758701891129386	-0.590888
F	0.0083206428893075 -0.0119648705811814 0.2755800702023619	-0.589937
F	0.4486966672864023 0.4490524515881658 0.0000055256587475	-0.650621
F	0.9488361631719211 0.9488025629260064 0.4999639839150440	-0.650816
F	0.4787308135926077 0.5618062154252025 0.0408808087514004	-0.645192
F	0.9782414229568261 0.0617868698785231 0.4626449521661377	-0.645897
F	0.5616872203213104 0.4784495807465968 0.9588000702151468	-0.645311
F	0.0618495844208518 0.9784781812847706 0.5373092528722199	-0.645803
N	0.4996143604116997 0.4076981978458126 0.5030498982307428	-0.235030
N	-0.0003646174475886 0.9076714932691439 -0.0023175654233725	-0.234898
N	0.4999017252794278 0.5933576873539682 0.5001835143808906	-0.240015
N	-0.0001117476695399 0.0933426463340878 -0.0004680520516976	-0.240301
N	0.5933570585836995 0.4998945690443514 0.4997055410969768	-0.239759
N	0.0933458881136506 -0.0001099885758952 0.0004716369533171	-0.240346
N	0.4076984964912689 0.4996062985068000 0.4968229953077998	-0.234648
N	0.9076767194536781 -0.0003667836659391 0.0023484317327815	-0.234835
	  	
