#======================================================================

# CRYSTAL DATA

#----------------------------------------------------------------------

data_VESTA_phase_1


_pd_phase_name                         ALFFIVE_15_Ni_i
_cell_length_a                         29.77927
_cell_length_b                         28.89178
_cell_length_c                         7.91921
_cell_angle_alpha                      89.99980
_cell_angle_beta                       89.99996
_cell_angle_gamma                      90.00097
_symmetry_space_group_name_H-M         P 1
_symmetry_Int_Tables_number            1

loop_
_symmetry_equiv_pos_as_xyz
   x, y, z

loop_
   _atom_site_label
   _atom_site_fract_x
   _atom_site_fract_y
   _atom_site_fract_z
   _atom_site_charge
C	0.9340634593693790 0.1034100215873842 0.8964579788880089	0.092765
C	0.9017522520814963 0.0688210841619598 0.9022456082644075	-0.165884
C	0.7701165006200503 0.9362081170782840 0.9041280563045988	-0.115632
C	0.7357859771482302 0.9038727556561713 0.9038822746454722	-0.117662
C	0.5673702340915155 0.7409067672357684 0.8963211569803192	0.089128
C	0.6010168941772323 0.7741258475023138 0.9018787421673089	-0.170165
C	0.4345194845511222 0.6032042473917864 0.8963198657835716	0.103959
C	0.4021152051964887 0.5687060295926586 0.9023365454118673	-0.168008
C	0.2700689372641952 0.4362632946716338 0.9040417158314484	-0.114222
C	0.2357541211570546 0.4039025473991079 0.9037861218100184	-0.116618
C	0.0675608241169999 0.2404384351798887 0.8961767157514018	0.101220
C	0.1011606342381369 0.2736941047581127 0.9019633814781143	-0.171697
C	0.0659569485406052 0.8963207414156059 0.3963123876414552	0.104170
C	0.0980253317514965 0.9311470321858731 0.4023391290272625	-0.168113
C	0.2299125688340179 0.0637608611528626 0.4040327495216020	-0.113924
C	0.2642353947417632 0.0961120785235997 0.4037788709942187	-0.116322
C	0.4329084794314907 0.2590847509579415 0.3961706062396670	0.102615
C	0.3990287417863206 0.2261287367833027 0.4019594318404557	-0.172660
C	0.5657692574344758 0.3967753187064674 0.3964659894347659	0.093735
C	0.5978567773749915 0.4316016283658748 0.4022498159676360	-0.164981
C	0.7299460689153549 0.5637325815535223 0.4041205210276942	-0.115509
C	0.7643028121540822 0.5960361231523303 0.4038722197641346	-0.116846
C	0.9324323404732394 0.7593163293895061 0.3963236507186199	0.090872
C	0.8986122906113138 0.7262876763611826 0.4018842765041541	-0.171025
C	0.0658233425329956 0.1038175812225592 0.6036518645687574	0.104425
C	0.0978698162031040 0.0689780619534641 0.5976274564966885	-0.168862
C	0.2296535866051047 0.9364604251395848 0.5959082692625030	-0.116879
C	0.2640034503397335 0.9041450386323029 0.5961721903120494	-0.116117
C	0.4325109243271578 0.7410319514564080 0.6037202885117361	0.089548
C	0.3988555748092508 0.7742742896179192 0.5981490324863262	-0.169047
C	0.5653885516213769 0.6033370708773262 0.6036520096787640	0.099021
C	0.5977643892154025 0.5688369806415322 0.5976416565876767	-0.167709
C	0.7297249065838810 0.4365182512015036 0.5958878621162748	-0.116819
C	0.7640288997113679 0.4041550303958877 0.5961623191168302	-0.116484
C	0.9323157746355591 0.2408146326165773 0.6036970079398132	0.091124
C	0.8984635523740354 0.2738374791330734 0.5981400358368423	-0.170335
C	0.9339562324880820 0.8967138617244208 0.1035671510857218	0.091739
C	0.9016175404105420 0.9312979916917543 0.0977809745653081	-0.165071
C	0.7698478835188969 0.0639753239883554 0.0958962203369466	-0.115542
C	0.7355493119503044 0.0963520397339500 0.0961597347419881	-0.118046
C	0.5669845280897500 0.2592202510505702 0.1037970670592740	0.101643
C	0.6008569860015789 0.2262789409367216 0.0980091986755370	-0.172109
C	0.4341236970787588 0.3968979511302724 0.1035634745091573	0.092759
C	0.4020215995995414 0.4317194252343117 0.0977703911044593	-0.164929
C	0.2698496603988255 0.5639694107219687 0.0959253771869183	-0.115534
C	0.2354905952137314 0.5962780848809811 0.0961639593364602	-0.117786
C	0.0674424669683667 0.7596803812454178 0.1037971206421589	0.100111
C	0.1010258133636935 0.7264131305746756 0.0980089724464552	-0.170577
C	0.0659566296457520 0.8963203006291426 0.1036852162697578	0.104183
C	0.0980252948757040 0.9311466234528520 0.0976574680263284	-0.168166
C	0.2299126627571449 0.0637610659620758 0.0959644259645583	-0.113925
C	0.2642355319405185 0.0961123557131286 0.0962182979484348	-0.116409
C	0.4329083886114702 0.2590850818530349 0.1038297704293579	0.102617
C	0.3990285365172063 0.2261292250472549 0.0980399035933559	-0.172677
C	0.5657692026096092 0.3967754755447601 0.1035352855172545	0.093740
C	0.5978566720767468 0.4316015485993350 0.0977491671812527	-0.164970
C	0.7299462559416814 0.5637323061660861 0.0958769798146907	-0.115574
C	0.7643028250378986 0.5960359774058789 0.0961234419911342	-0.116825
C	0.9324328133660846 0.7593163305409778 0.1036731529228210	0.090920
C	0.8986126942779932 0.7262876202722452 0.0981130644312290	-0.171118
C	0.9340639005820792 0.1034111245672717 0.6035450151914361	0.092780
C	0.9017517959145323 0.0688214525907044 0.5977563316420241	-0.165854
C	0.7701165553600746 0.9362082345235258 0.5958709413959020	-0.115707
C	0.7357858284756329 0.9038723624457042 0.5961143107708533	-0.117635
C	0.5673698612972615 0.7409066532515977 0.6036882129848924	0.089090
C	0.6010168579565767 0.7741257735242532 0.5981260114667497	-0.170047
C	0.4345198165735554 0.6032043383102612 0.6036818888524871	0.103377
C	0.4021154549126431 0.5687062074163329 0.5976661391537119	-0.167994
C	0.2700690652873121 0.4362633485344343 0.5959549603154806	-0.114184
C	0.2357542434997526 0.4039026081282364 0.5962111561545087	-0.116706
C	0.0675607629008334 0.2404381449702399 0.6038313126464263	0.101103
C	0.1011607226520991 0.2736939598879707 0.5980415224052235	-0.171514
C	0.9339559425002879 0.8967141596176943 0.3964363906936740	0.091605
C	0.9016174359646579 0.9312982225220691 0.4022225768598363	-0.164967
C	0.7698480649175609 0.0639751759132046 0.4040999027498428	-0.115507
C	0.7355495078807609 0.0963518651385328 0.4038363232821013	-0.118111
C	0.5669852500465109 0.2592202151712648 0.3962065787220050	0.101623
C	0.6008573644430903 0.2262787300003289 0.4019913148395812	-0.172130
C	0.4341237342602601 0.3968978557455283 0.3964397142211468	0.092655
C	0.4020217578946771 0.4317191781835680 0.4022319426067646	-0.164845
C	0.2698500546218890 0.5639691109164576 0.4040745799635904	-0.115499
C	0.2354909403778627 0.5962777411932284 0.4038339649739444	-0.117810
C	0.0674427786699816 0.7596798288291653 0.3962066740862770	0.100061
C	0.1010261282649662 0.7264125286205778 0.4019938269856145	-0.170574
C	0.0658237811092291 0.1038168440748761 0.8963459639858868	0.104387
C	0.0978703686304863 0.0689774244311431 0.9023683323571494	-0.168757
C	0.2296533415581510 0.9364597491434387 0.9040885936778569	-0.116913
C	0.2640032054413115 0.9041443177126935 0.9038246063713266	-0.116155
C	0.4325111446595168 0.7410317251384688 0.8962788103124099	0.089545
C	0.3988556288438888 0.7742743212228849 0.9018496665785359	-0.169032
C	0.5653885179561524 0.6033363057658876 0.8963504947715185	0.098970
C	0.5977645305845801 0.5688358945050250 0.9023605631758086	-0.167683
C	0.7297252741125875 0.4365190522987706 0.9041090149436346	-0.116743
C	0.7640299385896040 0.4041546453723723 0.9038291188619398	-0.116517
C	0.9323155675297929 0.2408141402345972 0.8963000312752402	0.091643
C	0.8984635874837203 0.2738372021639757 0.9018571853248085	-0.170382
C	0.6532370055124532 0.8252323397233012 0.7500012839229908	-0.103347
C	0.8847283459529354 0.0507963688949102 0.7500013063282158	0.157722
C	0.8221410549382969 0.9864138221592329 0.7499983018630664	-0.100733
C	0.6187632202160558 0.7916354179865817 0.7500032602192256	0.165596
C	0.7876784057885713 0.9528928026125064 0.7499981733417135	0.124361
C	0.7180527295840353 0.8871894275501957 0.7500007978726695	0.139116
C	0.6831900319981251 0.8540721009000536 0.7500012538950791	-0.104713
C	0.8514378594625273 0.0159679941377848 0.7499998429775827	-0.103196
C	0.1531963038313741 0.3250809703529561 0.7500006405011096	-0.106484
C	0.3849641030330047 0.5508031829195728 0.7500012310305089	0.161342
C	0.3221232482416653 0.4865838476297001 0.7499983062877388	-0.095612
C	0.1188302095710761 0.2913093795365212 0.7500025585378940	0.169886
C	0.2876367456794993 0.4530236235048647 0.7499981339697142	0.125924
C	0.2179669300315955 0.3871827490533590 0.7499987722080583	0.138984
C	0.1831049025207332 0.3540108129003810 0.7499994628150661	-0.100592
C	0.3514840211514719 0.5161064787995830 0.7499998199263146	-0.106372
C	0.3465218504893675 0.1752397450797276 0.2500000182263458	-0.105350
C	0.1148420188798601 0.9493885878361181 0.2499975852688878	0.161638
C	0.1775713895036127 0.0137341953792918 0.2499979575341695	-0.098122
C	0.3810707829189299 0.2088313116806304 0.2499997809745962	0.170410
C	0.2122396525807279 0.0471058820732420 0.2499988137770368	0.125164
C	0.2819453714339496 0.1129307998757961 0.2499985448717147	0.139876
C	0.3166802961592806 0.1462595064022909 0.2499995888890881	-0.100997
C	0.1481203079846824 0.9843136751714561 0.2499957039416923	-0.106138
C	0.8464042798304672 0.6751677578968993 0.2499983650964597	-0.103998
C	0.6147244456558568 0.4497665940513076 0.2500004947957868	0.156731
C	0.6776177364806437 0.5138510370023049 0.2500003899359203	-0.099456
C	0.8807642749138244 0.7088942399203645 0.2499985101533546	0.167371
C	0.7123079091782224 0.5471302918339800 0.2499994266789508	0.123711
C	0.7819856367168012 0.6127790430364995 0.2499976079693985	0.139745
C	0.8166708248346307 0.6460924660066176 0.2499974580360906	-0.103984
C	0.6480883215087024 0.4845402196429338 0.2499989913435779	-0.106203
C	0.3465548952181209 0.8253781623475785 0.7499982457846649	-0.101836
C	0.1146651030541061 0.0507694903855211 0.7499967774012261	0.162273
C	0.1773708765720094 0.9864474447637472 0.7499979295838207	-0.099518
C	0.3810787392876016 0.7917878246108676 0.7499983352279829	0.164499
C	0.2120179834807851 0.9530843030472380 0.7499985229184081	0.126729
C	0.2817709559221765 0.8874063024610673 0.7499992939133086	0.140747
C	0.3166167036978191 0.8542539854693749 0.7499983139311980	-0.105115
C	0.1479307585767307 0.0158735754917849 0.7499957585894232	-0.107381
C	0.8462158046944813 0.3250000736895083 0.7499978213483002	-0.102831
C	0.6148691464228498 0.5509292486115397 0.7499998707279554	0.162365
C	0.6776392966101115 0.4867023590558377 0.7499983350423616	-0.095861
C	0.8805925074756167 0.2912521148238464 0.7499982804592590	0.166124
C	0.7121605994175200 0.4532023834934677 0.7499983147873068	0.127165
C	0.7817552031667704 0.3873761912320609 0.7500021514418256	0.140057
C	0.8164543169553765 0.3540618764665392 0.7499993568285523	-0.104287
C	0.6482958612534679 0.5162182032249520 0.7499998293266665	-0.106760
C	0.6532787350964681 0.1753839663078494 0.2499992862888676	-0.106643
C	0.8845835130403482 0.9493554557280708 0.2500008403665817	0.156913
C	0.8219709714009783 0.0137674223539768 0.2499986176225499	-0.103887
C	0.6187800755978019 0.2089796297317367 0.2500006644223829	0.169728
C	0.7874555650362006 0.0472644101195121 0.2499980225118250	0.128041
C	0.7178711475098879 0.1131228626082841 0.2499981302370593	0.138465
C	0.6831282902563532 0.1464126490089150 0.2499984466264012	-0.100284
C	0.8512891713614213 0.9842246398518385 0.2499998672412433	-0.099253
C	0.1530466417384853 0.6750991377408574 0.2500004086964489	-0.105279
C	0.3851087001402415 0.4498793258029462 0.2500015617844991	0.157063
C	0.3221831471373787 0.5139840526619214 0.2499995448588243	-0.103794
C	0.1186796921333682 0.7088375072632677 0.2500009641398889	0.169213
C	0.2875037834328605 0.5473096053215839 0.2499986055282672	0.126829
C	0.2177519243927395 0.6129756770383895 0.2500028086386781	0.139856
C	0.1829142975391008 0.6461537835648780 0.2500010028188211	-0.101496
C	0.3516931969047751 0.4846360635986737 0.2500010670264148	-0.102553
H	0.9481976090582505 0.1173391774001551 0.0125857738408395	0.103132
H	0.8899565126806392 0.0558499454571039 0.0234506105201527	0.118843
H	0.7839139695222557 0.9491392267527912 0.0225195671151564	0.106123
H	0.7220943986270099 0.8909528951522161 0.0222765120415750	0.114899
H	0.5538547392393430 0.7264055430528906 0.0125334571023510	0.102602
H	0.6135152333246511 0.7861713992104619 0.0232428716423469	0.124006
H	0.4489376327797638 0.6174156191024363 0.0113922329199056	0.096889
H	0.3902446149458844 0.5556953026492483 0.0233945283532046	0.119893
H	0.2838699627614951 0.4491419252259681 0.0225329800988964	0.106552
H	0.2221216066291793 0.3909556949301442 0.0222891502820505	0.114483
H	0.0537213174081108 0.2256732598921556 0.0113178320752555	0.095626
H	0.1136826959899104 0.2858133211675823 0.0231914942491268	0.124850
H	0.0526943158052604 0.8809252969561107 0.5113389914748018	0.096882
H	0.1100575608160776 0.9439960776381110 0.5234009730282680	0.120049
H	0.2161720392370697 0.0508223276794849 0.5225418777516320	0.106206
H	0.2779272761254555 0.1089806970798619 0.5222990470783065	0.114683
H	0.4478670166899295 0.2726726664110965 0.5112931980352079	0.096573
H	0.3866807169881408 0.2138188682322255 0.5231885720870209	0.125034
H	0.5528711918257792 0.3815918270292479 0.5125354619435873	0.102617
H	0.6098618627740445 0.4443754989875436 0.5234389464254275	0.118080
H	0.7161502047801159 0.5508111830462470 0.5225350581784041	0.105821
H	0.7780054381196124 0.6089421646942906 0.5222706541299071	0.114914
H	0.9471691944706961 0.7725437359499127 0.5124758325064950	0.101919
H	0.8863380645217512 0.7139872429827347 0.5232187675375959	0.123685
H	0.0525570477722196 0.1192100984402384 0.4886303411468211	0.097176
H	0.1099232730762621 0.0561109258221554 0.4766339940964962	0.119889
H	0.2158837985702408 0.9493781765350160 0.4774891745646638	0.106623
H	0.2776736545918970 0.8912228264082925 0.4776859740594091	0.114856
H	0.4460253513859737 0.7265459004734078 0.4875062880212347	0.102013
H	0.3863895132799565 0.7862962223643871 0.4767304559186175	0.123397
H	0.5509886671107104 0.6175755359586077 0.4885652192820376	0.100628
H	0.6096665414170396 0.5558076918173329 0.4766468971372686	0.120132
H	0.7159061249915218 0.4493992844206450 0.4774894011621876	0.107311
H	0.7777090636144441 0.3912353572045776 0.4776832517810017	0.114546
H	0.9470454437051975 0.2275965618454051 0.4875450494201811	0.101386
H	0.8862097062514279 0.2861132167879075 0.4767557590990731	0.123349
H	0.9480798518122037 0.8827900009938565 0.9874407124997060	0.104075
H	0.8898371455100781 0.9442450899927414 0.9765173750970569	0.118480
H	0.7836339361431951 0.0510485598994136 0.9774248874236345	0.106158
H	0.7218434705804067 0.1092327344501933 0.9777535490182885	0.115578
H	0.5520350329684935 0.2728264802852175 0.9886821765873467	0.096099
H	0.6132314058555666 0.2139508729050970 0.9768431957526486	0.125116
H	0.4470325276394320 0.3817305498381198 0.9874969604320120	0.103399
H	0.3900438276519199 0.4444803628771888 0.9765305284902888	0.117767
H	0.2836392428211537 0.5510653134795630 0.9774241698415022	0.105379
H	0.2218290873217843 0.6092120109863868 0.9777684102865108	0.115850
H	0.0536020121626799 0.7744445853340522 0.9886631834242291	0.096017
H	0.1135651779808291 0.7142780109607159 0.9768414944026644	0.124807
H	0.0526943643831521 0.8809247465099718 0.9886592442868646	0.096877
H	0.1100568068230772 0.9439951132316471 0.9765948595210369	0.120041
H	0.2161721203398331 0.0508226655578031 0.9774559394730757	0.106234
H	0.2779273757384906 0.1089811110334156 0.9776978913339199	0.114735
H	0.4478670284664368 0.2726731131728448 0.9887065523050387	0.096529
H	0.3866807510841503 0.2138190194996049 0.9768115724562463	0.125069
H	0.5528709216458810 0.3815917882671137 0.9874668920278556	0.102641
H	0.6098616344217680 0.4443752276178366 0.9765615077691558	0.118079
H	0.7161504318698837 0.5508112257003880 0.9774627291289439	0.105848
H	0.7780055290199843 0.6089421807622801 0.9777248042532900	0.114894
H	0.9471697525257996 0.7725430573403185 0.9875193922783929	0.101947
H	0.8863384718760317 0.7139870022982260 0.9767794287058018	0.123684
H	0.9481972088108317 0.1173405060687968 0.4874195495229158	0.103093
H	0.8899563101021702 0.0558519575153266 0.4765510106382510	0.118840
H	0.7839132751722309 0.9491392905989958 0.4774786183135326	0.106141
H	0.7220939712351477 0.8909527471837317 0.4777228960047999	0.114912
H	0.5538536613427326 0.7264059186638469 0.4874754519576385	0.102602
H	0.6135147441567604 0.7861714743981245 0.4767624444023585	0.123976
H	0.4489380443994719 0.6174154832314748 0.4886092039905248	0.097170
H	0.3902447606748304 0.5556955225499456 0.4766087578200345	0.119906
H	0.2838702074714858 0.4491420438916942 0.4774634967321005	0.106535
H	0.2221217815615691 0.3909557817224485 0.4777084573243333	0.114528
H	0.0537212949733447 0.2256732325984996 0.4886903127133391	0.095677
H	0.1136824245579754 0.2858129818333159 0.4768127721257648	0.124768
H	0.9480800190194243 0.8827902582297252 0.5125635969577776	0.104070
H	0.8898371674527575 0.9442458259067302 0.5234866571702776	0.118493
H	0.7836342350618507 0.0510483140403098 0.5225712929691373	0.106171
H	0.7218438422716631 0.1092324465642961 0.5222426599819422	0.115596
H	0.5520358620401126 0.2728261068117711 0.5113216709757300	0.096144
H	0.6132326213354174 0.2139504941453631 0.5231571888239954	0.125100
H	0.4470327775908201 0.3817302285558078 0.5125067571520547	0.103423
H	0.3900439196506407 0.4444802945309128 0.5234720562145078	0.117766
H	0.2836401724567982 0.5510646854842888 0.5225734403494462	0.105373
H	0.2218299363647633 0.6092111707468789 0.5222342234968880	0.115857
H	0.0536021523419858 0.7744439293454034 0.5113404884849760	0.096041
H	0.1135657795473076 0.7142768729255812 0.5231611417074407	0.124793
H	0.0525574672661182 0.1192088654885070 0.0113682712469200	0.097200
H	0.1099243585111629 0.0561097623146263 0.0233599063924100	0.119855
H	0.2158835493802172 0.9493771559133360 0.0225078205166694	0.106653
H	0.2776734071889241 0.8912218764397730 0.0223107172554744	0.114851
H	0.4460256829676322 0.7265457381978666 0.0124925270833853	0.101993
H	0.3863899551305459 0.7862960953341062 0.0232670233978612	0.123386
H	0.5509889000032789 0.6175743601286203 0.0114385472720826	0.100615
H	0.6096667997393939 0.5558060404005605 0.0233536614783284	0.120131
H	0.7159068335546089 0.4493992878409201 0.0225056593300649	0.107328
H	0.7777090379641145 0.3912353868483398 0.0223168520910572	0.114487
H	0.9470450841245349 0.2275951582362186 0.0124496246141547	0.101132
H	0.8862096287797312 0.2861121991616777 0.0232402745971572	0.123335
Ni	0.4999458440365842 0.6731619900606093 0.7500052807289179	0.768755
Ni	-0.0002960429350205 0.1729774777520332 0.7500072544366845	0.767044
Ni	0.4999522885294581 0.3273589026697079 0.2500025949245588	0.767092
Ni	-0.0002899666192566 0.8271665064116787 0.2500047175738919	0.767437
Al	0.4999457340405456 0.6713402453979868 0.2500057218194496	1.658928
Al	0.0017583634499339 0.1733371797853363 0.2500000191875001	1.659914
Al	0.4998945208785793 0.3250081275510817 0.7499936321283985	1.659075
Al	0.0017569257635723 0.8267260137975621 0.7500098756250795	1.658809
F	0.4999263237214310 0.6116072029208447 0.2500069838625497	-0.623133
F	0.9747353099506838 0.2263027138023063 0.2500018798610818	-0.609582
F	0.9742983031296421 0.1206417039048299 0.2499757679963926	-0.606213
F	0.4997728963014821 0.2653183833130092 0.7499808321286292	-0.625658
F	0.9748219365424127 0.7737074134394218 0.7500153870994127	-0.609026
F	0.9742183418465739 0.8793872576944501 0.7500046534687846	-0.606676
F	0.5513041416154686 0.6991943445705916 0.2499974006014764	-0.607965
F	0.0596920479829038 0.1731078016912347 0.2499902113190088	-0.625133
F	0.4486208654295632 0.3530754178310500 0.7500009002258002	-0.609145
F	0.4486364960492408 0.6993766888775805 0.2500077687560561	-0.608254
F	0.5511687122387929 0.3529903725919740 0.7500069230479008	-0.607774
F	0.0596752940755631 0.8270664862140358 0.7500087551684910	-0.624682
F	0.4998900651183766 0.6729214041414689 0.4868116847702634	-0.585156
F	0.0002325694767464 0.1731984326165629 0.4868962139371452	-0.584720
F	0.4998819025408087 0.3267227147535293 0.9869074525358627	-0.584471
F	0.0002339551845317 0.8269277264728702 0.9869482990019954	-0.584544
F	0.4998919185016621 0.6729218939839031 0.0131875895314942	-0.585022
F	0.0002337005878294 0.1732013284964784 0.0130997664659331	-0.584616
F	0.4998818710060683 0.3267249623385572 0.5130924435806017	-0.584468
F	0.0002332695106200 0.8269281063173474 0.5130646980470609	-0.584540
N	0.5505708544561311 0.7243785164855290 0.7500038040600184	-0.235027
N	0.9500467075591426 0.1206929841218302 0.7500018125175634	-0.235823
N	0.0506658660398448 0.2239900963947595 0.7500041534979123	-0.229783
N	0.4504284628625355 0.6205692753884841 0.7500011484526722	-0.231128
N	0.4496502140538269 0.2756947967216701 0.2499995481247948	-0.233490
N	0.0499033627008140 0.8791032376764175 0.2499998976344052	-0.229704
N	0.9492365846317257 0.7758388198130899 0.2499981354062561	-0.234116
N	0.5498140469289098 0.3794813508022633 0.2500020730880541	-0.233997
N	0.4492814018389518 0.7244817978137678 0.7499993799020627	-0.233189
N	0.0497926094066366 0.1210604122541393 0.7499995851069056	-0.230896
N	0.9491353366976560 0.2243153043534993 0.7499977344255925	-0.233907
N	0.5494578477148623 0.6206912656062640 0.7500031295919317	-0.230503
N	0.5502167685044340 0.2758070758161747 0.2500017863670222	-0.232765
N	0.9499537532056610 0.8794641560701588 0.2500033239347963	-0.234403
N	0.0505759723667391 0.7761519328514528 0.2500025508490825	-0.230895
N	0.4500602347247168 0.3795856345863138 0.2500016535989388	-0.232221
	  	
