#======================================================================

# CRYSTAL DATA

#----------------------------------------------------------------------

data_VESTA_phase_1


_pd_phase_name                         ALFFIVE_5_Cd_i
_cell_length_a                         20.33146
_cell_length_b                         20.33147
_cell_length_c                         16.03012
_cell_angle_alpha                      89.99986
_cell_angle_beta                       90.00007
_cell_angle_gamma                      89.97575
_symmetry_space_group_name_H-M         P 1
_symmetry_Int_Tables_number            1

loop_
_symmetry_equiv_pos_as_xyz
   x, y, z

loop_
   _atom_site_label
   _atom_site_fract_x
   _atom_site_fract_y
   _atom_site_fract_z
   _atom_site_charge
F	0.2850117609439819 0.1698350444208269 0.3512557538129457	-0.657634
F	0.1662551038280522 0.2608201550706571 0.3504247073473051	-0.668143
F	0.3056954216275619 0.3161647223730418 0.3499841887445225	-0.665906
F	0.6838375624035800 0.6943032128471252 0.1499874211285738	-0.665942
F	0.7391727476452671 0.8337370195638583 0.1495768738801330	-0.668194
F	0.8301865000601774 0.7150111614766266 0.1487596011078997	-0.657696
F	0.6662523218500416 0.7608357860856844 0.6495829168750986	-0.668110
F	0.7849686147240442 0.6698203821529266 0.6487636567021609	-0.657622
F	0.8057083065835732 0.8161516415812308 0.6500033155521530	-0.665848
F	0.1838307477247108 0.1943009561255311 0.8500024355095297	-0.665940
F	0.3301738920828114 0.2150084319563341 0.8512469204296459	-0.657743
F	0.2391434515782621 0.3337380644944139 0.8504089996386447	-0.668214
F	0.2503556521252497 0.2499489198499951 0.4633306761649570	-0.599265
F	0.2505801973576698 0.2487897379811744 0.2376060823633183	-0.599553
F	0.7500687747050543 0.7496404619372515 0.0366683913877134	-0.599367
F	0.7512019276971338 0.7493999868129120 0.2623982590952606	-0.599616
F	0.7503463568293117 0.7499485863201497 0.5366726553273135	-0.599278
F	0.7505723163346898 0.7487991917941816 0.7624058446013158	-0.599499
F	0.2500545998780441 0.2496477820257087 0.9633288422172395	-0.599360
F	0.2511987284753735 0.2494117787696713 0.7375988133186622	-0.599616
N	0.3650441575660505 0.2475804702603840 0.6008150340108364	-0.238710
N	0.1350067508554686 0.2533442915165148 0.6012027317306324	-0.239451
N	0.2524786751349988 0.3650222029022259 0.6013010338176300	-0.238873
N	0.2466691123681895 0.1350045922832812 0.6014827199755011	-0.240946
N	0.6349785901916644 0.7475202005626925 0.8987003943697832	-0.238907
N	0.8649957625704523 0.7533302363528770 0.8985149048955248	-0.241012
N	0.7466556117931418 0.8649934077396173 0.8987966381779208	-0.239446
N	0.7524196508479722 0.6349555642803275 0.8991858410551495	-0.238655
N	0.6350075248805207 0.7533442522881330 0.3987963226723423	-0.239493
N	0.8650437829874628 0.7475804245198854 0.3991850116049019	-0.238730
N	0.7466686866160970 0.6350053833303678 0.3985166513886074	-0.241034
N	0.7524781963065457 0.8650215203041560 0.3986982059261849	-0.238849
N	0.3649952914330962 0.2533310300551107 0.1014839701813247	-0.240972
N	0.1349789353519050 0.2475221286848700 0.1013009569221563	-0.238931
N	0.2524198183377755 0.1349556887109699 0.1008142517705639	-0.238695
N	0.2466563534800082 0.3649927677927256 0.1012044376824878	-0.239454
C	0.3971583134877885 0.2196008064501155 0.6650804491517158	0.098245
C	0.4654856309379138 0.2176865602148826 0.6686599144180135	-0.179325
C	0.5024778756386411 0.2472395613299886 0.6049524626700812	0.104154
C	0.4679647408584584 0.2767485937027227 0.5388080587599676	-0.185169
C	0.3995729071858012 0.2752655523401794 0.5384364862869448	0.099660
C	0.5749136617207756 0.2479334546831949 0.6080227276529645	0.054552
C	0.6102988335496589 0.1930033586666386 0.6367728485356559	-0.130298
C	0.6786409225167028 0.1937309799966851 0.6392268728166708	-0.125100
C	0.7138670278105411 0.2498186907279515 0.6143355679259250	0.067587
C	0.6785693761232827 0.3050998902731184 0.5868474555508112	-0.121125
C	0.6102613037936845 0.3039245078562499 0.5830311475500221	-0.125431
C	0.1028052486496357 0.2811241055324507 0.6654082260021236	0.104294
C	0.0345359387812307 0.2826155630214401 0.6694676467445750	-0.182896
C	-0.0024563870324295 0.2527860295844370 0.6058605333695437	0.107451
C	0.0320623403891516 0.2235588503150729 0.5396358358689926	-0.180952
C	0.1004271053734609 0.2255662651272657 0.5390163262817503	0.105881
C	0.9251151847772648 0.2520042141327978 0.6087568485877478	0.054154
C	0.8896949297940143 0.3070003721199860 0.6372031424170337	-0.130376
C	0.8213521577690718 0.3063342253443739 0.6393383627903514	-0.124582
C	0.7861812687233679 0.2502362283929457 0.6144030831486291	0.067111
C	0.8215100447242482 0.1949422719984295 0.5869759735230972	-0.119450
C	0.8898205272131736 0.1960540220011477 0.5834869356914518	-0.126230
C	0.2804364487399757 0.3972167371014629 0.6653672964406565	0.107020
C	0.2823955101977833 0.4655106050800638 0.6689905207004286	-0.180099
C	0.2528326416042113 0.5024899891275605 0.6052517223100365	0.106699
C	0.2233108371645078 0.4679642038958948 0.5391736858302160	-0.184772
C	0.2248215866054960 0.3996179227241605 0.5390450574476934	0.103165
C	0.2521179499194974 0.5749140966771038 0.6082042149524572	0.053984
C	0.3070516831408966 0.6102704301093348 0.6368657829208860	-0.129836
C	0.3063193912730245 0.6786056300489693 0.6392357333236590	-0.124773
C	0.2502048961343528 0.7138320967689388 0.6143161284324571	0.067452
C	0.1949320566959888 0.6785539954367374 0.5868468597312624	-0.120742
C	0.1961113946030504 0.6102511122708457 0.5831397558113069	-0.125040
C	0.2188797759242759 0.1028776978742517 0.6658505043221242	0.100136
C	0.2173737706223351 0.0345554705599684 0.6696368443137515	-0.183077
C	0.2471398018781097 -0.0024378873327617 0.6059433646604510	0.104491
C	0.2763677546620758 0.0320940371732533 0.5397406581974035	-0.182391
C	0.2744392820467025 0.1004937890115864 0.5390885086067002	0.099237
C	0.2479351390599492 0.9251141755628816 0.6087916676999764	0.055113
C	0.1929661062662213 0.8896982340993578 0.6372314478995380	-0.130752
C	0.1936538472890861 0.8213494808793111 0.6393282523523944	-0.125063
C	0.2497605495645066 0.7861488225450844 0.6143771986862950	0.067243
C	0.3050342862274797 0.8214619504416625 0.5869702738639009	-0.119921
C	0.3038949614817392 0.8897801937053893 0.5834996505349762	-0.126385
C	0.6027838515331778 0.7195632738673539 0.8346335820438151	0.106989
C	0.5344902092704000 0.7176051776821023 0.8310102884081062	-0.180056
C	0.4975105609361523 0.7471681853262666 0.8947484163188083	0.106743
C	0.5320349704811229 0.7766901492683056 0.9608265795381281	-0.184747
C	0.6003813880033746 0.7751777069169221 0.9609555084004905	0.103073
C	0.4250869248994333 0.7478828320567266 0.8917954071659427	0.053833
C	0.3897302807937601 0.6929492272944830 0.8631345640685099	-0.129673
C	0.3213948567919671 0.6936812566367793 0.8607649951798350	-0.124774
C	0.2861684978313705 0.7497953913533516 0.8856836412853322	0.067371
C	0.3214460857971937 0.8050682563992082 0.9131525786926511	-0.120754
C	0.3897491936990410 0.8038883583908980 0.9168607150369891	-0.124992
C	0.8971229268598364 0.7811197685857783 0.8341475461050111	0.100238
C	0.9654452857742043 0.7826261218980566 0.8303621979413170	-0.183072
C	0.0024385776236628 0.7528602737868232 0.8940560936057959	0.104550
C	0.9679064133238477 0.7236322222243705 0.9602583031693895	-0.182419
C	0.8995066231162284 0.7255604157404050 0.9609096885280389	0.099226
C	0.0748860775847835 0.7520652101589216 0.8912086590273657	0.055115
C	0.1103020659428876 0.8070343406414041 0.8627686356718735	-0.130776
C	0.1786507877394753 0.8063464060292207 0.8606715415315973	-0.125083
C	0.2138523693385617 0.7502397023327553 0.8856226250603736	0.067329
C	0.1785388098033884 0.6949663732236913 0.9130297878240828	-0.119996
C	0.1102200946893995 0.6961053264160409 0.9165002708925633	-0.126397
C	0.7188763785490291 0.8971952387104579 0.8345912119947289	0.104245
C	0.7173849127861630 0.9654642599747418 0.8305315016380099	-0.182931
C	0.7472143031497988 0.0024569663377489 0.8941387678525403	0.107603
C	0.7764411854482809 0.9679379807531749 0.9603634684826857	-0.181043
C	0.7744325489555307 0.8995730384703101 0.9609832897675542	0.105952
C	0.7479961805010530 0.0748854640668319 0.8912424035895087	0.054100
C	0.6929998670843442 0.1103053904675320 0.8627961475610645	-0.130332
C	0.6936660160867519 0.1786482009978025 0.8606610566554784	-0.124669
C	0.7497639643439106 0.2138191093600555 0.8855962221367031	0.067112
C	0.8050579771270030 0.1784903556905644 0.9130236306173667	-0.119445
C	0.8039460840351975 0.1101799865774352 0.9165136242904467	-0.126200
C	0.7803989376643053 0.6028419519663700 0.8349205046982895	0.098184
C	0.7823133009383608 0.5345147448331748 0.8313404902074429	-0.179233
C	0.7527606342060558 0.4975221238950918 0.8950478772862823	0.104131
C	0.7232515304719691 0.5320351950660108 0.9611924262066089	-0.185261
C	0.7247345655854511 0.6004270798490055 0.9615645199801779	0.099686
C	0.7520667222218861 0.4250863566209491 0.8919769998195727	0.054627
C	0.8069967410957281 0.3897015765616749 0.8632266875720275	-0.130243
C	0.8062691074595589 0.3213595209373487 0.8607725120617037	-0.125237
C	0.7501814776903514 0.2861333600665135 0.8856637215578436	0.067601
C	0.6949003506271533 0.3214308837408849 0.9131518384103740	-0.121085
C	0.6960756583347710 0.3897389017942635 0.9169682918953505	-0.125458
C	0.6028053653911652 0.7811236916521266 0.3345912759002144	0.104231
C	0.5345364316105470 0.7826153622456283 0.3305318743680117	-0.182852
C	0.4975436649809442 0.7527858886095062 0.3941392968538932	0.107476
C	0.5320626892332762 0.7235589634552628 0.4603637572948043	-0.180978
C	0.6004277729895141 0.7255673879369108 0.4609832485526585	0.106003
C	0.4251152740113260 0.7520042131459992 0.3912428243235548	0.054132
C	0.3896951559670623 0.8070003877564323 0.3627964285303522	-0.130386
C	0.3213523780794522 0.8063342383101988 0.3606611294775853	-0.124602
C	0.2861813551188953 0.7502362232488675 0.3855963561500385	0.067112
C	0.3215101816112151 0.6949422540089185 0.4130236920990078	-0.119465
C	0.3898206400302791 0.6960539860908349 0.4165128070441212	-0.126228
C	0.8971576485705208 0.7196009206994759 0.3349196326756709	0.098230
C	0.9654855360477997 0.7176864281358184 0.3313402050377706	-0.179219
C	0.0024776738585839 0.7472392778637182 0.3950470216622160	0.104106
C	0.9679645494665952 0.7767485164027755 0.4611916233983350	-0.185283
C	0.8995730089599994 0.7752653292503704 0.4615636455006352	0.099699
C	0.0749135786834825 0.7479333188840132 0.3919765324370262	0.054619
C	0.1102986679301492 0.6930032244209549 0.3632265090217610	-0.130331
C	0.1786408610481180 0.6937310627650192 0.3607725481430228	-0.125096
C	0.2138671252202383 0.7498187073224327 0.3856637962384379	0.067593
C	0.1785694567103897 0.8050997621279014 0.4131518824324237	-0.121091
C	0.1102612565539208 0.8039243571181880 0.4169681623912685	-0.125429
C	0.7188796423128376 0.6028782248374739 0.3341489363491005	0.100152
C	0.7173740978365414 0.5345557209921679 0.3303625983582101	-0.183017
C	0.7471400829653678 0.4975623194797971 0.3940561951126317	0.104495
C	0.7763680691786562 0.5320944453315265 0.4602585307228167	-0.182405
C	0.7744391543839126 0.6004941262419502 0.4609105846174353	0.099306
C	0.7479352078167918 0.4251145440992707 0.3912084031284650	0.055120
C	0.6929660383863600 0.3896984196611014 0.3627683684273103	-0.130717
C	0.6936539269606879 0.3213497158263017 0.3606714434605481	-0.125094
C	0.7497606062645589 0.2861484256150962 0.3856225615956921	0.067229
C	0.8050339168104537 0.3214616665833943 0.4130297503386842	-0.119903
C	0.8038950701337810 0.3897803357216824 0.4165001596166195	-0.126421
C	0.7804361811216989 0.8972167853552933 0.3346313142687186	0.106996
C	0.7823953940180315 0.9655096963655372 0.3310091957126535	-0.180098
C	0.7528321525591937 0.0024900249605279 0.3947486217654165	0.106687
C	0.7233102448182782 0.9679656045537088 0.4608257552570510	-0.184851
C	0.7248216676382029 0.8996183996691276 0.4609534073977681	0.103171
C	0.7521177563300806 0.0749136304872152 0.3917955632119230	0.053941
C	0.8070516540013072 0.1102703041948478 0.3631345191818422	-0.129720
C	0.8063192228879636 0.1786057450868010 0.3607650384724936	-0.124824
C	0.7502050188434406 0.2138320895678966 0.3856838402661364	0.067466
C	0.6949320837847620 0.1785539368671668 0.4131526731027277	-0.120714
C	0.6961116635031135 0.1102508414328226 0.4168599760719496	-0.125027
C	0.3971223733157597 0.2811203559375001 0.1658513904454183	0.100146
C	0.4654447887578054 0.2826263674730839 0.1696372300516924	-0.183066
C	0.5024380577950098 0.2528603471905176 0.1059437501810449	0.104532
C	0.4679056814245175 0.2236325933049497 0.0397411149437881	-0.182413
C	0.3995060133102547 0.2255611501356427 0.0390893530496418	0.099252
C	0.5748859087887536 0.2520650319077963 0.1087919035987816	0.055069
C	0.6103017264023853 0.3070339914756444 0.1372314709020073	-0.130742
C	0.6786506498940965 0.3063461406287510 0.1393280999613657	-0.125085
C	0.7138520513620306 0.2502396960056888 0.1143772037715888	0.067292
C	0.6785382200406922 0.1949661588402728 0.0869703705729702	-0.120017
C	0.6102197706196822 0.1961053269363513 0.0834998011038110	-0.126328
C	0.1027830825916856 0.2195640060976719 0.1653682159968591	0.107030
C	0.0344901854683975 0.2176049962702797 0.1689902399826168	-0.180086
C	-0.0024899466607433 0.2471683114512108 0.1052508671557346	0.106802
C	0.0320338699718493 0.2766900977565118 0.0391737009193044	-0.184829
C	0.1003814557793077 0.2751785508712256 0.0390460812172692	0.103227
C	0.9250868775275415 0.2478825430114995 0.1082041230134349	0.053822
C	0.8897297351538251 0.1929490007288439 0.1368655715686272	-0.129690
C	0.8213940065084874 0.1936811447148296 0.1392356837763591	-0.124742
C	0.7861680199849890 0.2497954332056410 0.1143162958616638	0.067387
C	0.8214457191156744 0.3050680555074547 0.0868470420168279	-0.120770
C	0.8897489135648716 0.3038879806523080 0.0831390131930085	-0.124945
C	0.2803989872329714 0.1028416878336137 0.1650799193169143	0.098159
C	0.2823132089142631 0.0345142696315580 0.1686595185744645	-0.179224
C	0.2527607388244169 -0.0024781282573600 0.1049520279352570	0.104109
C	0.2232518715276066 0.0320355189980581 0.0388072282390320	-0.185242
C	0.2247351535906445 0.1004273010876730 0.0384354044765985	0.099739
C	0.2520668026586563 0.9250861351000975 0.1080226706748422	0.054576
C	0.3069970419642465 0.8897014192789466 0.1367729514900332	-0.130347
C	0.3062692021608525 0.8213593404744038 0.1392270052756768	-0.125040
C	0.2501815779264933 0.7861330709976431 0.1143357150013905	0.067624
C	0.1949004028328379 0.8214307302978724 0.0868476030775369	-0.121209
C	0.1960757276222459 0.8897388049372046 0.0830312458958540	-0.125361
C	0.2188768149631638 0.3971950826352869 0.1654089473078318	0.104256
C	0.2173848070220600 0.4654639868285780 0.1694678326469492	-0.183009
C	0.2472142136454238 0.5024565872652762 0.1058601153768695	0.107558
C	0.2764409502805899 0.4679374577926996 0.0396358740374070	-0.180980
C	0.2744327596772118 0.3995723167976002 0.0390170836367433	0.105986
C	0.2479959715574294 0.5748850758160430 0.1087564823478298	0.054136
C	0.1929998266318841 0.6103051213216543 0.1372029366616266	-0.130385
C	0.1936660748144753 0.6786478633392290 0.1393383260706369	-0.124572
C	0.2497640764343926 0.7138187768932268 0.1144031127816895	0.067093
C	0.3050579701405048 0.6784900399996666 0.0869758972340622	-0.119415
C	0.3039462411535627 0.6101795984357523 0.0834866298226589	-0.126207
H	0.3668396768412536 0.2003211607913537 0.7159233879139636	0.106583
H	0.4895329207381893 0.1951459951390001 0.7223283098706049	0.113934
H	0.4942137781038290 0.2996544303136752 0.4870249328990855	0.112904
H	0.3708152102105908 0.2959671700458322 0.4869987704833691	0.103006
H	0.5836612232681384 0.1489738755102488 0.6560527865608465	0.099166
H	0.7054226865475225 0.1508128245828738 0.6619442785168638	0.101087
H	0.7052456376370203 0.3486545423525777 0.5660391818578575	0.102729
H	0.5836909873401492 0.3473212739987867 0.5614608516233059	0.102730
H	0.1335324530756313 0.3016868949521178 0.7148743678310324	0.099052
H	0.0103598493987251 0.3052152631458138 0.7230336110306207	0.112662
H	0.0058908208361185 0.2008569502231826 0.4876975366249739	0.113404
H	0.1290742280829596 0.2061032163408239 0.4868973018076823	0.102841
H	0.9163068496151838 0.3510794418522887 0.6563367874991459	0.099249
H	0.7945699760292809 0.3493352879214592 0.6617675964455449	0.101932
H	0.7948480697069811 0.1514419866101202 0.5659410480307275	0.102562
H	0.9164186041879643 0.1526745254547499 0.5619322494353355	0.103518
H	0.2997939283544045 0.3667015306420096 0.7157858396851430	0.102176
H	0.3048227078777984 0.4896029550515550 0.7226711741601622	0.114357
H	0.2004941828979946 0.4941904231525505 0.4873146117675462	0.112815
H	0.2041058691166478 0.3707260516248668 0.4879418416759226	0.099699
H	0.3510970541852910 0.5836094459037381 0.6561045628824300	0.098664
H	0.3492393551151451 0.7053679558311655 0.6618764867521982	0.101589
H	0.1513706080316662 0.7052325983959564 0.5659949072017654	0.102802
H	0.1527275988114884 0.5836832243097665 0.5616397255426520	0.102736
H	0.1986002854315703 0.1334283460624330 0.7159076632343769	0.104257
H	0.1947291861514271 0.0103843587452809 0.7231608107667855	0.113075
H	0.2991820452677507 0.0059433112710476 0.4878274478582195	0.113452
H	0.2940290891400072 0.1289961255941338 0.4867297442058415	0.106495
H	0.1488884666186281 0.9163188340063230 0.6564479920679314	0.099701
H	0.1506795440033525 0.7945624519340456 0.6617738126000249	0.101424
H	0.3485482445765713 0.7947806708438603 0.5659328548484006	0.102512
H	0.3472642306557157 0.9163545095940769 0.5619198394532798	0.103372
H	0.6332991358087560 0.7002065650819412 0.7842151813086787	0.102207
H	0.5103981400283328 0.6951780293285129 0.7773278886851057	0.114335
H	0.5058099536300293 0.7995068074688791 0.0126855613314153	0.112879
H	0.6292741523294449 0.7958934481382810 0.0120600872084439	0.099730
H	0.4163915217070350 0.6489032140487958 0.8438947813040978	0.098567
H	0.2946332720519560 0.6507609963791124 0.8381236313935385	0.101610
H	0.2947677740607470 0.8486299060862371 0.9340047387450422	0.102810
H	0.4163169085999447 0.8472731028088926 0.9383599109398614	0.102699
H	0.8665723908547986 0.8013993179975990 0.7840896864396144	0.104199
H	0.9896162290487290 0.8052713755626942 0.7768384304023748	0.113046
H	0.9940566645289010 0.7008184336212523 0.0121722824252935	0.113461
H	0.8710039959615249 0.7059712993338998 0.0132686655355059	0.106550
H	0.0836816381791589 0.8511118688238306 0.8435518416855118	0.099695
H	0.2054378617047976 0.8493210204479147 0.8382260126950984	0.101426
H	0.2052198369248623 0.6514515914522624 0.9340670501239857	0.102544
H	0.0836460301020650 0.6527359411397797 0.9380807282172814	0.103394
H	0.6983141509612225 0.8664676567565380 0.7851255541194744	0.099067
H	0.6947851234184689 0.9896407282766508 0.7769656590930758	0.112610
H	0.7991433379306532 0.9941099061717252 0.0123017517020388	0.113415
H	0.7938971300502256 0.8709261963487739 0.0131024145699706	0.102835
H	0.6489207941042722 0.0836934439851493 0.8436627772744321	0.099260
H	0.6506648416098394 0.2054305387926240 0.8382321579198219	0.101992
H	0.8485580538163254 0.2051523561125480 0.9340588371632391	0.102548
H	0.8473257765435134 0.0835816326235735 0.9380673144788930	0.103504
H	0.7996786788386656 0.6331605332750954 0.7840777301576988	0.106594
H	0.8048537213485478 0.5104677095720325 0.7776717736199315	0.113922
H	0.7003455071027378 0.5057856455752028 0.0129752441608583	0.112884
H	0.7040328754237091 0.6291849036293218 0.0130019813416396	0.103003
H	0.8510261455761875 0.4163392941009620 0.8439468988831988	0.099166
H	0.8491872017750085 0.2945776138471334 0.8380553825169779	0.101095
H	0.6513459219919833 0.2947544057257442 0.9339602851599493	0.102734
H	0.6526790392385374 0.4163092848652804 0.9385386807178628	0.102695
H	0.6335324541361119 0.8016861849132971 0.2851251978847268	0.099055
H	0.5103599935571617 0.8052150753285199 0.2769660195106770	0.112614
H	0.5058909482039634 0.7008570231802943 0.5123026216067348	0.113407
H	0.6290742973611896 0.7061028883119426 0.5131022700537060	0.102818
H	0.4163070334501744 0.8510795268392453 0.3436628559816988	0.099250
H	0.2945702143874524 0.8493355055888224 0.3382319814901334	0.101970
H	0.2948482494351609 0.6514419706169565 0.4340589464000072	0.102571
H	0.4164186725060990 0.6526744064298318 0.4380676453660815	0.103525
H	0.8668395628409683 0.7003210242146525 0.2840758470781003	0.106583
H	0.9895323747419582 0.6951462788409405 0.2776714847613229	0.113952
H	0.9942139456156522 0.7996545017915752 0.5129746800012103	0.112949
H	0.8708151012011479 0.7959667486989990 0.5130012086713502	0.102979
H	0.0836612057618130 0.6489736545582978 0.3439471001856284	0.099157
H	0.2054226906786072 0.6508128618600186 0.3380553016567120	0.101088
H	0.2052457334366877 0.8486544113488274 0.4339603860398962	0.102721
H	0.0836910795678335 0.8473212203484536 0.4385385833889329	0.102694
H	0.6986000718215846 0.6334290633709376 0.2840911974100662	0.104237
H	0.6947294630809838 0.5103849242550854 0.2768385074741085	0.113060
H	0.7991823237570065 0.5059437878918259 0.5121719135796029	0.113473
H	0.7940284339470224 0.6289963759041656 0.5132691720916002	0.106486
H	0.6488885291626729 0.4163191050336887 0.3435515847500132	0.099689
H	0.6506794447200813 0.2945627235798182 0.3382260858646871	0.101424
H	0.8485484263199857 0.2947805506108301 0.4340671018103762	0.102514
H	0.8472643857411674 0.4163545389537808 0.4380806231135888	0.103386
H	0.7997929753743596 0.8667023009700673 0.2842131781335367	0.102174
H	0.8048231412361567 0.9896030437343037 0.2773277884583535	0.114331
H	0.7004943003234462 0.9941899049973607 0.5126848213016596	0.112911
H	0.7041056311273980 0.8707250679377799 0.5120577604840184	0.099728
H	0.8510973757569690 0.0836091751105681 0.3438948952530716	0.098612
H	0.8492391674892376 0.2053675517794666 0.3381235180202421	0.101598
H	0.6513706011427560 0.2052325080516737 0.4340045050385165	0.102799
H	0.6527274492394814 0.0836831496805809 0.4383600990788496	0.102714
H	0.3665720929988482 0.3014000217981194 0.2159094173076555	0.104243
H	0.4896156119429804 0.3052710806378591 0.2231612249672316	0.113054
H	0.4940564393803488 0.2008184498852542 0.9878276030083716	0.113471
H	0.3710036066606318 0.2059722879356493 0.9867306198093826	0.106504
H	0.5836814174287916 0.3511117712206665 0.1564480705565822	0.099696
H	0.7054375186205103 0.3493207259059374 0.1617736526424981	0.101451
H	0.7052194291587089 0.1514519261718324 0.0659326934533006	0.102539
H	0.5836458329529092 0.1527359360668067 0.0619199266640132	0.103375
H	0.1332987554610087 0.2002075287326334 0.2157861516285665	0.102163
H	0.0103974335408192 0.1951771579396431 0.2226722371369781	0.114309
H	0.0058098827315432 0.2995062551578169 0.9873142706520522	0.112876
H	0.1292747852492678 0.2958944355745063 0.9879404493164490	0.099719
H	0.9163910559440991 0.1489029081083670 0.1561047937802982	0.098571
H	0.7946325228906810 0.1507606976283795 0.1618764104816094	0.101586
H	0.7947677842183393 0.3486299011149597 0.0659947558930557	0.102810
H	0.9163170232804325 0.3472730070500325 0.0616397311915314	0.102702
H	0.2996794345380626 0.1331602793823145 0.2159225986834023	0.106606
H	0.3048538953151838 0.0104670942631017 0.2223282474669894	0.113933
H	0.2003457627850181 0.0057857987072547 0.9870245882338810	0.112897
H	0.2040336127972003 0.1291851747825585 0.9869980854923828	0.102989
H	0.3510264710053420 0.9163390924261527 0.1560523078987351	0.099164
H	0.3491872786632131 0.7945773437241220 0.1619442043866360	0.101075
H	0.1513458976147501 0.7947542836207993 0.0660392147588453	0.102743
H	0.1526790016469288 0.9163091822146368 0.0614609339007592	0.102681
H	0.1983143099663604 0.3664679164657518 0.2148748402874528	0.099079
H	0.1947850492444043 0.4896406192627787 0.2230335098264757	0.112651
H	0.2991428207936405 0.4941091560443964 0.9876969405290268	0.113396
H	0.2938977880308880 0.3709251849713626 0.9868984361900265	0.102834
H	0.1489207404962710 0.5836931064117846 0.1563364646622075	0.099262
H	0.1506650996447916 0.7054301750387337 0.1617675177913254	0.101945
H	0.3485581617504472 0.7051521850793846 0.0659410817598970	0.102545
H	0.3473256907568082 0.5835814547673365 0.0619319457380307	0.103480
Cd	0.2501368552575435 0.2498550329224532 0.6001817468474574	0.830034
Cd	0.7501456396554077 0.7498629008293463 0.8998189673406156	0.830093
Cd	0.7501378754825291 0.7498556218573230 0.3998198747823703	0.830021
Cd	0.2501454801599556 0.2498627308369396 0.1001860966530794	0.830026
Al	0.2516190659580922 0.2492713517736294 0.3505384522679023	1.698137
Al	0.7507343701887309 0.7483784065359883 0.1494634563402245	1.698398
Al	0.7516155353528378 0.7492706198294424 0.6494682012116036	1.697986
Al	0.2507260740265503 0.2483762442605439 0.8505417059873338	1.698445
	  	
