#======================================================================

# CRYSTAL DATA

#----------------------------------------------------------------------

data_VESTA_phase_1


_pd_phase_name                         ALFFIVE_2_Cd_i
_cell_length_a                         14.31890
_cell_length_b                         14.31878
_cell_length_c                         8.17601
_cell_angle_alpha                      89.99995
_cell_angle_beta                       90.00014
_cell_angle_gamma                      89.80915
_symmetry_space_group_name_H-M         P 1
_symmetry_Int_Tables_number            1

loop_
_symmetry_equiv_pos_as_xyz
   x, y, z

loop_
   _atom_site_label
   _atom_site_fract_x
   _atom_site_fract_y
   _atom_site_fract_z
   _atom_site_charge
C	0.0000397279485389 0.3086511957468748 0.3519188776648350	-0.160118
C	-0.0004000715675958 0.2116278337009478 0.3574231510912351	0.095767
C	0.5000461580589562 0.8086710000355863 0.8519369754773222	-0.159902
C	0.4995976589379333 0.7116512986670402 0.8574299079286211	0.095431
C	-0.0001606669998224 0.6919939315607534 0.3518926636954944	-0.162051
C	-0.0006951088282075 0.7889899566539271 0.3577237769212592	0.103628
C	0.4998264928403028 0.1919964949385422 0.8519114581468378	-0.161912
C	0.4992821532519333 0.2889898414158054 0.8577345591478720	0.103430
C	0.6919938886037824 -0.0001604602784726 0.3518937496335985	-0.162067
C	0.7889895399176645 -0.0006947890360943 0.3577245337244110	0.103601
C	0.1919954421334363 0.4998254879016364 0.8519113820429413	-0.161942
C	0.2889882225480816 0.4992813597578340 0.8577358078854925	0.103349
C	0.3086505714761221 0.0000413040708147 0.3519194852873331	-0.160130
C	0.2116279015471804 -0.0003993788857670 0.3574235991353026	0.095715
C	0.8086691116588566 0.5000448506997281 0.8519367341473404	-0.159839
C	0.7116495189660118 0.4995976105779374 0.8574314222595898	0.095382
C	0.0000397730209879 0.3086506347673241 0.6480818823427410	-0.160101
C	-0.0004000476615085 0.2116270763671374 0.6425763246292984	0.095727
C	0.5000455490149460 0.8086709586674018 0.1480642026612239	-0.159877
C	0.4995977946111165 0.7116511294766236 0.1425706851352097	0.095402
C	-0.0001606839472177 0.6919939651852720 0.6481069671424945	-0.162049
C	-0.0006951702440103 0.7889901460960618 0.6422754243141243	0.103617
C	0.4998269254115810 0.1919964803258895 0.1480912486091466	-0.161960
C	0.4992823104253204 0.2889899070825762 0.1422679229172310	0.103389
C	0.3086503762243939 0.0000413859690488 0.6480823153657528	-0.160159
C	0.2116275481662712 -0.0003993526769260 0.6425763675906890	0.095789
C	0.8086695140551197 0.5000453382054133 0.1480650611388159	-0.159845
C	0.7116502508859976 0.4995974662598861 0.1425707003823992	0.095330
C	0.6919949903686460 -0.0001604436806352 0.6481072300714262	-0.162030
C	0.7889907724596731 -0.0006948303852713 0.6422756057401501	0.103589
C	0.1919958605018775 0.4998253909578144 0.1480915212684005	-0.162015
C	0.2889886775041549 0.4992812785157260 0.1422674572157061	0.103458
C	0.0005568846078669 0.4577029001198175 0.5000004704942909	-0.091166
C	0.0003517094549553 0.3589181803489490 0.5000005632739224	0.158754
C	0.5005651487242535 0.9577136293322510 0.0000008134323884	-0.091280
C	0.5003526484343767 0.8589416520139047 0.0000005976621748	0.158834
C	0.0005355065757956 0.5428950985848702 0.5000003045106908	-0.101158
C	0.0002424302642880 0.6416811881735207 0.4999999456430710	0.161181
C	0.5005428502605158 0.0428972793381920 0.0000015323464076	-0.100955
C	0.5002343659195868 0.1416793824405558 0.0000013538692916	0.161097
C	0.5428948924674928 0.0005379772902216 0.5000015780407768	-0.101308
C	0.6416812674395871 0.0002432615428744 0.5000008498953907	0.161191
C	0.0428967839699671 0.5005424325947228 0.0000012388941612	-0.101337
C	0.1416783970700149 0.5002328774888964 0.0000014946806072	0.161207
C	0.4577041120698492 0.0005594603829325 0.5000017475221933	-0.090992
C	0.3589186292087179 0.0003538626994430 0.5000011712291548	0.158765
C	0.9577089457702099 0.5005652409417639 0.0000007406872426	-0.090909
C	0.8589385517584933 0.5003517521997014 0.0000007494089600	0.158730
H	-0.0001917398130868 0.3451490414139677 0.2350440051946940	0.118949
H	-0.0017011706651642 0.1701005599247375 0.2451829858168691	0.107602
H	0.4998179591741030 0.8451428500105230 0.7350445577252356	0.118984
H	0.4983036200978965 0.6701276484563971 0.7451962143743082	0.107854
H	-0.0003515862241626 0.6553375997731734 0.2351499130075551	0.118530
H	-0.0020641431664738 0.8311577130546214 0.2464602126290209	0.102000
H	0.4996421004447580 0.1553597458306114 0.7351527203348570	0.118491
H	0.4979108769785032 0.3311564013743095 0.7464755634635315	0.102100
H	0.6553377813714303 -0.0003507811609032 0.2351506652104698	0.118554
H	0.8311571957478805 -0.0020640094826241 0.2464607197240704	0.102004
H	0.1553584067933969 0.4996415278107103 0.7351527309521868	0.118524
H	0.3311554251689884 0.4979117107768847 0.7464783421771233	0.102146
H	0.3451485860497921 -0.0001901275836649 0.2350448949140063	0.118957
H	0.1701007083287573 -0.0017010135768841 0.2451835808368709	0.107599
H	0.8451403082132815 0.4998174542232673 0.7350443269210005	0.118961
H	0.6701259422566977 0.4983043265475213 0.7451973031712662	0.107885
H	-0.0001917364684079 0.3451477359261428 0.7649577363595548	0.118936
H	-0.0017014056852308 0.1700996148958018 0.7548168700386924	0.107623
H	0.4998180039083953 0.8451425271956372 0.2649565264373364	0.118968
H	0.4983038566770481 0.6701272609821273 0.2548044460522409	0.107871
H	-0.0003516142415850 0.6553375487857368 0.7648503052160278	0.118545
H	-0.0020642664226148 0.8311575243566939 0.7535395076326017	0.102014
H	0.4996422110559242 0.1553597683733643 0.2648499959042067	0.118516
H	0.4979116863190403 0.3311565760125476 0.2535263980707103	0.102125
H	0.3451482300155353 -0.0001900468903178 0.7649576916973249	0.118926
H	0.1701003470746196 -0.0017011847784137 0.7548164679114984	0.107612
H	0.8451417635033868 0.4998173308455524 0.2649574885351692	0.118972
H	0.6701273749379879 0.4983042298211650 0.2548050995183523	0.107878
H	0.6553396325411280 -0.0003507782473360 0.7648513612580509	0.118550
H	0.8311589507953264 -0.0020642994779138 0.7535394929778456	0.102016
H	0.1553590527773734 0.4996414228044587 0.2648501090926476	0.118539
H	0.3311561168455843 0.4979115142275340 0.2535249493308687	0.102121
Cd	0.0008280087608136 0.0008272107691145 0.4999907521126212	0.828474
Cd	0.5008656267031549 0.5008661214468876 -0.0000016587470014	0.828527
Al	0.0001610102956037 0.0001621910696864 0.0000024765014283	1.679027
Al	0.5001986735643784 0.5001910389971205 0.4999981967812023	1.681009
N	-0.0004459827976901 0.1643631140562736 0.4999993957438629	-0.235192
N	0.4995478791233684 0.6643746819125282 0.0000002752681038	-0.235156
N	-0.0006661391622220 0.8363732953219932 0.4999993138843865	-0.234787
N	0.4993116816443876 0.3363862354386391 0.0000009693745345	-0.234533
N	0.8363739707121064 -0.0006661702513002 0.4999994904102463	-0.234762
N	0.3363847356512319 0.4993095588446881 0.0000015055307293	-0.234519
N	0.1643635688869471 -0.0004457423372647 0.4999995922326600	-0.235149
N	0.6643740398614272 0.4995472905911868 0.0000013562173703	-0.235104
F	0.0002795561497860 0.0002770618164778 0.7752908357569409	-0.598788
F	0.5002943483730072 0.5002961577409770 0.2757411713223943	-0.599557
F	0.0002797665132794 0.0002889660191793 0.2247010712398827	-0.598754
F	0.5002969625793553 0.5003005921674457 0.7242553824812100	-0.599526
F	0.6178546269301035 0.4688415747698228 0.4999966892193288	-0.636785
F	0.4688354705483290 0.6178455939591090 0.4999971662037480	-0.636780
F	0.4145291909034771 0.4144956282300506 0.5000000565720711	-0.650728
F	0.9143620196760158 0.9143615630003435 -0.0000090314467232	-0.650100
F	0.9686313126820714 0.1178448199335663 -0.0000153715717808	-0.636219
F	0.1178430897244776 0.9686315431250020 -0.0000068948784053	-0.636215
	  	
