#======================================================================

# CRYSTAL DATA

#----------------------------------------------------------------------

data_VESTA_phase_1


_pd_phase_name                         ALFFIVE_14_Cu_i
_cell_length_a                         13.10745
_cell_length_b                         13.09431
_cell_length_c                         8.19392
_cell_angle_alpha                      87.90854
_cell_angle_beta                       87.80226
_cell_angle_gamma                      89.07111
_symmetry_space_group_name_H-M         P 1
_symmetry_Int_Tables_number            1

loop_
_symmetry_equiv_pos_as_xyz
   x, y, z

loop_
   _atom_site_label
   _atom_site_fract_x
   _atom_site_fract_y
   _atom_site_fract_z
   _atom_site_charge
C	0.5671906551398868 0.2634162341700925 0.3659092308701006	-0.176508
C	0.4611874106531190 0.2671662260623409 0.3695405700891954	0.105494
C	0.9406944185929850 0.2856508041130884 0.4146552117907784	-0.168224
C	0.0464097501419672 0.2784364787059754 0.3997805090305938	0.108732
C	0.2612414746975699 0.5672470772371466 0.3681462498236159	-0.177679
C	0.2644969454691278 0.4610897180163454 0.3723879830464044	0.104485
C	0.2942111095856391 0.9408083228997440 0.4105002702796996	-0.169095
C	0.2861894791950112 0.0465932812618906 0.3966200948532744	0.108259
C	0.9338038704385354 0.2358193071870154 0.1342093746285752	-0.180160
C	0.0398480159868172 0.2325478258099119 0.1280913773271369	0.104786
C	0.5620925007753641 0.2129888502421640 0.0855518351119339	-0.165306
C	0.4563456679555003 0.2214878193786941 0.0973604945575575	0.101305
C	0.2143355022135255 0.5618370385308757 0.0862884805328777	-0.167616
C	0.2225545978563863 0.4560454721940159 0.0985911712173495	0.100709
C	0.2331764047705533 0.9336679004333723 0.1365487123789562	-0.179067
C	0.2294839973977992 0.0397897481029555 0.1309825790565284	0.107114
C	0.4336377407895359 0.7366630436757607 0.6352674080089834	-0.179294
C	0.5396105983985537 0.7339101517837079 0.6287023093394015	0.106665
C	0.0614737834249685 0.7310472327206620 0.5778251738887928	-0.162063
C	0.9556047582964919 0.7352060409553109 0.5925909505021235	0.099983
C	0.7377259385900446 0.4334736998178866 0.6347102847981784	-0.180707
C	0.7353305419790538 0.5395616328406974 0.6282389672283135	0.107838
C	0.7196162998056617 0.0612454739390780 0.5815616678488391	-0.160560
C	0.7258195467367560 0.9553299734524194 0.5950895076775199	0.099868
C	0.0670080440066210 0.7579705265806865 0.8675740767605978	-0.176193
C	0.9609730406211503 0.7593130095349911 0.8730465849859224	0.103149
C	0.4408291960640000 0.7776232038826710 0.9197989001272345	-0.163407
C	0.5466332605305259 0.7725746605263493 0.9035719161497046	0.108937
C	0.7782725372741960 0.4406247530633144 0.9193579211004664	-0.166455
C	0.7731767224582883 0.5465038961463958 0.9033901295707670	0.108342
C	0.7615594658584550 0.0669148991397333 0.8657469440129437	-0.174427
C	0.7641589918409023 0.9608250624350750 0.8704501235047233	0.104939
C	0.6187276532904153 0.2361009053154896 0.2202181109044879	0.189965
C	0.8831265281893974 0.2625614396929893 0.2809257456076577	0.189970
C	0.2359441371766328 0.6186729370240391 0.2216371405420701	0.190543
C	0.2657123137309009 0.8830906373767696 0.2797581052149434	0.189577
C	0.3830846775781331 0.7590094092804166 0.7843203052668327	0.189564
C	0.1183613940113755 0.7435157273923864 0.7163313497580405	0.189918
C	0.7595313387644339 0.3828688306096860 0.7837154524583344	0.191240
C	0.7389460420873957 0.1182283007826644 0.7176842569267476	0.187918
H	0.6088992674119355 0.2773022735440819 0.4752047643811219	0.109325
H	0.4169807490883016 0.2828958248514083 0.4813280014251396	0.106395
H	0.9032779937115396 0.3079348398464165 0.5289724338626435	0.124720
H	0.0950950780384512 0.2930509592100061 0.5008782374650382	0.107394
H	0.2739250563935434 0.6093253014080132 0.4776133774226146	0.111385
H	0.2783963527601752 0.4172545895423037 0.4851778346808077	0.107978
H	0.3213343996156204 0.9033881126974431 0.5216983240084802	0.124816
H	0.3051781305919081 0.0953517125990781 0.4957546353055966	0.108299
H	0.8912277029804415 0.2214820538249661 0.0260831705638073	0.109382
H	0.0830365899338612 0.2143877561615376 0.0159821181135208	0.108595
H	0.6002290550787358 0.1894205422353046 0.9727347004324687	0.124521
H	0.4097455282231675 0.2071855250944089 0.9932362891000229	0.114892
H	0.1926282837631190 0.5997718040086208 0.9723996356069737	0.124291
H	0.2099793330630602 0.4093373615004657 0.9938628168829012	0.114248
H	0.2147336509839815 0.8908235814307751 0.0304885369320801	0.110590
H	0.2072818976333546 0.0831406805955119 0.0213553758178976	0.107592
H	0.3912934847923998 0.7242782820375419 0.5260417014003560	0.105940
H	0.5829451349033812 0.7179528435389427 0.5158969152159181	0.109005
H	0.0993322397630802 0.7186745321418087 0.4597955921543775	0.124545
H	0.9089297177273432 0.7268139662147504 0.4866639777241268	0.113913
H	0.7258255542450153 0.3908810764483647 0.5254540221035614	0.107039
H	0.7199827145346903 0.5829549052547657 0.5153866334754770	0.109150
H	0.7004514600005638 0.0990629779044058 0.4663013837195847	0.124647
H	0.7134667847299108 0.9086054658713978 0.4902768359117411	0.113847
H	0.1086281680435354 0.7650220049706303 0.9791898706724573	0.105088
H	0.9172830998852630 0.7662753464716477 0.9881045902823595	0.110263
H	0.4035114939040146 0.7952499279079819 0.0364780152951578	0.124403
H	0.5953608006897514 0.7850032697967827 0.0054068301440034	0.107317
H	0.7958261850724875 0.4032756690541375 0.0359243762437518	0.125186
H	0.7852914947379339 0.5952637263918760 0.0055043185899917	0.107039
H	0.7734150054086535 0.1086681900082984 0.9759168031043407	0.106552
H	0.7770519538065610 0.9168789195167036 0.9833959049279680	0.109313
N	0.7758810843854935 0.2736897543905777 0.3010295168909735	-0.106871
N	0.2778151874899666 0.7757296887584606 0.2979249015030833	-0.108244
N	0.7260177647099298 0.2247317217096500 0.2013609094160609	-0.099221
N	0.2243472972425191 0.7259681616072087 0.2041935744881469	-0.098824
N	0.2255619624813410 0.7364096340286683 0.6923037830795262	-0.097293
N	0.7300185372915536 0.2255467063785599 0.6957030064401915	-0.099321
N	0.2758528491706529 0.7671126055179637 0.8090929641634108	-0.104760
N	0.7682443930364907 0.2755790735905915 0.8067415627643792	-0.103706
N	0.4070616178006919 0.2479309044944815 0.2374286197246272	-0.214563
N	0.0949001988083241 0.2526398914046444 0.2589158115562175	-0.210846
N	0.2469388431946729 0.4068181662800174 0.2396168344875272	-0.216707
N	0.2545330598508530 0.0949568709374120 0.2592131260022912	-0.210961
N	0.5948499590516531 0.7514679868494063 0.7604994628131718	-0.208893
N	0.9065609382201302 0.7489045697697466 0.7379422618480114	-0.213474
N	0.7525061842714006 0.5947949259053407 0.7603070931239012	-0.210473
N	0.7475096711354564 0.9063307753901315 0.7373854232813012	-0.212824
F	0.3731331407747731 0.2000686298816819 0.7460245975302332	-0.636332
F	0.2153831690274980 0.3768804968684460 0.7456812492672954	-0.633475
F	0.1479022423797390 0.1593544371151137 0.7654896649543429	-0.644481
F	0.7049491111632843 0.8752133004784073 0.2473341028705333	-0.631261
F	0.8750205272035118 0.7099539369099455 0.2461367758648239	-0.627799
F	0.6545047234701832 0.6530750485247868 0.2605817096971913	-0.643264
F	0.2506311037852064 0.2496699203199638 0.5279083942624032	-0.627295
F	0.2486429574100199 0.2477008574696357 0.9752484089281316	-0.626175
F	0.7467460469192702 0.7474038656200349 0.4745186510290759	-0.624434
F	0.7516464125985305 0.7525890272118807 0.0272361306932951	-0.623755
Al	0.2470660215926797 0.2464805931400659 0.7518019287143707	1.673131
Al	0.7465404438270178 0.7476689486808730 0.2510489626396667	1.670585
Cu	0.2509668381090873 0.2508908253063552 0.2481419824897723	0.711788
Cu	0.7507374007086151 0.7505469520647311 0.7484330167315606	0.709536
	  	
