#======================================================================

# CRYSTAL DATA

#----------------------------------------------------------------------

data_VESTA_phase_1


_pd_phase_name                         ALFFIVE_16_Zn_i
_cell_length_a                         25.16152
_cell_length_b                         25.16153
_cell_length_c                         7.65282
_cell_angle_alpha                      90.00157
_cell_angle_beta                       89.99826
_cell_angle_gamma                      90.00882
_symmetry_space_group_name_H-M         P 1
_symmetry_Int_Tables_number            1

loop_
_symmetry_equiv_pos_as_xyz
   x, y, z

loop_
   _atom_site_label
   _atom_site_fract_x
   _atom_site_fract_y
   _atom_site_fract_z
   _atom_site_charge
C	0.4777801719667812 0.3870622688607795 0.3673538524357415	0.097535
C	0.4768122897111470 0.3318482556617767 0.3626758551563693	-0.175175
C	0.9549554792910834 0.6131003002129686 0.9433734857237314	-0.125869
C	0.9551114684171577 0.5578965833425331 0.9441374577146421	-0.123701
C	0.5222015778437757 0.6132752024027432 0.3661056224655515	0.105650
C	0.5233637839472440 0.6684324026443543 0.3613116544337386	-0.175065
C	0.0450601549815312 0.3870413197273113 0.9433331573998497	-0.125160
C	0.0448967003356001 0.4422370447352662 0.9440901360533835	-0.123831
C	0.6131942250249006 0.4777707041236398 0.3683023365805264	0.097645
C	0.6683825128992743 0.4767046509669431 0.3634562849150504	-0.173282
C	0.3870221962444868 0.9549451706205557 0.9433829056858543	-0.125331
C	0.4422182231972219 0.9551023593102704 0.9441572903249765	-0.123877
C	0.3870907386142894 0.5221765722844114 0.3667036374000480	0.101744
C	0.3318971298237175 0.5232203452096403 0.3615853462125300	-0.176195
C	0.6131054984175058 0.0450560232915388 0.9433359052993179	-0.125902
C	0.5579010662337398 0.0448870710171523 0.9441179519963186	-0.124050
C	0.5221763330721045 0.3870899548691590 0.6332945455776773	0.101787
C	0.5232206628708076 0.3318966246558031 0.6384136745212375	-0.176202
C	0.0450561315806376 0.6131053979017839 0.0566624276602391	-0.125926
C	0.0448871845374751 0.5579010395402859 0.0558805712132464	-0.123955
C	0.4777707507120094 0.6131939469875562 0.6316988846958893	0.097762
C	0.4767045566084355 0.6683822650411123 0.6365433202160296	-0.173314
C	0.9549451167980816 0.3870221987731007 0.0566162848620082	-0.125301
C	0.9551023448771990 0.4422181520368748 0.0558420791860073	-0.123946
C	0.3870625976600628 0.4777802019931440 0.6326459902925468	0.097544
C	0.3318485559913241 0.4768119806997622 0.6373234094298257	-0.175147
C	0.6131003265368644 0.9549553941565696 0.0566254164401820	-0.125929
C	0.5578965414673176 0.9551113574687097 0.0558612521877702	-0.123615
C	0.6132753077522429 0.5222013465063055 0.6338943631544146	0.105617
C	0.6684325981759304 0.5233638650974481 0.6386875988879417	-0.175066
C	0.3870412733351228 0.0450600367459383 0.0566660697842484	-0.125207
C	0.4422370787014320 0.0448965196163352 0.0559091504382143	-0.123880
C	0.5450561372476208 0.8870382777836748 0.5566525363107900	-0.125639
C	0.5448996197791470 0.9422363606935247 0.5559099393989931	-0.123711
C	0.0221963287259559 0.1132736719329742 0.1338903549671542	0.105730
C	0.0233437409310305 0.1684392458560990 0.1387065924822272	-0.174916
C	0.4549599719423060 0.1131097568312120 0.5566210561069564	-0.125926
C	0.4551081833867614 0.0579018974916848 0.5558667556022094	-0.123888
C	0.9777785102323853 0.8870615970910130 0.1326918566336471	0.097376
C	0.9768173354573457 0.8318429085072651 0.1373563581903177	-0.175021
C	0.1131137900667175 0.5450506782631636 0.5566611630694158	-0.125972
C	0.0579057839667530 0.5448904856469300 0.5558869990876163	-0.124059
C	0.8870863643099400 0.0221720183602920 0.1333050506868025	0.101638
C	0.8318866316997043 0.0232122708421432 0.1384274799203487	-0.176274
C	0.8870178491579125 0.4549510523603912 0.5566084853432678	-0.125491
C	0.9422166072792179 0.4551013616576828 0.5558414431131962	-0.123733
C	0.1131914813870465 0.9777670396066357 0.1317399376179114	0.097945
C	0.1683825075559337 0.9767151282362729 0.1365875005714005	-0.173428
C	0.4549511334299425 0.8870178992986668 0.4433911829330890	-0.125506
C	0.4551013625364718 0.9422165902741997 0.4441579694037181	-0.123709
C	0.9777671990154314 0.1131921168912701 0.8682602239040282	0.097999
C	0.9767153702617573 0.1683828173580130 0.8634124763201917	-0.173412
C	0.5450507349645958 0.1131138478158999 0.4433373347239496	-0.125959
C	0.5448905381896122 0.0579058716526583 0.4441115228612862	-0.124102
C	0.0221721276687331 0.8870865333920399 0.8666943563618845	0.101650
C	0.0232121676505803 0.8318868176504953 0.8615719336913623	-0.176302
C	0.8870382790435617 0.5450559954657125 0.4433457022254016	-0.125542
C	0.9422364300620309 0.5448995008263755 0.4440882675758140	-0.123747
C	0.1132736917229808 0.0221962220756943 0.8661090313523438	0.105720
C	0.1684392091368415 0.0233434487621720 0.8612929963837302	-0.174920
C	0.1131098120114818 0.4549602246563286 0.4433774900574565	-0.125886
C	0.0579018401985762 0.4551083629012058 0.4441318578810574	-0.123901
C	0.8870616855574984 0.9777783385717430 0.8673079148784814	0.097395
C	0.8318429136632273 0.9768173625357452 0.8626431946184745	-0.175077
C	0.4999825933917368 0.3029713139292828 0.5006294963922816	0.175531
C	0.5000158503213233 0.2465764879765548 0.5004763590307894	-0.114747
C	0.5000215007190772 0.1981001309698450 0.5001581895687762	-0.097791
C	0.5000101859863613 0.1417089481122252 0.4999998218381116	0.125956
C	0.4999991110514538 0.0293172746238524 0.4999988450808592	0.066312
C	-0.0000168067503991 0.8029544256711889 -0.0006202765390705	0.175615
C	0.0000190683004867 0.7465594089837467 -0.0004809427995823	-0.115302
C	0.0000238639575832 0.6980780056065390 -0.0001596582447824	-0.097237
C	0.0000110625927847 0.6416933042973738 -0.0000022709439674	0.125402
C	-0.0000014133137854 0.5293152213705260 0.0000010616360224	0.066195
C	0.4999745113401534 0.6972787344611029 0.4989033962768100	0.173737
C	0.5000277757195802 0.7536573483707395 0.4992171746781272	-0.113467
C	0.5000312812769836 0.8021178953150689 0.4997156590530479	-0.098438
C	0.5000114652984611 0.8584574316080726 0.4999787167221523	0.124303
C	0.4999983951252006 0.9707858913095577 0.5000227404638794	0.065462
C	-0.0000247162829058 0.1972912636445623 0.0010815246854353	0.173423
C	0.0000258036981122 0.2536714525745561 0.0007793095579025	-0.113149
C	0.0000319634133905 0.3021323925304520 0.0002753320826049	-0.098871
C	0.0000107736653566 0.3584716674890849 0.0000157856301226	0.124068
C	-0.0000014284282991 0.4707890239396071 -0.0000222886476057	0.065702
C	0.6972788977162439 0.4999747331956440 0.5010957694184578	0.173740
C	0.7536576423410524 0.5000279225426042 0.5007813058133527	-0.113485
C	0.8021178667835847 0.5000312278823462 0.5002831170944427	-0.098426
C	0.8584575896966637 0.5000113385861485 0.5000200281775083	0.124277
C	0.9707858864097907 0.4999983481721018 0.4999762204658310	0.065461
C	0.1972910223609825 -0.0000250157061215 -0.0010815899015198	0.173474
C	0.2536712575988440 0.0000255864343562 -0.0007794974728250	-0.113251
C	0.3021325224026515 0.0000319606403311 -0.0002763794411667	-0.098854
C	0.3584716067582427 0.0000107719169960 -0.0000167182010891	0.124181
C	0.4707890165883022 -0.0000015147829475 0.0000215925543545	0.065652
C	0.3029717164819631 0.4999823493059447 0.4993694750518782	0.175557
C	0.2465765600933196 0.5000158537334161 0.4995228441076348	-0.114800
C	0.1981004757100483 0.5000214041337490 0.4998407785870820	-0.097800
C	0.1417090077654947 0.5000102189015845 0.4999985877347282	0.125954
C	0.0293172843666630 0.4999991453299018 0.4999994731262787	0.066312
C	0.8029544534130199 -0.0000166853406640 0.0006197001704330	0.175614
C	0.7465592300478658 0.0000192231170272 0.0004806174368270	-0.115318
C	0.6980781552937257 0.0000239266863820 0.0001593329584726	-0.097239
C	0.6416932672759247 0.0000109948364422 0.0000011500320739	0.125416
C	0.5293152502311685 -0.0000015041473805 -0.0000022954067332	0.066177
H	0.4611317565320671 0.4106559695106059 0.2605843209283920	0.106165
H	0.4585148859132179 0.3113901750979757 0.2527411386047015	0.124820
H	0.9201195188173096 0.6347754632177798 0.8976384428173704	0.111105
H	0.9203629922751715 0.5364180300906830 0.8962721231160509	0.105861
H	0.5387236127917449 0.5896130509300286 0.2600445388486665	0.099543
H	0.5417821526061518 0.6889506784022903 0.2516415472537297	0.122943
H	0.0798848017979601 0.3653179330785531 0.8976309341763340	0.110598
H	0.0796485128690935 0.4637008949000871 0.8962652998515384	0.105652
H	0.5897006425803314 0.4618826821203633 0.2603854516011157	0.107570
H	0.6887589519742396 0.4585231949651501 0.2531255917680248	0.124483
H	0.3652849168886385 0.9201280781297125 0.8976532483175301	0.111096
H	0.4636659055150368 0.9203518019350858 0.8962919200969269	0.105867
H	0.4109439298810727 0.5393390543528237 0.2617507318052732	0.099110
H	0.3114024498355289 0.5416710976935526 0.2519690289094584	0.123700
H	0.6347828945206748 0.0798977683101771 0.8976141783802966	0.110753
H	0.5364243882435473 0.0796330727489615 0.8962734937120586	0.105802
H	0.5393389839679610 0.4109434651158018 0.7382458431570527	0.099078
H	0.5416712211984405 0.3114018976743250 0.7480297500577542	0.123687
H	0.0798979474831387 0.6347826846059273 0.1023838400309436	0.110751
H	0.0796331817745720 0.5364243698523411 0.1037253007134488	0.105763
H	0.4618826788990321 0.5897003448472340 0.7396172569874926	0.107553
H	0.4585228838422779 0.6887584618070625 0.7468740404271382	0.124450
H	0.9201279133980145 0.3652849454229596 0.1023460835538230	0.111081
H	0.9203516670653510 0.4636657595237207 0.1037076292562405	0.105870
H	0.4106558698037056 0.4611326086232154 0.7394173626889005	0.106190
H	0.3113905508225829 0.4585148763600237 0.7472589273153557	0.124802
H	0.6347755058394907 0.9201194730823585 0.1023607481617363	0.111131
H	0.5364178950342189 0.9203629314761622 0.1037267398635378	0.105865
H	0.5896129120928336 0.5387229017156437 0.7399556405948216	0.099504
H	0.6889508304102168 0.5417824056946372 0.7483572563347164	0.122948
H	0.3653177996956626 0.0798845744555688 0.1023683268804598	0.110618
H	0.4637009550654876 0.0796482074229213 0.1037339420078330	0.105672
H	0.5798816221060163 0.8653219933715331 0.6023625136264754	0.110659
H	0.5796502124811329 0.9637060128832938 0.6037328649066068	0.105676
H	0.0387001420634275 0.0896113107336696 0.2399966039705811	0.099403
H	0.0417713776541720 0.1889499069491580 0.2483643202678738	0.122904
H	0.4201227878060088 0.1347739208171218 0.6023592460525802	0.111047
H	0.4203586095687747 0.0364158047227153 0.6037350690674572	0.105895
H	0.9611358382079526 0.9106578968672442 0.2395025375613425	0.106180
H	0.9585224007617443 0.8113809337441441 0.2473092964456942	0.124762
H	0.1347796600251345 0.5798932467274616 0.6023853137031563	0.110797
H	0.0364202059875198 0.5796384625479518 0.6037317054923228	0.105769
H	0.9109417599134154 0.0393267334526157 0.2383012268421378	0.099099
H	0.8113944387954315 0.0416627264678910 0.2480669587060144	0.123696
H	0.8652857689182660 0.4201326571372881 0.6023385663269456	0.111105
H	0.9636680915787728 0.4203502062183351 0.6037078527621468	0.105882
H	0.0896993970080892 0.9619039028304704 0.2397106531004432	0.107502
H	0.1887609368475493 0.9585351567020325 0.2469091277129498	0.124506
H	0.4201326893981663 0.8652859200046963 0.3976609976981625	0.111111
H	0.4203501631578615 0.9636680139471655 0.3962923210320480	0.105873
H	0.9619038756593882 0.0897000126592277 0.7602888981642369	0.107504
H	0.9585353276357694 0.1887615696154025 0.7530909014914119	0.124491
H	0.5798934194918486 0.1347797342284246 0.3976134499933303	0.110783
H	0.5796386380540658 0.0364204775799951 0.3962671247436610	0.105821
H	0.0393269791694394 0.9109417655466099 0.7616976834146806	0.099098
H	0.0416626622704530 0.8113947056226827 0.7519323933654373	0.123693
H	0.8653219714551740 0.5798815031976248 0.3976363853541905	0.110647
H	0.9637062325619629 0.5796500061626259 0.3962647478971117	0.105683
H	0.0896114597757051 0.0387002927700730 0.7600025362471907	0.099400
H	0.1889501599976453 0.0417711110134630 0.7516354994813221	0.122886
H	0.1347740388898172 0.4201230336050874 0.3976399824811118	0.111061
H	0.0364157141361836 0.4203588404585872 0.3962640284300950	0.105889
H	0.9106580925772253 0.9611356487509991 0.7604972725771988	0.106183
H	0.8113808602901755 0.9585224209969628 0.7526905299119276	0.124815
Zn	0.5001919268229509 0.5001928841705190 0.5000098899279840	0.741879
Zn	0.0001840172403823 0.0001846063585811 0.0000079692078715	0.741695
Al	0.4989500036122361 0.4989442093119349 0.0000036035563407	1.681501
Al	-0.0010527355397479 -0.0010515600060353 0.5000037577550660	1.681821
F	0.5015589118085302 0.4980850958914523 0.2362286699635438	-0.579892
F	-0.0019147773010093 0.0015024367448587 0.7365363757009238	-0.579714
F	0.4980933383145799 0.5015596954942071 0.7637786321149669	-0.579870
F	0.0015027280635722 -0.0019096973790393 0.2634670118228603	-0.579751
F	0.4498904209904568 0.4499062371989737 0.0000025980300840	-0.642306
F	0.9499266344170331 0.9499259434577879 0.5000002426482312	-0.642249
F	0.4795431127244035 0.5655658501346086 0.0081650373079011	-0.645843
F	0.9795581277661950 0.0655073519869338 0.4920187581080402	-0.645620
F	0.5655793803358922 0.4795535305575492 0.9918534575577983	-0.645904
F	0.0655058445874327 0.9795580444468358 0.5079873889518974	-0.645582
N	0.4999517897855908 0.4141916369854433 0.5005046330481792	-0.222914
N	-0.0000487857015277 0.9141819114227674 -0.0004851657604163	-0.222676
N	0.4999488353389805 0.5860929090122072 0.4986174592222370	-0.228362
N	-0.0000518016129017 0.0860941894117842 0.0013645748678447	-0.228607
N	0.5860930571127608 0.4999484396341117 0.5013834848564546	-0.228303
N	0.0860936424099077 -0.0000517907438822 -0.0013649245315906	-0.228545
N	0.4141922569825897 0.4999521214091027 0.4994956345917795	-0.222931
N	0.9141818398788329 -0.0000490770097172 0.0004852715578496	-0.222710
	  	
