#======================================================================

# CRYSTAL DATA

#----------------------------------------------------------------------

data_VESTA_phase_1


_pd_phase_name                         ALFFIVE_2_Zn
_cell_length_a                         13.96115
_cell_length_b                         13.96117
_cell_length_c                         7.84264
_cell_angle_alpha                      89.99442
_cell_angle_beta                       90.00639
_cell_angle_gamma                      89.96782
_symmetry_space_group_name_H-M         P 1
_symmetry_Int_Tables_number            1

loop_
_symmetry_equiv_pos_as_xyz
   x, y, z

loop_
   _atom_site_label
   _atom_site_fract_x
   _atom_site_fract_y
   _atom_site_fract_z
   _atom_site_charge
C	0.5311260700642835 0.7039660838088049 0.1376232655561199	0.102146
C	0.5325479522099902 0.8033406068365613 0.1430181012302184	-0.168443
C	0.4678736317729666 0.2967700582045157 0.1371567354677621	0.098305
C	0.4670737571577536 0.1972827829511748 0.1424164861172676	-0.171164
C	0.2967806135171756 0.5316142372552131 0.1365184109708547	0.102563
C	0.1973849295979955 0.5327159187081281 0.1423969982491262	-0.172371
C	0.7038952805538126 0.4686409386034397 0.1368641406600695	0.094725
C	0.8033525696498430 0.4674832692136754 0.1420804089235187	-0.169215
C	0.4686415849333546 0.7038932560351689 0.8631356580665799	0.094687
C	0.4674850219711031 0.8033508501883734 0.8579208091354165	-0.169158
C	0.5316138244882347 0.2967795994388395 0.8634822689024138	0.102516
C	0.5327160997322842 0.1973837258607752 0.8576032995260946	-0.172459
C	0.7039660566014834 0.5311240052281399 0.8623780646362801	0.102156
C	0.8033408270432481 0.5325463125994757 0.8569840729651027	-0.168330
C	0.2967685247697937 0.4678720511660643 0.8628421300844074	0.098311
C	0.1972812098072729 0.4670721647064099 0.8575814486066821	-0.171236
C	0.4999522470573226 0.1454251830114079 0.0000105491634584	0.172900
C	0.5000622297454833 0.0440016276322405 0.0000414386322199	-0.098712
C	0.5000162089378689 0.8552524086827673 0.0004097813850611	0.166253
C	0.5000651752681511 0.9566740441622446 0.0003060644572582	-0.092102
C	0.8552537108887183 0.5000147535673038 -0.0004071973021782	0.166217
C	0.9566717135550939 0.5000644058834230 -0.0003028892549108	-0.092372
C	0.1454247338792001 0.4999517245009554 -0.0000109494136849	0.172781
C	0.0440042508045142 0.5000620517405094 -0.0000402177525109	-0.098389
H	0.5532859278322629 0.6612844881601170 0.2468428059800939	0.101850
H	0.5582701481302479 0.8406457048944325 0.2560325110402650	0.125176
H	0.4432126779206246 0.3394375789196951 0.2454886475904273	0.105404
H	0.4410369281701346 0.1598713028405872 0.2551404474933306	0.126707
H	0.3399031318172053 0.5561601027153305 0.2438512612096310	0.098612
H	0.1600192336717114 0.5587237742812922 0.2551979476110954	0.126021
H	0.6616041889137123 0.4464397527140451 0.2470520166339677	0.108096
H	0.8405438679749345 0.4417791168562432 0.2552795385941187	0.126872
H	0.4464383393069133 0.6616003571186493 0.7529481960522281	0.108106
H	0.4417799114132461 0.8405411731096537 0.7447214233701822	0.126854
H	0.5561585111542339 0.3399022456888068 0.7561514164292843	0.098673
H	0.5587245010069412 0.1600174935874961 0.7448038340970213	0.126082
H	0.6612844280770918 0.5532824092806984 0.7531578584202365	0.101835
H	0.8406449343216852 0.5582692159874428 0.7439709339353205	0.125114
H	0.3394352945568340 0.4432109711391090 0.7545093833981881	0.105468
H	0.1598686745146741 0.4410360036251533 0.7448562382594484	0.126765
Zn	0.5004261111224881 0.5004265467713298 -0.0000062417510873	0.737644
Al	0.4989850002118017 0.4989892223868711 0.4999924857925764	1.679309
F	0.4983135650153901 0.5017454560336233 0.7346774872255275	-0.585429
F	0.5017415870512779 0.4983028766946425 0.2653256934983848	-0.585407
F	0.4651674223326567 0.6188195165092182 0.4949570075266654	-0.638128
F	0.4110489444304702 0.4110564922721768 0.5000077854050708	-0.640458
F	0.6188300228810614 0.4651996624578137 0.5050322676382015	-0.638150
N	0.4997818688720552 0.3456706981594780 0.0002171042898116	-0.222239
N	0.4998556841690172 0.6550002970716902 0.0006139790290900	-0.226076
N	0.6549999415339682 0.4998541082338339 -0.0006132273559741	-0.226069
N	0.3456709955903952 0.4997814035049404 -0.0002175904257175	-0.222239
	  	
