#======================================================================

# CRYSTAL DATA

#----------------------------------------------------------------------

data_VESTA_phase_1


_pd_phase_name                         ALFFIVE_2_Zn_i
_cell_length_a                         13.98289
_cell_length_b                         13.98294
_cell_length_c                         7.96901
_cell_angle_alpha                      89.99996
_cell_angle_beta                       90.00005
_cell_angle_gamma                      89.71172
_symmetry_space_group_name_H-M         P 1
_symmetry_Int_Tables_number            1

loop_
_symmetry_equiv_pos_as_xyz
   x, y, z

loop_
   _atom_site_label
   _atom_site_fract_x
   _atom_site_fract_y
   _atom_site_fract_z
   _atom_site_charge
C	0.0000960266880395 0.3041706106317351 0.3485931257574191	-0.161734
C	-0.0004557317836467 0.2049095230988278 0.3541836725837983	0.093942
C	0.5001089556645365 0.8042059280246567 0.8485695550309644	-0.161780
C	0.4995425831558085 0.7049379442383916 0.8541586233456363	0.094018
C	-0.0004126592345760 0.6970687092427807 0.3484517539614977	-0.165623
C	-0.0010735756548192 0.7963143737871383 0.3543281174038134	0.103905
C	0.4995824848995792 0.1970987506277313 0.8484229157356182	-0.165765
C	0.4989156315567879 0.2963491446473930 0.8542943990341664	0.103749
C	0.6970666700789471 -0.0004106696916087 0.3484517118459800	-0.165561
C	0.7963125941186593 -0.0010719964607395 0.3543285047898919	0.103716
C	0.1971002257088308 0.4995834769114332 0.8484241130842418	-0.165708
C	0.2963508693376308 0.4989168058241417 0.8542953929933718	0.103827
C	0.3041682590097017 0.0000989515560401 0.3485936341776326	-0.161742
C	0.2049066141498737 -0.0004528544906511 0.3541837555670562	0.094019
C	0.8042062133803616 0.5001103319957686 0.8485717310539602	-0.161809
C	0.7049382603460880 0.4995440468803759 0.8541629514214845	0.094120
C	0.0000965347042191 0.3041707349575056 0.6514020591923877	-0.161778
C	-0.0004555903600223 0.2049094325319683 0.6458108256822129	0.093949
C	0.5001073339486229 0.8042065979773551 0.1514312734454674	-0.161790
C	0.4995420965493445 0.7049380622333626 0.1458432369964279	0.094010
C	-0.0004127337033504 0.6970681051165638 0.6515436731651525	-0.165561
C	-0.0010737752540688 0.7963139122835852 0.6456662835994789	0.103746
C	0.4995819129188083 0.1970983090797850 0.1515757219991347	-0.165819
C	0.4989150932531955 0.2963479573152824 0.1457066431560362	0.103768
C	0.3041686361089186 0.0000982923127262 0.6514025079065776	-0.161739
C	0.2049071012586922 -0.0004537573634082 0.6458119299123867	0.093981
C	0.8042088528173533 0.5001097760382066 0.1514330876923204	-0.161818
C	0.7049408217855878 0.4995436271921277 0.1458459976990722	0.093970
C	0.6970666855173213 -0.0004106978896454 0.6515443320155759	-0.165496
C	0.7963124817914151 -0.0010719170156329 0.6456662613768669	0.103813
C	0.1970997710969614 0.4995834886381303 0.1515775167290384	-0.165735
C	0.2963504991273349 0.4989167724324208 0.1457084747774236	0.103759
C	0.0009135090993827 0.4570289117396498 0.4999969920233969	-0.090567
C	0.0005348249312935 0.3559157219550679 0.4999969816309765	0.157919
C	0.5009275341280197 0.9570401123171451 -0.0000010492306016	-0.090019
C	0.5005402848588563 0.8559351924697245 0.0000003159035912	0.157766
C	0.0008734673142479 0.5442306052964478 0.4999989156216035	-0.100677
C	0.0002696516622773 0.6453502572861638 0.4999972284912489	0.164353
C	0.5008697545300581 0.0442598555946834 -0.0000018398598023	-0.101371
C	0.5002601759956988 0.1453919349839143 -0.0000015517600633	0.164980
C	0.5442282065011574 0.0008774238339873 0.4999982987591260	-0.100943
C	0.6453499854188167 0.0002717715252268 0.4999981883924386	0.164432
C	0.0442610413609676 0.5008713301529589 -0.0000005545618068	-0.101567
C	0.1453938980360626 0.5002603441788727 0.0000001927391339	0.164938
C	0.4570278754002375 0.0009159503107351 0.4999980186332225	-0.090351
C	0.3559127715911689 0.0005367625946691 0.4999981653525230	0.157874
C	0.9570405240408896 0.5009284084549770 -0.0000010074307437	-0.089808
C	0.8559350652901110 0.5005429920431740 0.0000013688363102	0.157732
H	-0.0001686663659403 0.3411175816402904 0.2283678609503237	0.118589
H	-0.0021244829291775 0.1631093235308495 0.2387774206263450	0.105061
H	0.4998341016500846 0.8411502913167535 0.7283435097632649	0.118736
H	0.4978713520088339 0.6631093958140654 0.7387497183030521	0.105103
H	-0.0006815679354052 0.6598209020541600 0.2285012777609588	0.118704
H	-0.0029279312116059 0.8389938977160755 0.2400346259607958	0.098889
H	0.4993068114633957 0.1598383917138838 0.7284871668536453	0.118717
H	0.4970516243169484 0.3390450357699376 0.7399955296251157	0.099078
H	0.6598181765423591 -0.0006794696733669 0.2285022011944743	0.118714
H	0.8389914868076662 -0.0029257896088140 0.2400338031354911	0.098944
H	0.1598393288930866 0.4993073803302936 0.7284876226072824	0.118693
H	0.3390467690676756 0.4970524697555612 0.7399944107003800	0.099085
H	0.3411155113410002 -0.0001660766233793 0.2283693366386541	0.118576
H	0.1631064017310135 -0.0021202972745732 0.2387779667145080	0.105024
H	0.8411494115445194 0.4998358219437319 0.7283453653132391	0.118718
H	0.6631084122349451 0.4978717056597548 0.7387551057185962	0.105103
H	-0.0001685480973226 0.3411180428549312 0.7716266245734700	0.118576
H	-0.0021242020716141 0.1631103082317845 0.7612182652512268	0.105081
H	0.4998332637726709 0.8411513607299469 0.2716556349745823	0.118732
H	0.4978717659020507 0.6631092298273034 0.2612527583459473	0.105110
H	-0.0006820086765800 0.6598206134418306 0.7714924456912572	0.118687
H	-0.0029286068645155 0.8389925915700648 0.7599610898483488	0.098954
H	0.4993060189009337 0.1598359087426040 0.2715099859173543	0.118721
H	0.4970513450583839 0.3390433158380171 0.2600063770303242	0.099079
H	0.3411159829897956 -0.0001668581648354 0.7716270126205113	0.118584
H	0.1631078105284909 -0.0021220881909099 0.7612190807848783	0.105056
H	0.8411547831023469 0.4998351609455117 0.2716575315998659	0.118723
H	0.6631118659518452 0.4978707698359495 0.2612554715781316	0.105129
H	0.6598194928712282 -0.0006797554887988 0.7714937395701927	0.118697
H	0.8389919997354602 -0.0029268490949588 0.7599611902007575	0.098871
H	0.1598383661125009 0.4993074541136171 0.2715128534274009	0.118709
H	0.3390465125748041 0.4970526806882831 0.2600097385068265	0.099050
Zn	0.0010403736925395 0.0010390594165412 0.4999967165442080	0.738317
Zn	0.5010689923970307 0.5010658116410365 0.0000121747185986	0.738669
Al	-0.0003261783635304 -0.0003205886118178 -0.0000015897389374	1.667175
Al	0.4997801833390398 0.4997580464933951 0.5000048226168099	1.668919
N	-0.0005009661293265 0.1558640078166091 0.4999973168347662	-0.221129
N	0.4994965894227902 0.6559019627733491 0.0000013153031531	-0.221642
N	-0.0008294411437331 0.8453539185112769 0.4999974786925310	-0.220548
N	0.4991650221136209 0.3453699130867540 0.0000009102782945	-0.220713
N	0.8453535989945480 -0.0008278887409903 0.4999973796457063	-0.220538
N	0.3453727666850189 0.4991660258985784 0.0000024796220851	-0.220764
N	0.1558609769357341 -0.0004981853222223 0.4999981238762122	-0.221189
N	0.6559022943626287 0.4994976011616742 0.0000058543517753	-0.221611
F	0.0004530108194330 0.0004591164103316 0.7666888241652713	-0.584574
F	0.5005909508654551 0.5005601444467797 0.2667925532861022	-0.584977
F	0.0004718259730147 0.0004695113354952 0.2333178220849083	-0.584600
F	0.5005809425149237 0.5005592351927338 0.7332280386351228	-0.584962
F	0.6191278410215958 0.4660359466677161 0.5000079989924981	-0.615097
F	0.4660703655807069 0.6191074684645081 0.5000062926600713	-0.615007
F	0.4124783778949467 0.4124940207937017 0.5000103484252907	-0.632906
F	0.9123312391783489 0.9123348079403637 0.0000136998054515	-0.632205
F	0.9659358241923029 0.1191448309253205 -0.0000170652886314	-0.614812
F	0.1191451125616635 0.9659533993521638 -0.0000065889711109	-0.614826
	  	
