#======================================================================

# CRYSTAL DATA

#----------------------------------------------------------------------

data_VESTA_phase_1


_pd_phase_name                         ALFFIVE_4_Co_i
_cell_length_a                         23.19742
_cell_length_b                         20.15071
_cell_length_c                         9.59800
_cell_angle_alpha                      90.00049
_cell_angle_beta                       89.99981
_cell_angle_gamma                      90.00044
_symmetry_space_group_name_H-M         P 1
_symmetry_Int_Tables_number            1

loop_
_symmetry_equiv_pos_as_xyz
   x, y, z

loop_
   _atom_site_label
   _atom_site_fract_x
   _atom_site_fract_y
   _atom_site_fract_z
   _atom_site_charge
C	0.4191331044488275 0.5984921220856259 0.6298196744300776	0.091629
C	0.3749844244862935 0.5521301859524610 0.6282285121070907	-0.164555
C	0.2779796730284780 0.4483871037532832 0.6277026128600390	-0.117282
C	0.2310655672399658 0.4056461899659362 0.6265434167758596	-0.115102
C	0.1282904228239173 0.3180699072054032 0.6253540853215236	-0.163878
C	0.0814163431327929 0.2754585282386018 0.6282756676281540	0.085782
C	0.9191655063840136 0.0984741080515725 0.6298182562085596	0.091804
C	0.8750072879307229 0.0521243947461028 0.6282254006746653	-0.164679
C	0.7779752085687329 0.9483915135434574 0.6277024997889966	-0.117547
C	0.7310633464410347 0.9056455900553718 0.6265427509701186	-0.115035
C	0.6282713034313121 0.8180867497296109 0.6253564471437080	-0.163784
C	0.5813979452430190 0.7754726583025729 0.6282743790826770	0.085490
C	0.5808604770410916 0.4011842131094637 0.1298802676347946	0.091618
C	0.6249704787517298 0.4475847316044698 0.1281952289046794	-0.169706
C	0.7220684545636501 0.5511396722014491 0.1276948710924700	-0.115144
C	0.7688917095837193 0.5939920585849379 0.1265297098261107	-0.112291
C	0.8714593473330525 0.6818179390501450 0.1253431546148973	-0.162538
C	0.9183984972200105 0.7243853887869182 0.1281889447401863	0.083423
C	0.0808310264881677 0.9012182199569713 0.1298840337626958	0.091451
C	0.1249446024275348 0.9476140442601217 0.1281940231435554	-0.169695
C	0.2220737953847102 0.0511327594880776 0.1276951685141341	-0.115205
C	0.2688933226622170 0.0939852469538666 0.1265305469387565	-0.112187
C	0.3714720969420189 0.1817900845957309 0.1253461840539898	-0.162926
C	0.4184134619730120 0.2243540334323279 0.1281882518679397	0.083360
C	0.5808502361226114 0.5985814865240227 0.8701531003243015	0.092775
C	0.6248867065313005 0.5520785421745387 0.8718127397476881	-0.168372
C	0.7220573887576048 0.4484595742767987 0.8723023070698073	-0.116438
C	0.7689105794425373 0.4056406173630377 0.8734481304456686	-0.113556
C	0.8719368384254148 0.3184682928870846 0.8746474451522184	-0.162190
C	0.9189009995343190 0.2759504447805186 0.8717798914249690	0.083634
C	0.0808661039577884 0.0985952372546718 0.8701517659639493	0.092600
C	0.1249057803945283 0.0520867273796064 0.8718065695206860	-0.168042
C	0.2220432969190067 0.9484439242522691 0.8723031058750230	-0.116780
C	0.2689017077038011 0.9056375021872052 0.8734519248604864	-0.113481
C	0.3719368752996802 0.8184919167379426 0.8746465852918772	-0.162271
C	0.4188946906999544 0.7759627074542459 0.8717798762574509	0.083843
C	0.4194901234480471 0.4016439233578468 0.3701934064412184	0.090261
C	0.3752908065015390 0.4479239275100605 0.3717920753490860	-0.165734
C	0.2778941116308208 0.5510054555324428 0.3722968528696017	-0.118081
C	0.2310773113548088 0.5938769694624609 0.3734646355801002	-0.113567
C	0.1288950273551736 0.6823551569490615 0.3746280474860887	-0.163845
C	0.0818778987136964 0.7247865989929190 0.3717492227075206	0.084421
C	0.9194836277668350 0.9016416684279175 0.3701938984009677	0.090077
C	0.8752846572985774 0.9479220503456282 0.3717880635571292	-0.165667
C	0.7779007547855593 0.0510124665278264 0.3722971644734422	-0.117869
C	0.7310843209455362 0.0938791089897361 0.3734649307995139	-0.113623
C	0.6289027526616947 0.1823559708851935 0.3746280363919675	-0.163843
C	0.5818854662587194 0.2247897884010807 0.3717452051756395	0.084415
C	0.5808601329030046 0.4011844827163834 0.3701127826006196	0.091603
C	0.6249703681150982 0.4475849047609933 0.3718040293557984	-0.169726
C	0.7220686669088688 0.5511394123815456 0.3723039422113527	-0.115046
C	0.7688916945868034 0.5939922242610461 0.3734702011428271	-0.112351
C	0.8714591996645191 0.6818186060940524 0.3746540753845048	-0.162444
C	0.9183986103847153 0.7243854687107011 0.3718095077379975	0.083425
C	0.0808301883970283 0.9012182784341362 0.3701060312377394	0.091605
C	0.1249443329694533 0.9476135643922424 0.3718041910117113	-0.169663
C	0.2220745188364660 0.0511325051974795 0.3723025580385662	-0.115184
C	0.2688928934092747 0.0939852244357057 0.3734704153358493	-0.112187
C	0.3714737036280271 0.1817909276602006 0.3746544310780767	-0.162995
C	0.4184148486010009 0.2243545712309058 0.3718064382440383	0.083393
C	0.4191340151989777 0.5984939037676673 0.8701807722426910	0.091577
C	0.3749854808544888 0.5521306480743292 0.8717711340896189	-0.164617
C	0.2779796184496541 0.4483888790953128 0.8722954088750287	-0.117213
C	0.2310660546355516 0.4056471240395281 0.8734544527091088	-0.115176
C	0.1282906788759407 0.3180701177079521 0.8746435426202303	-0.163971
C	0.0814167164125441 0.2754588903163618 0.8717214920660902	0.085791
C	0.9191655244388296 0.0984751592160113 0.8701795083338518	0.091816
C	0.8750072030882511 0.0521252060705687 0.8717723887677825	-0.164790
C	0.7779749461987643 0.9483913117474371 0.8722943478481467	-0.117493
C	0.7310636120700770 0.9056460588148858 0.8734531421392427	-0.114969
C	0.6282715089543610 0.8180848783396830 0.8746391023290092	-0.163801
C	0.5813976323914901 0.7754705539413546 0.8717195671073523	0.085485
C	0.4194902796947707 0.4016460182211745 0.1298037112170136	0.090085
C	0.3752901400952900 0.4479254595452578 0.1282128302957364	-0.165455
C	0.2778954987786805 0.5510034356632576 0.1277096979696355	-0.117851
C	0.2310787275959338 0.5938747069377239 0.1265374369958104	-0.113700
C	0.1288963468540595 0.6823544027192828 0.1253655540456147	-0.163748
C	0.0818792068619533 0.7247860003065476 0.1282440894235232	0.084264
C	0.9194844417361431 0.9016418237236028 0.1298008575969345	0.090152
C	0.8752853823872120 0.9479222634135858 0.1282053888953863	-0.165495
C	0.7779016170112960 0.0510126603182604 0.1276998367296777	-0.117860
C	0.7310856880914591 0.0938794531674102 0.1265332433201713	-0.113636
C	0.6289042764544613 0.1823554744439973 0.1253664779357600	-0.163716
C	0.5818870468148339 0.2247895237052473 0.1282459332695944	0.084360
C	0.5808515264641145 0.5985793122909840 0.6298499348584007	0.092649
C	0.6248880850351007 0.5520774941913372 0.6281893234241404	-0.168204
C	0.7220576994969030 0.4484592985338818 0.6276966578009668	-0.116458
C	0.7689112546109756 0.4056403718946220 0.6265479199123616	-0.113524
C	0.8719374953106152 0.3184675149609451 0.6253504285479254	-0.162228
C	0.9189015694406428 0.2759493850576989 0.6282170328366962	0.083646
C	0.0808661979153172 0.0985951034874240 0.6298446820734271	0.092560
C	0.1249059478696945 0.0520864574931958 0.6281863024115169	-0.167953
C	0.2220436310149954 0.9484434469786515 0.6276900299503052	-0.116828
C	0.2689020829679645 0.9056371504422640 0.6265397268224047	-0.113464
C	0.3719362525072424 0.8184936728104003 0.6253434081001127	-0.162373
C	0.4188947710646594 0.7759652806282132 0.6282077581612971	0.083903
C	0.3505746393854436 0.5249820995497939 0.7499994655565440	0.114514
C	0.3029456675374146 0.4743704851279272 0.7499981206212983	0.069907
C	0.2049141897899101 0.3838528931917644 0.7499987871423951	0.066176
C	0.1538685402222131 0.3400723018936389 0.7499983681623701	0.099950
C	0.8505858114707437 0.0249842830460268 0.7499974751628422	0.113641
C	0.8029419085680914 0.9743778545476610 0.7499985138130486	0.070044
C	0.7049092296471963 0.8838555497679894 0.7499983231624225	0.066343
C	0.6538537631516517 0.8400813294425465 0.7499981628569021	0.099986
C	0.6494426007821241 0.4747395495917582 0.2499986045640833	0.114128
C	0.6970929799929440 0.5252433231368806 0.2500001615951743	0.069713
C	0.7949598328639355 0.6158947804811296 0.2499985980726612	0.068490
C	0.8459212508849725 0.6598038839949365 0.2500007456797675	0.096918
C	0.1494275526345635 0.9747525102628384 0.2499973403430147	0.113683
C	0.1970930944829389 0.0252401197281896 0.2500009085739457	0.069909
C	0.2949632857669337 0.1158884598797260 0.2499992034062829	0.068365
C	0.3459303853573337 0.1597829679156008 0.2499996200220143	0.097322
C	0.6493288893056529 0.5248961147063781 0.7500008232194877	0.111560
C	0.6970517726847922 0.4743892361861018 0.7500001051444235	0.067027
C	0.7950626433875340 0.3838398988098433 0.7499977653233521	0.069127
C	0.8462227032738755 0.3402310625216558 0.7499981946637353	0.098687
C	0.1493303998092403 0.0249033016597108 0.7499962678142152	0.111498
C	0.1970448246453173 0.9743844505723487 0.7499961097289309	0.067085
C	0.2950594225811133 0.8838492037575703 0.7499963709205050	0.069000
C	0.3462238418373785 0.8402514454529065 0.7499948108456013	0.098723
C	0.3507303538858266 0.4748658510385248 0.2500047713600106	0.116083
C	0.3029567873972623 0.5252154606117929 0.2500040114881971	0.074380
C	0.2051178890244157 0.6159664764499666 0.2499998509261226	0.065271
C	0.1543237120175159 0.6601320793636806 0.2499975959962370	0.098348
C	0.8507303713711823 0.9748637290456977 0.2499984818098614	0.116071
C	0.8029585717836950 0.0252198552929188 0.2499975714081346	0.074227
C	0.7051228584199549 0.1159652266859344 0.2499988684289111	0.065337
C	0.6543278797874265 0.1601301449592300 0.2499980383976717	0.098303
H	0.4374623267306764 0.6182604642407111 0.5331222258934603	0.116549
H	0.3611924070157172 0.5392077411602065 0.5249642457343116	0.106115
H	0.2944878286354460 0.4603159506547166 0.5261954124170929	0.086730
H	0.2150398079983296 0.3895313056346955 0.5254084870529404	0.103689
H	0.1445653394318174 0.3329954009668635 0.5238060308840052	0.120926
H	0.0609310708135365 0.2562594815646585 0.5336290595231912	0.116361
H	0.9375070546216500 0.1182319433007121 0.5331237390903949	0.116556
H	0.8612118270939005 0.0392063458720620 0.5249593790321183	0.106168
H	0.7944833818243785 0.9603146569752097 0.5261925143621813	0.086765
H	0.7150434377408776 0.8895238118523205 0.5254062901324827	0.103748
H	0.6445363600996478 0.8330263826898499 0.5238094273080748	0.120983
H	0.5609063861364255 0.7562914431287241 0.5336235763388476	0.116371
H	0.5623195653994665 0.3809643653431872 0.0338447915566870	0.117014
H	0.6389158023208489 0.4605961528629561 0.0250884974639124	0.104607
H	0.7056678623418946 0.5390549763706062 0.0261911326477324	0.085797
H	0.7849287589611024 0.6101029896190500 0.0254200920606453	0.104384
H	0.8552723045851937 0.6670983096142163 0.0235705555964875	0.122378
H	0.9385764371449014 0.7432547681954488 0.0327991025419972	0.116718
H	0.0622518213273096 0.8810393105832304 0.0338583279708559	0.117177
H	0.1388646379776342 0.9606523614277169 0.0250836519437686	0.104663
H	0.2056857589761355 0.0390310075619672 0.0261857461548140	0.085725
H	0.2849330132326325 0.1100934981894751 0.0254173705765696	0.104368
H	0.3553031163286515 0.1670398014016420 0.0235754665398734	0.122562
H	0.4386191574291697 0.2431852113473099 0.0327958026823657	0.116835
H	0.5627574603772050 0.6190470207645455 -0.0335092299919003	0.116992
H	0.6388516601911693 0.5392237047030961 -0.0249976066367027	0.105693
H	0.7057444626482111 0.4606185069291823 -0.0261358653153271	0.086090
H	0.7849305173869826 0.3895025848940519 -0.0254238375905613	0.104309
H	0.8559145176500298 0.3336309200061307 -0.0237190395793047	0.121405
H	0.9396068228175506 0.2574816171371404 -0.0331730107007091	0.116783
H	0.0627834439099377 0.1190714313095565 -0.0335233578184637	0.117002
H	0.1388827214227137 0.0392489062888567 -0.0250154488583574	0.105679
H	0.2057099357643477 0.9605837306821656 -0.0261428500404192	0.086246
H	0.2849152434676911 0.8894831901757034 -0.0254232001335513	0.104329
H	0.3559169482024144 0.8336608383906455 -0.0237259715598442	0.121387
H	0.4395945626130997 0.7574784454599172 -0.0331769812210438	0.116870
H	0.4382801714873475 0.3820325130813390 0.4665340967507133	0.116943
H	0.3616279411507181 0.4611470754909667 0.4749779853607577	0.105217
H	0.2942084826403625 0.5387555124063884 0.4737945890555861	0.086312
H	0.2149436892361395 0.6097938625095767 0.4746310596747103	0.103606
H	0.1453661757268454 0.6679023614158296 0.4762994000752961	0.121686
H	0.0618110419495520 0.7440477765289772 0.4669090920091611	0.116898
H	0.9382808567819173 0.8820040565491143 0.4665021314054804	0.117248
H	0.8616093951721364 0.9611465049501683 0.4749607876680474	0.105150
H	0.7942205520515269 0.0387626912403753 0.4737888191565443	0.086168
H	0.7149527586348631 0.1098004916976601 0.4746311080702034	0.103549
H	0.6453830933090947 0.1679015901894819 0.4762861169556458	0.121581
H	0.5618086648584838 0.2440733949949158 0.4668682615690409	0.117016
H	0.5623191339514130 0.3809650735566269 0.4661482825943355	0.117061
H	0.6389151800545614 0.4605964424535214 0.4749094800221452	0.104625
H	0.7056676388344558 0.5390554841809779 0.4738086583344695	0.085719
H	0.7849290285441934 0.6101041029087535 0.4745781694244655	0.104400
H	0.8552726988241530 0.6670988421016490 0.4764268672017372	0.122310
H	0.9385769343534229 0.7432557298692888 0.4671975210168833	0.116723
H	0.0622521348662092 0.8810401376088925 0.4661319034229376	0.117067
H	0.1388645543045033 0.9606519750063902 0.4749088223406092	0.104594
H	0.2056850760678129 0.0390302752552501 0.4738127686012732	0.085728
H	0.2849330020868508 0.1100934871615277 0.4745820961987373	0.104370
H	0.3553056268133706 0.1670410223113842 0.4764246180062326	0.122571
H	0.4386213325164359 0.2431850420599952 0.4672004946982615	0.116814
H	0.4374622141309660 0.6182654759817787 -0.0331209639215746	0.116581
H	0.3611934125056772 0.5392072697311615 -0.0249653082587842	0.106146
H	0.2944877466847841 0.4603164915502445 -0.0261969929121068	0.086681
H	0.2150391323812098 0.3895333750327860 -0.0254129486898364	0.103728
H	0.1445663710516104 0.3329961298258621 -0.0238098971734513	0.120969
H	0.0609320051399675 0.2562599925661218 -0.0336326237611497	0.116355
H	0.9375083218305486 0.1182337909333860 -0.0331255765673538	0.116603
H	0.8612118291547625 0.0392078273545986 -0.0249621832561509	0.106193
H	0.7944843819005395 0.9603147933167511 -0.0261960762651854	0.086744
H	0.7150433383817251 0.8895247623337842 -0.0254106222867055	0.103700
H	0.6445373182025295 0.8330241424841759 -0.0238137650346564	0.120958
H	0.5609044089440341 0.7562886470085675 -0.0336301617186451	0.116362
H	0.4382782805284400 0.3820324807965528 0.0334620000839356	0.117032
H	0.3616249476409863 0.4611471138324927 0.0250297700747677	0.105093
H	0.2942108762222808 0.5387519968355895 0.0262123575316666	0.086250
H	0.2149458079163972 0.6097901170064718 0.0253700871797083	0.103618
H	0.1453684128102591 0.6679011293676248 0.0236945827649611	0.121653
H	0.0618131883653106 0.7440465362385714 0.0330838957397813	0.116950
H	0.9382834894728657 0.8820038804702239 0.0334937278340455	0.117197
H	0.8616107868985646 0.9611472929544123 0.0250347293709083	0.105089
H	0.7942212586093256 0.0387625274250925 0.0262063254723834	0.086165
H	0.7149540835596137 0.1098000355787682 0.0253673566234879	0.103561
H	0.6453850332910716 0.1679009413645820 0.0237089482525936	0.121537
H	0.5618114143198708 0.2440727694179519 0.0331218885076552	0.117010
H	0.5627579068950423 0.6190436530181649 0.5335134547187130	0.117057
H	0.6388531783859456 0.5392228192329881 0.5249981084635199	0.105678
H	0.7057452602491844 0.4606189489752012 0.5261358798359917	0.086101
H	0.7849316819620153 0.3895039137592896 0.5254180251379229	0.104298
H	0.8559154910285072 0.3336300704076034 0.5237165545800442	0.121427
H	0.9396074039325952 0.2574795219282611 0.5331698760898171	0.116769
H	0.0627841386055124 0.1190703285611930 0.5335199450245185	0.116961
H	0.1388827493559694 0.0392487957442931 0.5250076372259963	0.105681
H	0.2057106915072301 0.9605838023260375 0.5261361864058859	0.086268
H	0.2849160122787396 0.8894826565670340 0.5254154304397792	0.104324
H	0.3559167378836481 0.8336620537767557 0.5237153335536234	0.121450
H	0.4395927281428534 0.7574867045233270 0.5331632400943882	0.116833
Co	0.4999797336699621 0.6879802281759413 0.7499896575827630	0.578485
Co	-0.0000053001560351 0.1879809676415357 0.7500062518276026	0.578729
Co	0.4999779330583718 0.3117915292894174 0.2499901079814836	0.579309
Co	-0.0000295134873609 0.8118004595759567 0.2499968241197735	0.579384
F	0.5002497223512571 0.6872245837530785 0.4500631819689329	-0.638390
F	0.0003220383879646 0.1873252968538508 0.4499981483201267	-0.638317
F	0.4992096160982490 0.3134301029101717 0.9498398052139454	-0.638227
F	-0.0007328743123652 0.8134635105026922 0.9498252661786344	-0.637874
F	0.5002142287249693 0.6872737730316184 0.0500479845547696	-0.638245
F	0.0003217837166409 0.1873133457890149 0.0499164304860730	-0.638285
F	0.4992342277779405 0.3134412393047848 0.5501906216960782	-0.638272
F	-0.0007330821418696 0.8134529062223895 0.5501793090403811	-0.637903
F	0.4776673860347559 0.7694621427564060 0.2501161234051999	-0.674188
F	0.5724886382025162 0.6674564398326904 0.2500313166081517	-0.669702
F	0.9771900836693321 0.2694035162749408 0.2499577146494818	-0.673894
F	0.0727571924037525 0.1682026337215897 0.2499676220375637	-0.669361
F	0.5705739438345636 0.2905029370969515 0.7500549299162699	-0.673295
F	0.4773823132563533 0.3958637422105230 0.7500322921269963	-0.666200
F	0.0698954874633691 0.7871113336013351 0.7500048498718955	-0.672506
F	0.9801860509185101 0.8964718439857138 0.7500088398271697	-0.666565
F	0.4478129337743384 0.6252080068233343 0.2500568792645060	-0.663169
F	0.9484171706375525 0.1247432397204809 0.2499770138340650	-0.663115
F	0.4456420210886228 0.2521070665780369 0.7500259561843479	-0.671035
F	0.9440299479095086 0.7540296844456356 0.7500280100346978	-0.670612
N	0.4413453800215175 0.6214103965722232 0.7499993809107129	-0.184760
N	0.5590003489536166 0.7540906233091927 0.7499955294540167	-0.191278
N	0.9413767370645363 0.1213924291084804 0.7499998094310778	-0.184546
N	0.0590175282501843 0.2540841562459693 0.7499995562246563	-0.191720
N	0.5586221406452526 0.3782846144007138 0.2499975129579747	-0.183801
N	0.4408699314977099 0.2457040415665085 0.2499979354316121	-0.192185
N	0.0586027469964632 0.8783055127193056 0.2499962629447409	-0.183754
N	0.9408631822126773 0.7457198606227038 0.2499988478790284	-0.192308
N	0.5585898208088975 0.6214457190583851 0.7500006429449676	-0.183139
N	0.4411517080976327 0.7543772163833874 0.7499938873518590	-0.190445
N	0.0586094632191782 0.1214461794008991 0.7499988408753854	-0.182804
N	0.9411663326304398 0.2543662843266593 0.7499994505865327	-0.190338
N	0.4415852314180503 0.3786009856512092 0.2499972257930010	-0.184939
N	0.5591926036900228 0.2458216167641232 0.2499948640636101	-0.192505
N	0.9415774363294254 0.8786015759009145 0.2499961013333794	-0.184713
N	0.0591870674195381 0.7458270472662922 0.2499961646165296	-0.192821
Al	0.4996620926100052 0.6873468227736396 0.2500899519813075	1.692596
Al	-0.0002232777751739 0.1874370149038080 0.2499761951986996	1.691769
Al	0.4983442850171357 0.3131576439156226 0.7500212455985859	1.694254
Al	-0.0014929848314308 0.8129606516339298 0.7500075012950873	1.692657
	  	
