#======================================================================

# CRYSTAL DATA

#----------------------------------------------------------------------

data_VESTA_phase_1


_pd_phase_name                         ALFFIVE_4_Zn_i
_cell_length_a                         23.69977
_cell_length_b                         20.75472
_cell_length_c                         9.33595
_cell_angle_alpha                      90.00062
_cell_angle_beta                       89.99986
_cell_angle_gamma                      89.99294
_symmetry_space_group_name_H-M         P 1
_symmetry_Int_Tables_number            1

loop_
_symmetry_equiv_pos_as_xyz
   x, y, z

loop_
   _atom_site_label
   _atom_site_fract_x
   _atom_site_fract_y
   _atom_site_fract_z
   _atom_site_charge
C	0.4153621863263998 0.5963448536027337 0.6270621882114962	0.103841
C	0.3721944026047704 0.5511513896229182 0.6250624591696339	-0.172188
C	0.2769872303277277 0.4487652461380041 0.6245845567338291	-0.119970
C	0.2314413466306003 0.4066878144848227 0.6233522744544249	-0.113297
C	0.1315180425445908 0.3204745578757842 0.6217753184260473	-0.168952
C	0.0853865483287485 0.2793152020424078 0.6253259741900077	0.097148
C	0.9154065556996177 0.0963060505650503 0.6270642671181458	0.104514
C	0.8722236341164277 0.0511252438302104 0.6250593603297169	-0.172758
C	0.7769870307466659 0.9487691046254926 0.6245809922190201	-0.119947
C	0.7314364719237397 0.9066962130364059 0.6233539854891845	-0.113252
C	0.6314943159589615 0.8205069371240716 0.6217783863596936	-0.168536
C	0.5853611925777601 0.7793510090827622 0.6253277061500573	0.097293
C	0.5847293690836821 0.4033642645307692 0.1272822213028458	0.105143
C	0.6278200950716093 0.4486592011825238 0.1250370105103513	-0.177346
C	0.7232720248800136 0.5507606669295618 0.1245743399587101	-0.116820
C	0.7686594853330871 0.5930175557166018 0.1233420025752740	-0.113474
C	0.8682623158904521 0.6795827975503683 0.1217250736897034	-0.169639
C	0.9143801641635938 0.7207481520755757 0.1250867601020431	0.096168
C	0.0846670578714339 0.9034783266907825 0.1272313136972756	0.104140
C	0.1277855624387773 0.9487348447395554 0.1250238813894039	-0.176649
C	0.2232929802542664 0.0507441976288291 0.1245770279906440	-0.116675
C	0.2686818431180795 0.0930006917383968 0.1233401595537894	-0.113328
C	0.3683211950739764 0.1795390645743195 0.1217397078750059	-0.169893
C	0.4144453503629932 0.2207017212070082 0.1251358006620652	0.096605
C	0.5850579760424630 0.5968140365895833 0.8728700012160596	0.104209
C	0.6279651302772298 0.5512695501454681 0.8749985346533028	-0.175283
C	0.7231239807322605 0.4487580138813520 0.8754300314194412	-0.119670
C	0.7686373427066306 0.4066512339408264 0.8766488939368920	-0.111307
C	0.8689022045788937 0.3210144314047779 0.8782590970660318	-0.168438
C	0.9151417081599057 0.2800033317210424 0.8748216141247470	0.096931
C	0.0850706205210749 0.0968168613387432 0.8728721569012570	0.104307
C	0.1279866879008352 0.0512867654957847 0.8749939264848148	-0.175524
C	0.2230966726858735 0.9487345699891602 0.8754353264642196	-0.119760
C	0.2686109086101058 0.9066297835535094 0.8766505299195390	-0.111330
C	0.3689014831609712 0.8210425624692043 0.8782599935537041	-0.168815
C	0.4151506943020848 0.7800466432998815 0.8748198416237107	0.096787
C	0.4159075404006417 0.4042450018000868 0.3729094488745258	0.103870
C	0.3725303924088617 0.4491752508630144 0.3749360759062462	-0.173806
C	0.2766767197748072 0.5507176316107885 0.3754389005722368	-0.117833
C	0.2312762445651665 0.5929856026813970 0.3766742068042503	-0.114977
C	0.1320290630630534 0.6802201446413321 0.3782461143161966	-0.168084
C	0.0859056985271535 0.7213958165192038 0.3747812911261946	0.095771
C	0.9159086947863846 0.9041945392072414 0.3728383855156441	0.104526
C	0.8725337405638199 0.9491334413716224 0.3749150635389647	-0.174367
C	0.7766853379172767 0.0507177782646445 0.3754412032227589	-0.117815
C	0.7312848118232003 0.0929894823590872 0.3766655730476894	-0.114885
C	0.6320461689948085 0.1802128035492206 0.3782652372558176	-0.168207
C	0.5859217760480875 0.2213824881797025 0.3748304696624561	0.095865
C	0.5847450901821998 0.4033833766053013 0.3727730035802658	0.104611
C	0.6278337258998586 0.4486734927582148 0.3749780761734160	-0.176808
C	0.7232710810222813 0.5507598194175420 0.3754155025020007	-0.116749
C	0.7686577894228769 0.5930166400705142 0.3766637763761831	-0.113530
C	0.8682714728789138 0.6795912870836012 0.3782558165269463	-0.169546
C	0.9143898485857828 0.7207582328019676 0.3748727280016997	0.096165
C	0.0846582834947728 0.9034696647786192 0.3727251793749739	0.103903
C	0.1277784911124717 0.9487269538629541 0.3749659494585804	-0.176664
C	0.2232944756318472 0.0507445113157451 0.3754163718694404	-0.116765
C	0.2686824826479416 0.0930009248407498 0.3766546749842030	-0.113244
C	0.3683060839929049 0.1795243345377368 0.3782739153263863	-0.170096
C	0.4144282204403820 0.2206829751315088 0.3749389219863923	0.096702
C	0.4153639448198658 0.5963453836119501 0.8729462505671596	0.103895
C	0.3721970123242068 0.5511507456263898 0.8749446029079651	-0.172262
C	0.2769888157191782 0.4487638065247790 0.8754278723758635	-0.119943
C	0.2314417062944940 0.4066874135653365 0.8766510203225479	-0.113330
C	0.1315181870473385 0.3204744993164881 0.8782310155853388	-0.168983
C	0.0853874664250046 0.2793140578121349 0.8746747913335193	0.097146
C	0.9154055571097217 0.0963067957060841 0.8729442476556359	0.104456
C	0.8722224607528860 0.0511275120706702 0.8749383067062501	-0.172659
C	0.7769858261503666 0.9487700057566317 0.8754250313894381	-0.120020
C	0.7314359038417080 0.9066969327097405 0.8766475134643229	-0.113317
C	0.6314930567726835 0.8205061167403630 0.8782278747544822	-0.168493
C	0.5853595326288281 0.7793495328506160 0.8746672548209691	0.097269
C	0.4159252880945609 0.4042252744329693 0.1271581233853752	0.104136
C	0.3725445072228924 0.4491592923412773 0.1250766252836506	-0.174022
C	0.2766758246613183 0.5507192187960108 0.1245547589910260	-0.117618
C	0.2312755330003645 0.5929868902302702 0.1233293527762096	-0.115104
C	0.1320387733268964 0.6802109213673811 0.1217438686350024	-0.168135
C	0.0859166472747645 0.7213847232882753 0.1251765197360289	0.095513
C	0.9159010140870542 0.9042055738366207 0.1271138445913177	0.104186
C	0.8725272907070755 0.9491417033024244 0.1250638157028860	-0.174192
C	0.7766861305962333 0.0507177617869759 0.1245621165995486	-0.117847
C	0.7312862785047087 0.0929900437516221 0.1233308928031182	-0.114935
C	0.6320300446932733 0.1802277959948307 0.1217711313388058	-0.168062
C	0.5859035635433610 0.2214013528530332 0.1252558885345997	0.095878
C	0.5850613381232359 0.5968132531342327 0.6271292464981738	0.104231
C	0.6279682858973850 0.5512707409085937 0.6250105826230866	-0.175416
C	0.7231262176632299 0.4487587403724397 0.6245741616150590	-0.119547
C	0.7686389648650210 0.4066513628022269 0.6233588999118980	-0.111476
C	0.8689027329268346 0.3210136450287560 0.6217430326949897	-0.168439
C	0.9151422003096715 0.2800020450711647 0.6251826344941086	0.096883
C	0.0850718341275197 0.0968163709601169 0.6271303213501308	0.104238
C	0.1279880368269798 0.0512857915251275 0.6250134471268448	-0.175454
C	0.2230969697196785 0.9487337837349901 0.6245630089068903	-0.119783
C	0.2686111344043174 0.9066291273418239 0.6233549899190078	-0.111319
C	0.3689014515325066 0.8210437871135784 0.6217369710750421	-0.168783
C	0.4151497327831878 0.7800479097229724 0.6251791180547960	0.096907
C	0.3481359489063496 0.5243617029248829 0.7500071581885526	0.111979
C	0.3015381279772100 0.4745446528633420 0.7500026745981109	0.068335
C	0.2059639157939903 0.3851209310808294 0.7500052872692085	0.065758
C	0.1563516225559132 0.3420277220714045 0.7499990809213990	0.103960
C	0.8481499917281363 0.0243544455617236 0.7500039599607686	0.111827
C	0.8015382586744864 0.9745483076200504 0.7499982970068926	0.067952
C	0.7059547214501809 0.8851373591845821 0.7500053853504118	0.066007
C	0.6563335734710606 0.8420523322047503 0.7499987485398116	0.103485
C	0.6519812319252134 0.4753972678533528 0.2499929960466687	0.113053
C	0.6986781105905837 0.5250758423239870 0.2499951242894180	0.066190
C	0.7939809388794701 0.6147520660192107 0.2500008282010555	0.070591
C	0.8434873536538801 0.6580120769444644 0.2500015132861944	0.101156
C	0.1519640901644277 0.9754250937399586 0.2499972522421483	0.113318
C	0.1986912263430868 0.0250683224886335 0.2500013754046747	0.065885
C	0.2940049847861206 0.1147313861436111 0.2499916078956448	0.070231
C	0.3435231567402505 0.1579769700093881 0.2500010339881361	0.101270
C	0.6519617861910485 0.5243624022464195 0.7500024492750037	0.110497
C	0.6985364490834878 0.4744827068917173 0.7500046265081444	0.064002
C	0.7941153076724087 0.3851116122508454 0.7500010328312832	0.068141
C	0.8439143733677932 0.3422861602761292 0.7500035890794690	0.102300
C	0.1519687609382004 0.0243722720103494 0.7500019177350634	0.110366
C	0.1985201903165740 0.9744688710336951 0.7500022987187647	0.064144
C	0.2940923504748795 0.8851021236932092 0.7499996695979156	0.067616
C	0.3439068373374892 0.8423031611302068 0.7500027958840151	0.102961
C	0.3482122673290199 0.4756455580819950 0.2499992340573290	0.114539
C	0.3013143946533466 0.5251085852398691 0.2499915881274690	0.069078
C	0.2060194793133762 0.6148386021071915 0.2500061779235939	0.067569
C	0.1566756506329011 0.6583865959418035 0.2500003548687084	0.101685
C	0.8482098686715781 0.9756242034964246 0.2499991952795534	0.115080
C	0.8013217268109846 0.0250996810578826 0.2499999283837530	0.069108
C	0.7060268829458732 0.1148419487290957 0.2499996101747678	0.067432
C	0.6566819948568048 0.1583906430470700 0.2500020500971078	0.101748
H	0.4331119710060617 0.6153446307368710 0.5272841844866470	0.111043
H	0.3592608067682649 0.5388751037060390 0.5184550705781261	0.106605
H	0.2927071528553925 0.4602095441291811 0.5198305970716187	0.087805
H	0.2160550131652559 0.3909554497889587 0.5191212494751782	0.102872
H	0.1477555610914308 0.3349233336994326 0.5176529627143641	0.117713
H	0.0652913109078558 0.2608405643395055 0.5280417648744751	0.109755
H	0.9331745061086342 0.1152818069469024 0.5272792008073940	0.110953
H	0.8592816668221666 0.0388526545123329 0.5184602025981153	0.106706
H	0.7927064698937388 0.9602103612520692 0.5198258936725073	0.087770
H	0.7160517081838745 0.8909605683745078 0.5191246510939285	0.102858
H	0.6477253714474341 0.8349704546050729 0.5176593157574337	0.117456
H	0.5652494114301239 0.7609003850361321 0.5280430920782705	0.109575
H	0.5667960056652398 0.3839279863591243 0.0282339942777731	0.109848
H	0.6407686438006036 0.4612173162260046 0.0185854895962759	0.104973
H	0.7078154369125269 0.5390525366244305 0.0197483476350079	0.087463
H	0.7840986299663104 0.6087235458200394 0.0191808474992700	0.103753
H	0.8521825061905134 0.6652592746055486 0.0173773687047641	0.119807
H	0.9341609482105692 0.7389476825346166 0.0270352874195547	0.110909
H	0.0666874968691538 0.8840863620178728 0.0282002510324651	0.110057
H	0.1407272627493772 0.9613056138465069 0.0185809225366225	0.104875
H	0.2078472111750813 0.0390261683350493 0.0197466135267631	0.087502
H	0.2841202157714596 0.1087065603191688 0.0191794409661844	0.103768
H	0.3522536073088260 0.1652023688594476 0.0173834084359712	0.119702
H	0.4342498823283573 0.2388942578406856 0.0271050836989598	0.111170
H	0.5676283597152842 0.6165035293672450 -0.0276748550908002	0.111631
H	0.6409571519781367 0.5389036170029129 -0.0184708453155493	0.105822
H	0.7076296495826722 0.4604198532572517 -0.0197460668460091	0.087660
H	0.7840449519832146 0.3909284409811905 -0.0191638026001423	0.103585
H	0.8528665358564782 0.3356305445488462 -0.0175417881987489	0.118577
H	0.9354267655004838 0.2621788735713799 -0.0274731491863277	0.111145
H	0.0676403087385035 0.1165228798035986 -0.0276911638263785	0.111647
H	0.1410026937550907 0.0389471635130776 -0.0184798670593819	0.105952
H	0.2075926616675850 0.9603863574954464 -0.0197448636152564	0.087533
H	0.2840221174630234 0.8909055022264472 -0.0191703684039729	0.103670
H	0.3528659936813325 0.8356579591661061 -0.0175397570591262	0.118644
H	0.4354439794168382 0.7622114550874876 -0.0275017830051762	0.111289
H	0.4341458191813801 0.3855301489141657 0.4723437735039370	0.110834
H	0.3597155350133723 0.4617726197970573 0.4814481494589458	0.105750
H	0.2921986118126458 0.5389912707861012 0.4801932848657534	0.087732
H	0.2158033701874838 0.6086427337173501 0.4808584171524246	0.103158
H	0.1483811824460705 0.6661294372261307 0.4824880849225950	0.118286
H	0.0662591405639540 0.7400965984844177 0.4725144821917325	0.110257
H	0.9341651742931993 0.8854692169603093 0.4722384520328021	0.110679
H	0.8597232312035780 0.9617382477425439 0.4814226161601998	0.105432
H	0.7922067196768915 0.0389985708222494 0.4802004219958855	0.087734
H	0.7158178638512488 0.1086512539898107 0.4808517678807071	0.103090
H	0.6484125645158241 0.1661141608286708 0.4824792145227341	0.118126
H	0.5662622026691504 0.2401008201274520 0.4725249518212128	0.109975
H	0.5668152247101318 0.3839500980541713 0.4718315513000452	0.109824
H	0.6407860071371027 0.4612361250353209 0.4814167796278827	0.104846
H	0.7078135150274890 0.5390496180067169 0.4802450490494309	0.087452
H	0.7840961959065574 0.6087230695119794 0.4808221220883795	0.103823
H	0.8521953212537544 0.6652699653800132 0.4826146939995929	0.119638
H	0.9341745552601842 0.7389631603473362 0.4729089107105959	0.111166
H	0.0666765617257396 0.8840757474784511 0.4717581670245268	0.110336
H	0.1407186178735207 0.9612969810582532 0.4814109699503903	0.104886
H	0.2078500009452972 0.0390252140468919 0.4802521924639158	0.087527
H	0.2841200762724944 0.1087069978972789 0.4808111682682241	0.103753
H	0.3522348726032097 0.1651846361916407 0.4826253413765419	0.119926
H	0.4342278682696356 0.2388714381981503 0.4729732398360944	0.110878
H	0.4331151324259651 0.6153453884231310 -0.0272813525290419	0.110954
H	0.3592641535475158 0.5388732533456850 -0.0184434217915595	0.106566
H	0.2927101511743179 0.4602075991096875 -0.0198230949381028	0.087812
H	0.2160548194784823 0.3909549921812254 -0.0191148205229157	0.102836
H	0.1477556500777951 0.3349234843750163 -0.0176513665315194	0.117709
H	0.0652911576824429 0.2608392844115902 -0.0280383410189831	0.109777
H	0.9331718512092252 0.1152818043091024 -0.0272719321299288	0.110967
H	0.8592804034806255 0.0388568377448768 -0.0184546111005505	0.106640
H	0.7927042326654070 0.9602117609710670 -0.0198242603944402	0.087812
H	0.7160507395128201 0.8909618385128601 -0.0191180598050619	0.102846
H	0.6477236534431193 0.8349695983165423 -0.0176559040650487	0.117468
H	0.5652484417610099 0.7608998184360732 -0.0280430960509909	0.109535
H	0.4341661359170632 0.3855053595100408 0.0277299134371676	0.110881
H	0.3597348354016139 0.4617528556591161 0.0185588460899906	0.105732
H	0.2921967609777743 0.5389939796576634 0.0197959077292780	0.087669
H	0.2158021307500123 0.6086446565702647 0.0191504447202817	0.103157
H	0.1483939512770480 0.6661169790575177 0.0175062559826963	0.118356
H	0.0662745347267672 0.7400832426090761 0.0274403215739833	0.110219
H	0.9341554452018315 0.8854862350606253 0.0277026841310264	0.110612
H	0.8597134780933940 0.9617495274598568 0.0185670572461780	0.105664
H	0.7922082710413020 0.0389979341612984 0.0198005880992162	0.087756
H	0.7158189927348700 0.1086512841092706 0.0191491476447579	0.103100
H	0.6483930793976241 0.1661316249298998 0.0175395705414342	0.118182
H	0.5662395152639099 0.2401213081371255 0.0275737544604777	0.110067
H	0.5676329127588620 0.6165030133806330 0.5276741011530591	0.111671
H	0.6409617887413633 0.5389053877314218 0.5184777663514606	0.105834
H	0.7076346330860958 0.4604206442035966 0.5197521469923839	0.087595
H	0.7840466561902951 0.3909278169919185 0.5191673421791014	0.103623
H	0.8528669434843306 0.3356285647565985 0.5175472124349343	0.118602
H	0.9354262451459975 0.2621770782564040 0.5274714874672092	0.111167
H	0.0676411042133240 0.1165209109403343 0.5276990616181343	0.111690
H	0.1410064735145445 0.0389450549343135 0.5184867708119267	0.105955
H	0.2075930521295343 0.9603854877138155 0.5197465862486755	0.087527
H	0.2840237769007811 0.8909052030811337 0.5191727870503049	0.103664
H	0.3528652162080833 0.8356594389014049 0.5175423093420775	0.118631
H	0.4354452306193829 0.7622127714508592 0.5274974162104018	0.111224
Zn	0.4997808282036806 0.6888237359484999 0.7498917462289493	0.740547
Zn	-0.0001998291871561 0.1888213882367697 0.7499971325995457	0.740506
Zn	0.4996843175948005 0.3107252847645688 0.2507655848646113	0.739796
Zn	-0.0002577440568601 0.8107126857008509 0.2496459923792819	0.739811
F	0.4993210913829339 0.6874622856968468 0.4606881519276092	-0.644168
F	-0.0004761119841368 0.1873760983948327 0.4605366336222348	-0.644780
F	0.4989414245866451 0.3114650282866917 0.9602642977450163	-0.644651
F	-0.0008746493418824 0.8115166142619894 0.9609880574813709	-0.644355
F	0.4993371872834579 0.6874314017117020 0.0395387560639607	-0.644194
F	-0.0004785013466589 0.1874227041452384 0.0394582402887068	-0.644721
F	0.4989234367655034 0.3114808098526041 0.5388027660734167	-0.643614
F	-0.0008915883721222 0.8115143460193385 0.5393740316732022	-0.644744
F	0.4778729525017834 0.7661062980553940 0.2500340842990430	-0.665799
F	0.5691006201439943 0.6644421576046978 0.2501068690101894	-0.661587
F	0.9774490135568414 0.2659331252887153 0.2500476050112110	-0.666694
F	0.0694635291522149 0.1653979489867407 0.2499490641079299	-0.662950
F	0.5688358138549505 0.2912873016066138 0.7496567057528641	-0.665181
F	0.4767092187558444 0.3910775024587482 0.7496759734629880	-0.659918
F	0.0682418815976029 0.7881149433091920 0.7500815891969336	-0.665650
F	0.9788882564474195 0.8915374800359116 0.7501353682247649	-0.661162
F	0.4478406894809105 0.6265379990538715 0.2500843292937294	-0.654713
F	0.9484502416685506 0.1261621409818081 0.2499605966988925	-0.655788
F	0.4466262585369367 0.2524404861854842 0.7497401935347353	-0.661704
F	0.9456431812960270 0.7535679845898695 0.7500936605894172	-0.662701
N	0.4372596019378602 0.6187510745376610 0.7499987303930146	-0.222859
N	0.5630035212944755 0.7589861877956066 0.7499988386696059	-0.231092
N	0.9373000442548186 0.1187073951079720 0.7500002075217139	-0.222982
N	0.0630212831425115 0.2589620883100507 0.7500039500839011	-0.231455
N	0.5628451124854219 0.3809332860191343 0.2500520092424970	-0.221524
N	0.4367640438191398 0.2410121427684801 0.2500516915150731	-0.233209
N	0.0627765520100992 0.8810356630319144 0.2499722224273002	-0.221670
N	0.9367250351425116 0.7410643372638064 0.2499643734645543	-0.233035
N	0.5631867063326731 0.6192562713195391 0.7499996005597788	-0.221371
N	0.4373990776932206 0.7595818074106077 0.7499949788575272	-0.232767
N	0.0631888670766043 0.1192407835789293 0.7500033911077494	-0.221216
N	0.9373898811162975 0.2595316980447193 0.7499995654464406	-0.232885
N	0.4377892095105509 0.3817924261047048 0.2500528804483273	-0.223839
N	0.5633872433759356 0.2414770345430759 0.2500661751704319	-0.231225
N	0.9377763434126039 0.8817539482229199 0.2499611536200871	-0.223502
N	0.0633920583827274 0.7414820275432946 0.2499704367223519	-0.231346
Al	0.4986547964559507 0.6862875873260446 0.2500026987325043	1.691367
Al	-0.0011429787378018 0.1863610265426672 0.2499921622450165	1.695817
Al	0.4980132491219824 0.3115263074073822 0.7500273024211863	1.695803
Al	-0.0018319411565672 0.8112914734715008 0.7499644232592517	1.699571
	  	
