#======================================================================

# CRYSTAL DATA

#----------------------------------------------------------------------

data_VESTA_phase_1


_pd_phase_name                         ALFFIVE_5_Fe_i
_cell_length_a                         19.69053
_cell_length_b                         19.69694
_cell_length_c                         15.33077
_cell_angle_alpha                      89.99993
_cell_angle_beta                       90.00011
_cell_angle_gamma                      89.98677
_symmetry_space_group_name_H-M         P 1
_symmetry_Int_Tables_number            1

loop_
_symmetry_equiv_pos_as_xyz
   x, y, z

loop_
   _atom_site_label
   _atom_site_fract_x
   _atom_site_fract_y
   _atom_site_fract_z
   _atom_site_charge
F	0.2871187400490918 0.1697464800166626 0.3520067684752468	-0.626795
F	0.1643370304599091 0.2645266832441008 0.3511338097091968	-0.642798
F	0.3064239991143383 0.3198877924115476 0.3517444125667917	-0.635194
F	0.6801579998457904 0.6934663301834919 0.1482276964988197	-0.634942
F	0.7354765676841718 0.8356226971118991 0.1489165095513936	-0.642567
F	0.8301911406469406 0.7129197310276263 0.1480691496899084	-0.626545
F	0.6642826670042653 0.7643987920762200 0.6486812358344056	-0.642867
F	0.7870139125737782 0.6697761461506884 0.6479917756240623	-0.626927
F	0.8063746209812931 0.8199020422605232 0.6482825656896649	-0.635308
F	0.1801570586672787 0.1935344617974677 0.8517396037616964	-0.635323
F	0.3302797548802452 0.2128924833366601 0.8519228673355304	-0.626691
F	0.2354689107717106 0.3356450532906702 0.8510906183124386	-0.642902
F	0.2498528279974634 0.2496286731458258 0.4705903395278352	-0.563714
F	0.2504344302841287 0.2493373138370147 0.2324300972623936	-0.564982
F	0.7503950622552812 0.7501941873035401 0.0294850836764317	-0.564000
F	0.7504992830921368 0.7495467573291372 0.2677034724928092	-0.564588
F	0.7499435802412850 0.7497719638781816 0.5293249985546538	-0.563487
F	0.7503367748562931 0.7493242293381661 0.7675160537172839	-0.565131
F	0.2504547659278442 0.2501781959760658 0.9705256275004946	-0.563910
F	0.2506424114734060 0.2496088565834014 0.7323661629361210	-0.565028
N	0.3516428247396554 0.2477917795408774 0.6004177854287521	-0.258210
N	0.1485293799171159 0.2523225763276748 0.6022064975898531	-0.257183
N	0.2523204650081129 0.3517114729146381 0.6009703844393677	-0.257364
N	0.2475813183122207 0.1481473473769191 0.6023570143634389	-0.257650
N	0.6485879949751020 0.7475717279302423 0.8990443826673390	-0.257312
N	0.8515425367182233 0.7525249834832411 0.8976381128711493	-0.256412
N	0.7477949253128405 0.8516690816702012 0.8977696515077797	-0.256171
N	0.7520840696702112 0.6481643468234223 0.8995687748152734	-0.258660
N	0.6483761885101360 0.7525179549984702 0.3978877558831135	-0.255820
N	0.8517821869342649 0.7476115291801911 0.3996461274984912	-0.258642
N	0.7477767035900119 0.6482063643791323 0.3975586132651160	-0.257705
N	0.7521083215095148 0.8516571790566818 0.3989269913747273	-0.256621
N	0.3517657147974553 0.2525636461197411 0.1023595353124915	-0.257394
N	0.1483783941711361 0.2475526093957011 0.1009492052801284	-0.256738
N	0.2520627032015871 0.1482110857742722 0.1004154763831616	-0.258933
N	0.2478336682726666 0.3516189029178799 0.1022065893936375	-0.256791
C	0.3856633224766995 0.2175634925931882 0.6662854219721192	0.093586
C	0.4560520738179089 0.2159906018690218 0.6699530014903621	-0.180360
C	0.4945381942289305 0.2471262483024099 0.6041830790269862	0.099457
C	0.4584052206854107 0.2781864998974567 0.5360044464555278	-0.183503
C	0.3878774234828552 0.2772745476604879 0.5358501232165436	0.095071
C	0.5692209714118677 0.2478723906320413 0.6076821157673998	0.053491
C	0.6056588552669350 0.1910112660496904 0.6375282643959264	-0.132736
C	0.6761903278924822 0.1918193814806372 0.6404767114275352	-0.123526
C	0.7127188710072462 0.2498790435831194 0.6152920473444871	0.067474
C	0.6762673292482302 0.3070797528184433 0.5868504132840150	-0.118659
C	0.6057814569213698 0.3058536303303132 0.5822796842483610	-0.127916
C	0.1145076400770890 0.2825583326086058 0.6680411504791112	0.100839
C	0.0441173204581934 0.2840879329845140 0.6717283302856484	-0.180836
C	0.0056356077911958 0.2528167247504981 0.6059242841166794	0.104374
C	0.0417473270977309 0.2219865795519760 0.5376265969589694	-0.179235
C	0.1122140963716865 0.2230776803260696 0.5376857656173181	0.104373
C	0.9309284629137878 0.2521332322912270 0.6087883982987130	0.053990
C	0.8943850732340801 0.3090848288298393 0.6380668432240032	-0.132285
C	0.8238442107250720 0.3083154151574829 0.6405565140137131	-0.122382
C	0.7873834264595709 0.2502251652540467 0.6153586938936657	0.066755
C	0.8238927553699947 0.1930559450342489 0.5869583927438318	-0.117089
C	0.8944051087016452 0.1942286515481427 0.5828647750817639	-0.129386
C	0.2823923599095505 0.3856999499403624 0.6668400711137059	0.105223
C	0.2839836837020381 0.4560379774836965 0.6705621099190550	-0.177674
C	0.2528945381635888 0.4944599950855205 0.6046413140237202	0.102713
C	0.2218381168534052 0.4583645041958644 0.5364240856120654	-0.182136
C	0.2227859903687432 0.3879102129081274 0.5365629500473804	0.102329
C	0.2521821324555722 0.5691273824565229 0.6079256253407914	0.052206
C	0.3090636765173128 0.6055971479221074 0.6376365434205929	-0.131420
C	0.3082497842090086 0.6761132471265547 0.6404610880172957	-0.123698
C	0.2501595195855466 0.7126249399632079 0.6152588224506896	0.067451
C	0.1929688916426620 0.6761605488218194 0.5868241396270553	-0.118161
C	0.1942064540341942 0.6056939349092346 0.5823741162659067	-0.127045
C	0.2174508289541386 0.1142600137333227 0.6684409445876408	0.094059
C	0.2159544910081161 0.0438631113842291 0.6719022519229397	-0.182132
C	0.2471537741372453 0.0054222086648881 0.6060292847275093	0.100834
C	0.2779893647746975 0.0415142363543712 0.5377698314253260	-0.179705
C	0.2769498023175659 0.1119820658361468 0.5377374346457459	0.091632
C	0.2478257847943678 0.9307580010480700 0.6088225657945703	0.054684
C	0.1908650913355474 0.8942506946128116 0.6380882729832622	-0.133035
C	0.1916500072830569 0.8237331426269083 0.6405340694361608	-0.122245
C	0.2497722427661156 0.7872736073682296 0.6153253642505363	0.066822
C	0.3069512086183745 0.8237801963316030 0.5869407359184945	-0.117294
C	0.3057418994290430 0.8942623691503172 0.5828469892071251	-0.129759
C	0.6145719541008849 0.7175266858141556 0.8331798759360044	0.105900
C	0.5442132339739808 0.7159678439811296 0.8294528044938797	-0.180031
C	0.5057651995962419 0.7470860523068825 0.8953585463934192	0.102768
C	0.5419189553628108 0.7781601614494850 0.9635433867033266	-0.180398
C	0.6123893779988824 0.7771525805931919 0.9634182465585115	0.100856
C	0.4310622553972150 0.7478213111122418 0.8920756165497018	0.053793
C	0.3945600445888240 0.6909760141249113 0.8623730055495997	-0.131467
C	0.3240068292996577 0.6917786887170434 0.8595593679766660	-0.124078
C	0.2874154128124266 0.7498325296068018 0.8847663997971420	0.067241
C	0.3239538762440772 0.8069967470968116 0.9131844436535045	-0.117674
C	0.3944623550420804 0.8057602150382288 0.9176228953021743	-0.127981
C	0.8854535498431182 0.7826217396477192 0.8315641656506660	0.092485
C	0.9558763742422349 0.7841000841698338 0.8281123528583147	-0.179670
C	0.9943468285395761 0.7528725988624176 0.8939741459598119	0.100015
C	0.9581917468243347 0.7220174191121000 0.9621923938895854	-0.181095
C	0.8877077907895086 0.7231147866128915 0.9622299294715263	0.091134
C	0.0690447878979623 0.7521744893045256 0.8911664399364346	0.055572
C	0.1055902911963380 0.8090942918976207 0.8619062159134706	-0.132799
C	0.1761458782869381 0.8083182921985159 0.8594748535941810	-0.122315
C	0.2126798101129151 0.7502314621379672 0.8846939851803991	0.066030
C	0.1760942719705738 0.6930776194731093 0.9130667939646501	-0.117329
C	0.1055717202008356 0.6942887541821373 0.9171286991599105	-0.130072
C	0.7175310582510313 0.8856288760774421 0.8319242281524020	0.100161
C	0.7159718122524780 0.9559851066877246 0.8282425856469290	-0.181036
C	0.7472250847299124 0.9944332194357400 0.8940841771009723	0.104568
C	0.7780468079704743 0.9583673963061345 0.9624171881657555	-0.179072
C	0.7770059136984598 0.8879251731482680 0.9623353153488347	0.104124
C	0.7478746213472167 0.0691167146202499 0.8912366634361600	0.053819
C	0.6909087319000757 0.1056484300443437 0.8619504616436611	-0.132306
C	0.6916706741669454 0.1761649915195869 0.8594610903031620	-0.122553
C	0.7497805332932065 0.2126250799905512 0.8846576645555188	0.066870
C	0.8069678070667430 0.1761211319054040 0.9130637250164458	-0.117186
C	0.8057841649485169 0.1056345606761820 0.9171739506525440	-0.128884
C	0.7823349239231848 0.6142159477517246 0.8336731328737792	0.093175
C	0.7839414720559338 0.5438563184872862 0.8300133954117319	-0.179424
C	0.7528333864972071 0.5054000912271386 0.8958229206581620	0.099850
C	0.7217782360527586 0.5414814137396000 0.9640377053099241	-0.184580
C	0.7226358445720910 0.6119846901333427 0.9641761434083129	0.096975
C	0.7521275096967113 0.4307396752278391 0.8923387640341760	0.053513
C	0.8090018032485933 0.3943149978439017 0.8624861139487067	-0.132847
C	0.8082032168573087 0.3238071275773138 0.8595401969466467	-0.123321
C	0.7501285462364816 0.2872786637638361 0.8847224916489755	0.067568
C	0.6929090402276881 0.3237216380715965 0.9131724381897115	-0.119053
C	0.6941416833984725 0.3941805798446075 0.9177570333739179	-0.127408
C	0.6144056399756865 0.7826577290962330 0.3319756530592806	0.101241
C	0.5440245073805544 0.7841047163266764 0.3282383396366804	-0.180612
C	0.5055779396284574 0.7528245619770649 0.3940698881470449	0.104105
C	0.5416683306547476 0.7220109984738138 0.4623952634112293	-0.178100
C	0.6121253265353318 0.7231654587718052 0.4623575347059842	0.102363
C	0.4308827718895955 0.7521331587910185 0.3912107479916725	0.053804
C	0.3943622612730566 0.8090917186077670 0.3619378798036456	-0.132194
C	0.3238267913325986 0.8083240914447044 0.3594479620174316	-0.122814
C	0.2873800324121835 0.7502235886019898 0.3846449515867779	0.067210
C	0.3238818462528559 0.6930473595640241 0.4130493578611552	-0.117378
C	0.3943870386473159 0.6942242091473496 0.4171501382117523	-0.129079
C	0.8857497398936365 0.7174845973348614 0.3336963700591933	0.093683
C	0.9561364302330211 0.7159851339478264 0.3299935415529855	-0.179806
C	0.9945871526686263 0.7471192210653476 0.3957978941273566	0.099642
C	0.9584709729250173 0.7781637000418342 0.4640047210789500	-0.184269
C	0.8879535394010630 0.7771904325443866 0.4641735367700874	0.095788
C	0.0692619923910714 0.7478699026477782 0.3923123496174019	0.053758
C	0.1056758600359009 0.6909992457320889 0.3624724009909390	-0.132889
C	0.1762013683007302 0.6918073108082603 0.3595260650642263	-0.123360
C	0.2127187765817527 0.7498748239428510 0.3847122267482818	0.067133
C	0.1762760071851706 0.8070833627350078 0.4131564300927948	-0.118350
C	0.1057974098854235 0.8058550481868366 0.4177326667978475	-0.128216
C	0.7175493168718274 0.6142908453559582 0.3315500797831662	0.093939
C	0.7159706497599759 0.5438927944955343 0.3281322003392263	-0.182285
C	0.7471584404655564 0.5054245334155422 0.3939951436036174	0.100890
C	0.7780161731303796 0.5415256871275431 0.4622264026127423	-0.180167
C	0.7770402927337418 0.6120004786571360 0.4622264665810198	0.092086
C	0.7478180864671679 0.4307525488100438 0.3911946385169895	0.054721
C	0.6908608259469817 0.3942483528794052 0.3619240967257358	-0.133034
C	0.6916497878253454 0.3237307843131055 0.3594656322249750	-0.122302
C	0.7497731745797400 0.2872750887603770 0.3846639885628656	0.066853
C	0.8069526134409011 0.3237795947078075 0.4130542595518242	-0.117511
C	0.8057403341753673 0.3942572627749996 0.4171493607435540	-0.129665
C	0.7822837471589951 0.8856765679775837 0.3331384855205324	0.104388
C	0.7839676770660134 0.9560124384289219 0.3294735612391322	-0.177843
C	0.7528907479112831 0.9944632362069744 0.3953807912089803	0.102631
C	0.7218051960376562 0.9583561656854912 0.4635686438363325	-0.182410
C	0.7226784527483727 0.8878953747520101 0.4633880989466369	0.102893
C	0.7521915580446517 0.0691348345055904 0.3920857652729076	0.052156
C	0.8090703639434610 0.1055986407194771 0.3623722845925397	-0.131323
C	0.8082509834702877 0.1761133658342762 0.3595367378416263	-0.123729
C	0.7501593143118540 0.2126255982261721 0.3847341911934918	0.067287
C	0.6929677324473686 0.1761638698623642 0.4131748029291247	-0.118013
C	0.6942102115598821 0.1056979569043571 0.4176229567951839	-0.126919
C	0.3857014322589613 0.2826647066454627 0.1684342002352883	0.094476
C	0.4561237207594452 0.2841173093641646 0.1718962950410473	-0.182158
C	0.4945592514403234 0.2528972841841055 0.1060393316692671	0.100754
C	0.4584419704026713 0.2220700538747934 0.0377996613391878	-0.180272
C	0.3879571188142127 0.2231708459071735 0.0377532841027067	0.091454
C	0.5692398914507010 0.2521818302489962 0.1088483708998787	0.054972
C	0.6057444565692840 0.3091338917526800 0.1381078273011681	-0.133295
C	0.6762779955443323 0.3083460581634547 0.1405532078099637	-0.121827
C	0.7127185217084965 0.2502302063080090 0.1153416976889105	0.066456
C	0.6762212422933176 0.1930543395101872 0.0869639989387367	-0.117438
C	0.6057207794925455 0.1942626329630772 0.0828843838791632	-0.129883
C	0.1143499440630883 0.2174999596329178 0.1668130077698643	0.104845
C	0.0439872121396062 0.2159501924996918 0.1705421631935519	-0.178314
C	0.0055586621085160 0.2470534396099120 0.1046362613824420	0.103283
C	0.0416774465449946 0.2781035356008012 0.0364331801190040	-0.182004
C	0.1121514698983254 0.2771020662670619 0.0365533494412489	0.101856
C	0.9308736080321866 0.2478123538974060 0.1079489825805768	0.052157
C	0.8944139233662750 0.1909397209511108 0.1376543530158677	-0.131626
C	0.8238811978682268 0.1917602531057658 0.1404812663069543	-0.123561
C	0.7873822520087740 0.2498461451597106 0.1152737262854435	0.067553
C	0.8238418304360067 0.3070301684574358 0.0868449336033264	-0.118103
C	0.8943295966711706 0.3057941860580588 0.0824101570715275	-0.127001
C	0.2823153420258591 0.1142529092050004 0.1663048239683041	0.093611
C	0.2839393162696603 0.0438907376106308 0.1699629455996503	-0.179815
C	0.2528282587352783 0.0054125254664680 0.1041701588448006	0.099775
C	0.2217523518306178 0.0415058426044541 0.0359739649840762	-0.184527
C	0.2225992893895110 0.1120110593453233 0.0358275443887749	0.096825
C	0.2521276659624762 0.9307431527659484 0.1076605096092788	0.053252
C	0.3090035795761104 0.8943174755132429 0.1375114593498490	-0.132751
C	0.3082025073630734 0.8238109636289676 0.1404627327719480	-0.123368
C	0.2501260737475313 0.7872810902504457 0.1152882168711604	0.067481
C	0.1929089510673442 0.8237211857976904 0.0868323606394961	-0.119005
C	0.1941435680527211 0.8941804391396779 0.0822461943723584	-0.127336
C	0.2175625815481336 0.3855781389041966 0.1680455986389448	0.100646
C	0.2159849622508362 0.4559399078140489 0.1717303164602818	-0.181189
C	0.2472386511728555 0.4944129117627802 0.1059048077767075	0.104181
C	0.2780837105422117 0.4583402969449831 0.0375860485902086	-0.178807
C	0.2770583030687737 0.3878971647436285 0.0376611436583950	0.104000
C	0.2478757061355703 0.5691087800311986 0.1087592549558227	0.053825
C	0.1909081315411618 0.6056409913960576 0.1380452080181446	-0.132186
C	0.1916690975853868 0.6761597814724921 0.1405440481598390	-0.122668
C	0.2497786423016457 0.7126224165510894 0.1153544321594618	0.066855
C	0.3069647170533538 0.6761199742497604 0.0869402499833424	-0.117179
C	0.3057823918840882 0.6056353862347225 0.0828270890879740	-0.128994
H	0.3551660318857002 0.1965022072757831 0.7189784692126298	0.102873
H	0.4805009473403613 0.1924188816300307 0.7260918456646166	0.113554
H	0.4850507080771660 0.3022335249740801 0.4818568207957557	0.111556
H	0.3588091684451971 0.2998631386105273 0.4826276614505204	0.099827
H	0.5780998046001390 0.1453886345335803 0.6570450426474526	0.099108
H	0.7036251005427454 0.1472786099396625 0.6637833927374357	0.100000
H	0.7037110765607315 0.3521350734147651 0.5652768451613777	0.101276
H	0.5783978089906399 0.3506932437595775 0.5597039213177665	0.102345
H	0.1456209627261635 0.3050055032275075 0.7192216627313919	0.094227
H	0.0194143315065234 0.3080187550451860 0.7274324368756208	0.110970
H	0.0151866344578208 0.1985636135728979 0.4829739351112651	0.112232
H	0.1413571711981711 0.2018668075500475 0.4839617519231929	0.097967
H	0.9218540755702681 0.3548056490113626 0.6574300621553160	0.098502
H	0.7963614206393449 0.3529145443871285 0.6635629157281716	0.100458
H	0.7964866187069982 0.1480396770084661 0.5651425485637092	0.101278
H	0.9217842583459570 0.1493795841118560 0.5602881018393012	0.102740
H	0.3035197048538246 0.3547549069262761 0.7188977524859143	0.096646
H	0.3074395630944063 0.4806320635073342 0.7266516906803244	0.112392
H	0.1979524699140197 0.4850144027953698 0.4821682064893018	0.111520
H	0.2000054875307626 0.3584670591272272 0.4840133209561489	0.094528
H	0.3547327904557134 0.5780755536536092 0.6571442170422424	0.098254
H	0.3528207040904217 0.7035001468431378 0.6637259820445406	0.100691
H	0.1478638351463017 0.7035350881631184 0.5652208514190090	0.101184
H	0.1493271276812064 0.5783244200248946 0.5598872699248874	0.102288
H	0.1954235184913699 0.1450289035803083 0.7204232222487097	0.099910
H	0.1919308196239932 0.0191982844276910 0.7275518667983412	0.110731
H	0.3016012402890750 0.0150390882591711 0.4831807455052010	0.111924
H	0.2983033929356398 0.1408262037237136 0.4836286143020904	0.104484
H	0.1451924037927107 0.9217773968508461 0.6575622607058704	0.098859
H	0.1470398339735440 0.7963221592536974 0.6635833451272760	0.099845
H	0.3520188673824047 0.7964488434922925 0.5651285260572362	0.101041
H	0.3505437316751289 0.9217000616408731 0.5602639031905491	0.103001
H	0.6455997519201667 0.6964129920771366 0.7812010493162902	0.096819
H	0.5196980212513781 0.6925099883585204 0.7732952026812679	0.113082
H	0.5153673129334653 0.8021437431136413 0.0178197044335371	0.111229
H	0.6419303562354495 0.7998625710717386 0.0159283202838469	0.094554
H	0.4220818996196496 0.6453110599867012 0.8428688755563108	0.097995
H	0.2966669287081874 0.6471821167570122 0.8362825633762612	0.100806
H	0.2966300458040608 0.8521327196761025 0.9348108026099420	0.101138
H	0.4218270361028001 0.8506288995525654 0.9401159223453318	0.102147
H	0.8546136701699873 0.8046291399138323 0.7796452778999747	0.099358
H	0.9804652748273368 0.8081208600497117 0.7723950557760227	0.110587
H	0.9845577812460987 0.6983129958351105 0.0168072986289208	0.112965
H	0.8587633325381924 0.7018488456520456 0.0163094325871862	0.104339
H	0.0780633813841463 0.8547661373495956 0.8424509865619323	0.098674
H	0.2035107893971479 0.8529625121070513 0.8364228644142981	0.099873
H	0.2033762402531731 0.6479836269208813 0.9349065420525565	0.101439
H	0.0781358363064013 0.6495035699471681 0.9397377429962536	0.102976
H	0.6951355854199128 0.8544773193170511 0.7807367982175686	0.094668
H	0.6919876209334832 0.9806682020394935 0.7725816868966974	0.110916
H	0.8014109380843646 0.9849167027944787 0.0171066658508630	0.112047
H	0.7982702874853679 0.8587463581579410 0.0159987288452737	0.098164
H	0.6451875634349544 0.0781879711537518 0.8425535419562015	0.098596
H	0.6470494544728005 0.2036053471050098 0.8364305597801546	0.100588
H	0.8520168245816374 0.2034805081279853 0.9348692612238211	0.101272
H	0.8506402994542803 0.0782521442365245 0.9397289045680921	0.102613
H	0.8033464018990435 0.6447468794299870 0.7809722060837172	0.102840
H	0.8075767430606158 0.5194237665058399 0.7739231357055086	0.113274
H	0.6977956510132808 0.5148426297281076 0.0182180616648362	0.111736
H	0.7000039882565000 0.6410743073881123 0.0173553776562376	0.099395
H	0.8546221382963773 0.4218693355882408 0.8429364961228912	0.099111
H	0.8527676134458573 0.2964180295551669 0.8362076913026111	0.099941
H	0.6478200529444311 0.2963244222986081 0.9347379248974138	0.101335
H	0.6492959289438136 0.4215685326191848 0.9403126414369006	0.102186
H	0.6455710391614137 0.8050666361353451 0.2808245428022058	0.093927
H	0.5193016346704220 0.8079845640827773 0.2725144087954538	0.110531
H	0.5151129533823026 0.6985551995265021 0.5170269127370412	0.112057
H	0.6413039632754873 0.7019308266998265 0.5160366780205833	0.098367
H	0.4218528687179006 0.8547972472935164 0.3425733475309643	0.098506
H	0.2963581088553811 0.8529266828968024 0.3364338384884122	0.100644
H	0.2964892649717244 0.6480249149588595 0.4348599407821174	0.101289
H	0.4217888248046791 0.6493873498659876 0.4397127804094341	0.102739
H	0.8552029120529683 0.6964651107017829 0.2810244754772158	0.102917
H	0.9806008346740177 0.6924546169563810 0.2738429402048246	0.113299
H	0.9851098113095424 0.8022309189856378 0.5181386731379917	0.111724
H	0.8588425708778945 0.7998118190315422 0.5173352539373487	0.099748
H	0.0781027602394792 0.6453910908878547 0.3429511810298085	0.099145
H	0.2036253304177457 0.6472665466043153 0.3362091060110078	0.099962
H	0.2037052525414673 0.8521460581068427 0.4347252490821605	0.101244
H	0.0783942078246608 0.8506817073181829 0.4402965571049391	0.102381
H	0.6955002090153012 0.6450199853706030 0.2795509072290898	0.099854
H	0.6919117651223020 0.5192526232895280 0.2724841516032795	0.110761
H	0.8015624158934539 0.5150578451869277 0.5168682760646719	0.111936
H	0.7983482009243292 0.6408266745394485 0.5163736226302076	0.104440
H	0.6451742765588521 0.4217493292540566 0.3424542001061684	0.099027
H	0.6470521532344226 0.2962861995990655 0.3364263127020659	0.099783
H	0.8520089707253325 0.2964107077441043 0.4348707607116720	0.101044
H	0.8505499369935218 0.4216718068256490 0.4397341878104642	0.103031
H	0.8034153319996011 0.8547710314041111 0.2810483291820565	0.096752
H	0.8074709234465139 0.9805850517113487 0.2733951947050098	0.112406
H	0.6979907064529886 0.9850078842077694 0.5178776903911154	0.111523
H	0.6999386837883163 0.8584721768831601 0.5159762056705106	0.094303
H	0.8547488465496895 0.0781002486523018 0.3428706719130207	0.098248
H	0.8528114358450374 0.2035354557044417 0.3362760340862562	0.100691
H	0.6478749737030934 0.2035706163361415 0.4347742743903126	0.101132
H	0.6493246053700630 0.0783490633762404 0.4401124476551816	0.102206
H	0.3549540660299222 0.3047647834916361 0.2203902768982822	0.099491
H	0.4807981195106886 0.3080695435578785 0.2275874975257189	0.110729
H	0.4849191899179206 0.1984193670619644 0.9832377778370498	0.112409
H	0.3591114398516720 0.2019237593454890 0.9835779117382473	0.104459
H	0.5782131422399397 0.3548046511712439 0.1575445277000158	0.099055
H	0.7037508294075294 0.3529247027791329 0.1635746895831355	0.099747
H	0.7036126201783998 0.1480252051808687 0.0651418338980354	0.101087
H	0.5782824387995035 0.1494779318418152 0.0602836968635232	0.103074
H	0.1452806951617188 0.1963006587783355 0.2188384813323774	0.096920
H	0.0193866034898191 0.1925747474056971 0.2266858015621627	0.112585
H	0.0150207514134464 0.3020456601064270 0.9822189468422701	0.111272
H	0.1415986706804701 0.2997836138535458 0.9839348274725969	0.094441
H	0.9219393479287220 0.1452794244892252 0.1571267308943751	0.098315
H	0.7964319373256674 0.1472177704232139 0.1637220686926945	0.100640
H	0.7964048770026793 0.3520942239297253 0.0652363595160500	0.101165
H	0.9216938727773358 0.3506571972164408 0.0599068702031547	0.102327
H	0.3032922533983279 0.1447668851751726 0.2190331538944973	0.102807
H	0.3075800475526219 0.0194462046765560 0.2260455473824002	0.113390
H	0.1977682366298732 0.0148501744108021 0.9818057494004071	0.111764
H	0.1999114994281871 0.1410712166033159 0.9826708143968816	0.099460
H	0.3546256648918698 0.9218647437533734 0.1570636287328516	0.099109
H	0.3527587375221830 0.7964136954380258 0.1637976672995385	0.099960
H	0.1478237926689544 0.7963166044736727 0.0652754337966281	0.101326
H	0.1492954972751125 0.9215620116360146 0.0596964177258138	0.102189
H	0.1952049596373258 0.3544397907382536 0.2192623942018656	0.094615
H	0.1919892956397541 0.4806374994827927 0.2273776324002372	0.111156
H	0.3014409628959331 0.4849109379910539 0.9829119331348681	0.112089
H	0.2983896328060610 0.3587507150678525 0.9840137688818736	0.098237
H	0.1451870013996013 0.5781884973691829 0.1574403448150298	0.098516
H	0.1470542186246194 0.7036087194535725 0.1635739951478154	0.100676
H	0.3520099057774347 0.7034893594831547 0.0651430165444359	0.101274
H	0.3506402416079172 0.5782588308539967 0.0602755611558626	0.102687
Fe	0.2500875831801821 0.2499031191013276 0.6011471579528000	0.870661
Fe	0.7500917619254369 0.7499132554562539 0.8988362009780513	0.870455
Fe	0.7500755705360064 0.7499088902302820 0.3988527546127394	0.869702
Fe	0.2501058197326110 0.2499122381036486 0.1011483718787517	0.869971
Al	0.2516125106655320 0.2507906683946224 0.3516657265883328	1.671579
Al	0.7491563080169206 0.7483809588015277 0.1484019242044926	1.671122
Al	0.7515669817272105 0.7508234803904074 0.6483199864942161	1.672159
Al	0.2492170381802309 0.2483929034390546 0.8516328340860930	1.671947
	  	
