#======================================================================

# CRYSTAL DATA

#----------------------------------------------------------------------

data_VESTA_phase_1


_pd_phase_name                         ALFFIVE_4_Cd_i
_cell_length_a                         24.39782
_cell_length_b                         21.25352
_cell_length_c                         9.24981
_cell_angle_alpha                      90.00032
_cell_angle_beta                       89.99974
_cell_angle_gamma                      89.98099
_symmetry_space_group_name_H-M         P 1
_symmetry_Int_Tables_number            1

loop_
_symmetry_equiv_pos_as_xyz
   x, y, z

loop_
   _atom_site_label
   _atom_site_fract_x
   _atom_site_fract_y
   _atom_site_fract_z
   _atom_site_charge
C	0.4100373067477920 0.5947529830138419 0.6261193758964753	0.101794
C	0.3679298307718601 0.5507624560191324 0.6238875696265553	-0.172525
C	0.2755090033547888 0.4500386920648194 0.6236687460634907	-0.119547
C	0.2317531635409854 0.4082949760623834 0.6224123610873139	-0.114433
C	0.1346234544264769 0.3240859622190332 0.6205454937510995	-0.169830
C	0.0892315224889287 0.2847048718479973 0.6245008127749525	0.098480
C	0.9100977397442522 0.0946832557692649 0.6261181108080219	0.102924
C	0.8679631375806762 0.0507241939900737 0.6238869125638168	-0.172578
C	0.7755004808048007 0.9500347880109028 0.6236675558525882	-0.119990
C	0.7317408971226281 0.9082948546499161 0.6224123072877397	-0.113955
C	0.6345807264447992 0.8241260108470404 0.6205519634301723	-0.168941
C	0.5891753830539523 0.7847609166369112 0.6245075385466939	0.097958
C	0.5903307946496674 0.4045536081319443 0.1263050148220024	0.102303
C	0.6321638158319840 0.4488758534859701 0.1238869054331113	-0.175680
C	0.7246122091598860 0.5495250924753233 0.1237112066587528	-0.118001
C	0.7683050131176012 0.5913404107980058 0.1223925023540326	-0.114048
C	0.8650014008445308 0.6760585191074819 0.1205061411282929	-0.168675
C	0.9102264648631729 0.7157311370808153 0.1241837700881552	0.096282
C	0.0902229979250868 0.9046924858606760 0.1263073247105335	0.102836
C	0.1321181209088832 0.9489388230453890 0.1238882863368037	-0.175808
C	0.2246235975007436 0.0495230676561507 0.1237094709485512	-0.117809
C	0.2683128329846937 0.0913445469466588 0.1223876513575839	-0.113941
C	0.3650501699959423 0.1760106565477423 0.1205030415152397	-0.169274
C	0.4103086112248690 0.2156374829811044 0.1241699663728312	0.096321
C	0.5906870946764563 0.5956736742318303 0.8738431174611598	0.103193
C	0.6322873599599264 0.5510087548653739 0.8761318883492057	-0.176857
C	0.7245498603723234 0.4499625415642255 0.8763106970690775	-0.119518
C	0.7682998339282078 0.4081947769439576 0.8775964732958228	-0.112463
C	0.8657404519473505 0.3244552852755499 0.8794940739901043	-0.168833
C	0.9113292274988980 0.2853104713564367 0.8757111876925014	0.097325
C	0.0907006086870345 0.0956970451959249 0.8738403706908145	0.103506
C	0.1322998916020129 0.0510368241468938 0.8761275903337052	-0.176717
C	0.2245283956912805 0.9499495515669485 0.8763183446948467	-0.119542
C	0.2682806165212501 0.9081853237449893 0.8775985781407114	-0.112556
C	0.3657417382126770 0.8244790675075900 0.8794965396639507	-0.169140
C	0.4113453646910612 0.7853581271225011 0.8757034182178651	0.097491
C	0.4107657244777915 0.4059139439811817 0.3738347602562557	0.102694
C	0.3682788563881307 0.4494390988100996 0.3761100777794090	-0.173363
C	0.2753214683396845 0.5494193080090549 0.3763267726093864	-0.118209
C	0.2316260733077802 0.5912697623323275 0.3776203240584202	-0.115406
C	0.1352853097925044 0.6766266552769599 0.3794927763386874	-0.169874
C	0.0901663550875877 0.7164622834135423 0.3756782600887062	0.096322
C	0.9107667335795496 0.9058794134389558 0.3738152375838303	0.102771
C	0.8682828993737230 0.9494113347337294 0.3761075273592626	-0.172940
C	0.7753384020317808 0.0494259289923170 0.3763247444038516	-0.118431
C	0.7316405747580873 0.0912776820093128 0.3776188354686148	-0.114995
C	0.6352759050737985 0.1766136418514630 0.3794936890389598	-0.169618
C	0.5901466793009387 0.2164326231290441 0.3756582258407322	0.096240
C	0.5903329585926611 0.4045556200067271 0.3737025248188353	0.102211
C	0.6321647942935560 0.4488780247887332 0.3761168388140432	-0.175645
C	0.7246113185354782 0.5495245703482282 0.3762938942008592	-0.117907
C	0.7683046125945321 0.5913407012604062 0.3776127591062601	-0.114151
C	0.8650011456403828 0.6760583375973377 0.3795015435852133	-0.168578
C	0.9102261813594978 0.7157310988059656 0.3758238638243382	0.096193
C	0.0902231116385462 0.9046920293852017 0.3736945223552230	0.102912
C	0.1321183992285953 0.9489382677405394 0.3761172625711093	-0.175853
C	0.2246245140697918 0.0495226283666336 0.3762963008470488	-0.117782
C	0.2683136657789390 0.0913447728425601 0.3776173662347820	-0.113956
C	0.3650487942182323 0.1760096193866778 0.3794981949206975	-0.169117
C	0.4103066443974338 0.2156350948513404 0.3758336771616384	0.096107
C	0.4100382570620869 0.5947537712587840 0.8738806112744486	0.101844
C	0.3679315166293847 0.5507638894896175 0.8761213030388929	-0.172587
C	0.2755089500409476 0.4500382481541105 0.8763377478010876	-0.119309
C	0.2317529125167841 0.4082943878906782 0.8775932063605649	-0.114516
C	0.1346235674978012 0.3240860240858791 0.8794622601215053	-0.169736
C	0.0892316224342754 0.2847048839159118 0.8755070392103220	0.098423
C	0.9100973306577989 0.0946830069136380 0.8738878850341325	0.102987
C	0.8679634887223414 0.0507239074868576 0.8761147548849396	-0.172578
C	0.7755016159783992 0.9500354773971869 0.8763306014772447	-0.119883
C	0.7317419633084785 0.9082951981724480 0.8775912384617675	-0.114164
C	0.6345808972011160 0.8241261527373950 0.8794621395954335	-0.169169
C	0.5891759896669556 0.7847610084542456 0.8755087777461641	0.098138
C	0.4107680130960741 0.4059101923578173 0.1261686718674866	0.102716
C	0.3682808094796229 0.4494356913371694 0.1238921420388136	-0.173337
C	0.2753218074986230 0.5494190259744829 0.1236766895467826	-0.118196
C	0.2316257700706786 0.5912685878289862 0.1223869526452326	-0.115311
C	0.1352862519024117 0.6766260104156311 0.1205140000896278	-0.169867
C	0.0901676840654506 0.7164606512387346 0.1243239583592466	0.096228
C	0.9107668725645842 0.9058786026353408 0.1261856719217729	0.102851
C	0.8682828832527885 0.9494108222781696 0.1238965653082181	-0.173034
C	0.7753391478423413 0.0494250578894061 0.1236821066493725	-0.118545
C	0.7316414110260089 0.0912768599843344 0.1223873802638071	-0.114973
C	0.6352747080643676 0.1766143209078432 0.1205113852318164	-0.169578
C	0.5901448433440075 0.2164337747377295 0.1243501186309044	0.096270
C	0.5906884164055962 0.5956739010188229 0.6261655261897996	0.103354
C	0.6322884610816886 0.5510087062511829 0.6238748210044820	-0.176973
C	0.7245499922516550 0.4499618095119814 0.6236919144998855	-0.119590
C	0.7682997888407049 0.4081944784964620 0.6224061635842381	-0.112602
C	0.8657415239589785 0.3244554259057688 0.6205075427644501	-0.168889
C	0.9113303403310231 0.2853116256544695 0.6242895247138004	0.097473
C	0.0907008208162288 0.0956963264311519 0.6261706849570929	0.103548
C	0.1323001507664802 0.0510361594088727 0.6238811793975580	-0.176707
C	0.2245290024971351 0.9499498513551295 0.6236849268175721	-0.119584
C	0.2682818141725368 0.9081854469609171 0.6224024532691999	-0.112513
C	0.3657429669054929 0.8244794820975402 0.6205074790795752	-0.169220
C	0.4113467144587610 0.7853584281642367 0.6243009407162794	0.097539
C	0.3444179886827838 0.5246498270039672 0.7500037945335041	0.108997
C	0.2991871822477529 0.4756296116637882 0.7500038801796530	0.065477
C	0.2071154846603496 0.3869199869042229 0.7500031484315580	0.064739
C	0.1588853661172241 0.3448831227439368 0.7500035789224619	0.103662
C	0.8444313721303883 0.0246323880622071 0.7500018376849416	0.107929
C	0.7991825647704034 0.9756246450378051 0.7500003954884875	0.065210
C	0.7070972267418322 0.8869245853237190 0.7500040119116610	0.064898
C	0.6588526790409837 0.8449044236152354 0.7500046718147806	0.102976
C	0.6556618271306972 0.4750849332983195 0.2499997120115915	0.110158
C	0.7008656597891268 0.5240242364896509 0.2500014998965587	0.064537
C	0.7928546902503951 0.6128330509635258 0.2500023886487060	0.068394
C	0.8409086774610572 0.6551405631494673 0.2500034996241488	0.099885
C	0.1556479833237092 0.9751086741861541 0.2500033181565555	0.110099
C	0.2008737244913845 0.0240204244754991 0.2500024620870578	0.064203
C	0.2928654807904961 0.1128381603230243 0.2500017423630511	0.068300
C	0.3409380645340831 0.1551223176117846 0.2499999082941894	0.100401
C	0.6556837609971450 0.5246707217234349 0.7500024656270650	0.107838
C	0.7008090924421717 0.4755156932699634 0.7500018124295272	0.062429
C	0.7929550426973153 0.3868172204657657 0.7500018929472333	0.067983
C	0.8413486744387021 0.3449908894548818 0.7500017373377900	0.101233
C	0.1556855074399627 0.0246859925170307 0.7500046054338440	0.107490
C	0.2007951537576079 0.9755131889945359 0.7500023414912416	0.062717
C	0.2929428061797537 0.8868174113456022 0.7499997028029095	0.067872
C	0.3413455595072901 0.8450046023580332 0.7500015228177236	0.101570
C	0.3445350187461657 0.4752810254249459 0.2500007188704594	0.111212
C	0.2990709589587572 0.5239459593025697 0.2500011781040772	0.066478
C	0.2071277470426176 0.6128495553308887 0.2500041648882271	0.066418
C	0.1592523260262311 0.6554406558967136 0.2500039949720765	0.101415
C	0.8445446633176066 0.9752688211839708 0.2500019713716371	0.110693
C	0.7990845828423366 0.0239482617311741 0.2500035913164186	0.066748
C	0.7071398457440790 0.1128485051659013 0.2500022937336668	0.066190
C	0.6592507578200326 0.1554335809409249 0.2500018671571375	0.101512
H	0.4273818697359204 0.6130756924708518 0.5253444382577915	0.111225
H	0.3555558949182895 0.5385471767370102 0.5162501597428185	0.106113
H	0.2905032958602938 0.4614525742253354 0.5179093883192027	0.088346
H	0.2170760107474358 0.3926857667202294 0.5170899944066322	0.102357
H	0.1507453326422221 0.3380428779005903 0.5156034026588424	0.115670
H	0.0695470903401849 0.2670537877691119 0.5262188094165839	0.106352
H	0.9274645391870251 0.1129755130662499 0.5253478302252257	0.111318
H	0.8555775783212436 0.0385183989650197 0.5162511190853198	0.106015
H	0.7904869990726683 0.9614532414949608 0.5179004463641443	0.088375
H	0.7170648202175572 0.8926797516666720 0.5170933810934486	0.102279
H	0.6506979063820482 0.8380833468321159 0.5156066192765966	0.115443
H	0.5694693143269747 0.7671412741963716 0.5262294259817543	0.106270
H	0.5729999605437277 0.3856429954528949 0.0263120513499992	0.110105
H	0.6445350686561383 0.4613423685430263 0.0163504134169628	0.104144
H	0.7097643541976204 0.5379775734739789 0.0178769585050570	0.087590
H	0.7830011230816399 0.6069303662815023 0.0170651130299925	0.103104
H	0.8490473013365970 0.6620790213968434 0.0153900332136561	0.117600
H	0.9295465853103574 0.7333326525964495 0.0251080593262517	0.109326
H	0.0728304371774295 0.8858432253893636 0.0263300226296829	0.109714
H	0.1444973531423061 0.9613988884652356 0.0163516328269355	0.104083
H	0.2097865469955624 0.0379646404307973 0.0178734560046553	0.087492
H	0.2830063900885001 0.1069368458148281 0.0170681982894056	0.103089
H	0.3490923438002675 0.1620366748456044 0.0153929990819860	0.117643
H	0.4296578728807049 0.2331956942110086 0.0251076182717583	0.109634
H	0.5737293506845405 0.6146983380999347 -0.0256605839426247	0.111886
H	0.6445658543790226 0.5385482425406118 -0.0162588005823816	0.105795
H	0.7097573909892009 0.4615948930218963 -0.0178448635748153	0.087743
H	0.7830104533754304 0.3926427851306015 -0.0170565575406623	0.102702
H	0.8497399676624349 0.3385078461710140 -0.0154907077537158	0.116695
H	0.9312283831999317 0.2682951906676933 -0.0255364831388401	0.108763
H	0.0737466326972080 0.1147395931206374 -0.0256856483833944	0.111752
H	0.1445937042870107 0.0385867143345182 -0.0162639695705657	0.105676
H	0.2097284189837925 0.9615717501691152 -0.0178435920835369	0.087649
H	0.2829919452073197 0.8926286919391150 -0.0170626626217040	0.102833
H	0.3497424400424623 0.8385325344018854 -0.0154924770572097	0.116611
H	0.4312599551799441 0.7683389618512092 -0.0255802374275163	0.108715
H	0.4286119151337019 0.3879136143794431 0.4741956519986123	0.110405
H	0.3558412736313206 0.4617072457263033 0.4837087292105257	0.104732
H	0.2902609211609284 0.5379264589153302 0.4821025670058344	0.087494
H	0.2169325784748354 0.6068762848936784 0.4829455224000193	0.102488
H	0.1513746024791267 0.6627413120895084 0.4844981648255522	0.117206
H	0.0710214720506249 0.7345980000786760 0.4743974262430477	0.108343
H	0.9286178667277455 0.8878656932757027 0.4741276408381542	0.110230
H	0.8558310408878107 0.9616834684812862 0.4836891950461716	0.104559
H	0.7902774367573071 0.0379360606521783 0.4821020802034240	0.087590
H	0.7169487684237633 0.1068801039289766 0.4829427340817471	0.102372
H	0.6513763227368733 0.1627320132883477 0.4844794615834091	0.117114
H	0.5709879270876357 0.2345702175300358 0.4743390208452176	0.108145
H	0.5730047187019356 0.3856441373451635 0.4736944888765515	0.110075
H	0.6445363490432836 0.4613439077695005 0.4836535251738962	0.104145
H	0.7097646159125922 0.5379764119109969 0.4821265093740986	0.087535
H	0.7830004710779394 0.6069302409309349 0.4829398581243037	0.103119
H	0.8490469706195777 0.6620788602816725 0.4846171739932397	0.117538
H	0.9295461068006260 0.7333323973502022 0.4749005827442172	0.109368
H	0.0728296356194962 0.8858423123422700 0.4736708187523682	0.109683
H	0.1444972528262917 0.9613978815649908 0.4836537954630040	0.104127
H	0.2097874048402877 0.0379640917795008 0.4821321143946092	0.087436
H	0.2830067515304656 0.1069379207342857 0.4829356615620160	0.103081
H	0.3490915041714648 0.1620369491594248 0.4846096448211484	0.117624
H	0.4296562389157602 0.2331937310533226 0.4748973969539613	0.109689
H	0.4273839787221679 0.6130771292932055 -0.0253443317652286	0.111203
H	0.3555575064046058 0.5385484335777828 -0.0162434338056928	0.106165
H	0.2905034477900130 0.4614522923351828 -0.0179027741122375	0.088255
H	0.2170758302718006 0.3926854891769151 -0.0170844110853973	0.102375
H	0.1507455385094241 0.3380431469572906 -0.0155961404337223	0.115616
H	0.0695474097437095 0.2670539062122075 -0.0262109087322034	0.106360
H	0.9274641335550482 0.1129761822666849 -0.0253457505311069	0.111284
H	0.8555780858294271 0.0385174256480311 -0.0162479134504763	0.106076
H	0.7904889937178531 0.9614548270337823 -0.0179007751729902	0.088367
H	0.7170667069542949 0.8926807297936911 -0.0170883124454834	0.102307
H	0.6506992051655387 0.8380844908999533 -0.0155949877349401	0.115534
H	0.5694705314456864 0.7671412106838261 -0.0262129460556765	0.106181
H	0.4286143096500250 0.3879059198210116 0.0258110884738391	0.110399
H	0.3558424043002810 0.4617043373915029 0.0162945421432831	0.104655
H	0.2902609101859080 0.5379253201345500 0.0179025133280993	0.087484
H	0.2169322962929198 0.6068741752732901 0.0170618548273562	0.102436
H	0.1513759594749650 0.6627405693003936 0.0155091486624872	0.117215
H	0.0710222991244219 0.7345960492207090 0.0256088453971258	0.108365
H	0.9286175264590704 0.8878641401882291 0.0258733106909936	0.110197
H	0.8558310043727057 0.9616826929200748 0.0163150654679140	0.104572
H	0.7902785865407974 0.0379346638529713 0.0179047580384383	0.087616
H	0.7169503516091188 0.1068786857216906 0.0170637260377967	0.102398
H	0.6513760388456835 0.1627309842654027 0.0155261290444360	0.117074
H	0.5709861135277442 0.2345686335484016 0.0256688927150240	0.108081
H	0.5737317935182001 0.6146985998902135 0.5256687295433553	0.111761
H	0.6445659077836290 0.5385485284717075 0.5162648138649943	0.105854
H	0.7097578328421776 0.4615938836007181 0.5178484169287129	0.087769
H	0.7830118271616777 0.3926416095244005 0.5170595676109450	0.102748
H	0.8497423173288617 0.3385093151635358 0.5154939686203344	0.116700
H	0.9312293811353257 0.2682968104001899 0.5255365709263414	0.108705
H	0.0737470779964779 0.1147388563969186 0.5256977051379708	0.111689
H	0.1445944773228332 0.0385864167779370 0.5162724159507626	0.105657
H	0.2097280835226766 0.9615714880462890 0.5178484623230846	0.087643
H	0.2829928276188756 0.8926290339103500 0.5170632867554082	0.102829
H	0.3497447314989253 0.8385322426572137 0.5154942176464262	0.116606
H	0.4312615349025600 0.7683383740066320 0.5255848811709762	0.108715
Cd	0.4997476941790349 0.6895196439309087 0.7499590373619686	0.813079
Cd	-0.0002429133463561 0.1895664962178757 0.7499932561718016	0.813217
Cd	0.4996638133709761 0.3098231002817456 0.2502427692913527	0.812760
Cd	-0.0002769495130193 0.8097533750419119 0.2500324865147378	0.812806
F	0.4993308276116668 0.6855090717834110 0.4648700466024178	-0.651162
F	-0.0007093345159881 0.1856134673832972 0.4647423633608357	-0.651701
F	0.4986080688487201 0.3129070584886430 0.9645167499833323	-0.651597
F	-0.0010291479095797 0.8125854861941549 0.9647810738479420	-0.651477
F	0.4993337319666633 0.6855034731907984 0.0351462501319731	-0.651167
F	-0.0007318638279320 0.1856222272410508 0.0353008292411310	-0.651769
F	0.4986238545822422 0.3128509036126260 0.5351423669757626	-0.651243
F	-0.0010251392828138 0.8125946247913542 0.5351635988069198	-0.651317
F	0.4797467359524634 0.7625222993751339 0.2499666379576767	-0.666267
F	0.5660418680724276 0.6602155146061537 0.2500329988318166	-0.660112
F	0.9781214346347481 0.2622828225460164 0.2500423383722401	-0.666725
F	0.0663390579013660 0.1620804104416714 0.2500072893528327	-0.661588
F	0.5667990169166573 0.2958007835436987 0.7498762498412497	-0.665664
F	0.4753516664314010 0.3902525932503452 0.7497760745676383	-0.659735
F	0.0665520110274374 0.7922293025771491 0.7499748416382108	-0.664973
F	0.9790410379953546 0.8911075106460931 0.7499649508123328	-0.660086
F	0.4474427816996261 0.6278565473197880 0.2500272420720343	-0.654379
F	0.9481679152813389 0.1270584396559931 0.2500228930668169	-0.655560
F	0.4488992480371082 0.2544114627730967 0.7498561189752939	-0.662238
F	0.9473760180889300 0.7563964254694958 0.7499577567603500	-0.662466
N	0.4314464100856671 0.6163862894372998 0.7499999645353882	-0.225151
N	0.5670335572034603 0.7654600197511472 0.7500077521349301	-0.237095
N	0.9315148506403108 0.1163078640369093 0.7499990635693886	-0.226530
N	0.0670871947922482 0.2654140999485783 0.7500040995984398	-0.237805
N	0.5689594860483651 0.3827501367139351 0.2500060263377613	-0.225810
N	0.4323465721512590 0.2349775415953468 0.2500037473210119	-0.239145
N	0.0688305798033986 0.8829190927460484 0.2500010701556230	-0.225670
N	0.9322555290593287 0.7350804344070949 0.2500042293801650	-0.239322
N	0.5694663552822575 0.6176150512886709 0.7500042768702171	-0.226177
N	0.4334415793211408 0.7660502180176849 0.7500010762780466	-0.238316
N	0.0694706872005880 0.1176302736991781 0.7500051051801043	-0.225797
N	0.9334143703306514 0.2659979023139359 0.7500011808317849	-0.238454
N	0.4323272307547671 0.3844241876820161 0.2500046558181236	-0.226372
N	0.5680006418504724 0.2356923120593473 0.2500056167767054	-0.236757
N	0.9323267569272782 0.8843870814770503 0.2500004825957136	-0.225974
N	0.0680347919607180 0.7357251079275920 0.2500025363734232	-0.236975
Al	0.4984094438898342 0.6841828573026857 0.2499823638472215	1.697110
Al	-0.0017565615007318 0.1844290618472103 0.2500237752720933	1.700606
Al	0.4976115745394237 0.3132923956274665 0.7500012176942508	1.701320
Al	-0.0018852361973679 0.8130432476528278 0.7499769481128882	1.701038
	  	
