#======================================================================

# CRYSTAL DATA

#----------------------------------------------------------------------

data_VESTA_phase_1


_pd_phase_name                         ALFFIVE_16_Ni_i
_cell_length_a                         25.03329
_cell_length_b                         25.03325
_cell_length_c                         7.59371
_cell_angle_alpha                      90.00138
_cell_angle_beta                       89.99899
_cell_angle_gamma                      90.02509
_symmetry_space_group_name_H-M         P 1
_symmetry_Int_Tables_number            1

loop_
_symmetry_equiv_pos_as_xyz
   x, y, z

loop_
   _atom_site_label
   _atom_site_fract_x
   _atom_site_fract_y
   _atom_site_fract_z
   _atom_site_charge
C	0.4775871151764615 0.3888991076746470 0.3672931425062961	0.098984
C	0.4766788901322750 0.3334086265407567 0.3625215234299012	-0.173598
C	0.9546891990044827 0.6136316111447800 0.9429311904657011	-0.127585
C	0.9548405658849833 0.5581583410860669 0.9438028055903270	-0.122270
C	0.5225231893449760 0.6114868887060008 0.3648744089693920	0.107983
C	0.5235890494153355 0.6669298402516703 0.3597553007549959	-0.175763
C	0.0453093541320724 0.3866120652235235 0.9428947960523659	-0.126163
C	0.0451512944314605 0.4420887253516993 0.9437227333636624	-0.124089
C	0.6114476624457742 0.4776138468552019 0.3681678961257845	0.096870
C	0.6668901793399911 0.4765986741934711 0.3632098124890305	-0.172389
C	0.3865877151311776 0.9546772127643435 0.9429037533473983	-0.126100
C	0.4420613849390870 0.9548237124943271 0.9438444561404340	-0.123379
C	0.3889729718712994 0.5224552627698063 0.3651221509621304	0.102012
C	0.3334833623558062 0.5234755781830633 0.3600335603693410	-0.173608
C	0.6136619254549373 0.0453031617114552 0.9429102779327002	-0.127713
C	0.5581860806941602 0.0451400726419745 0.9437531605725596	-0.122074
C	0.5224556366818596 0.3889735261629891 0.6348774993579042	0.102003
C	0.5234760467877946 0.3334837208404293 0.6399672879235316	-0.173587
C	0.0453033817734934 0.6136619148815902 0.0570912727657695	-0.127585
C	0.0451406559057263 0.5581858666925840 0.0562486388136778	-0.122102
C	0.4776141447877277 0.6114474836314985 0.6318299891568395	0.096892
C	0.4765992162017380 0.6668896658873434 0.6367911100472999	-0.172556
C	0.9546777488159353 0.3865872997947600 0.0570969968340451	-0.126061
C	0.9548241886406422 0.4420611447875880 0.0561567450812376	-0.123353
C	0.3888997919524503 0.4775863090265032 0.6327063839436631	0.098931
C	0.3334093395783178 0.4766784658863528 0.6374795728235525	-0.173641
C	0.6136320662011456 0.9546891710312548 0.0570691792582819	-0.127501
C	0.5581587230806440 0.9548401239883214 0.0561987569265712	-0.122328
C	0.6114860390596896 0.5225233537812736 0.6351238481460837	0.107982
C	0.6669299358548353 0.5235889080860098 0.6402460359513192	-0.175789
C	0.3866123818518105 0.0453087778691684 0.0571066191941525	-0.126164
C	0.4420888991517133 0.0451509350898700 0.0562784920128948	-0.124091
C	0.5453104731501337 0.8866116119074468 0.5571138978718316	-0.126220
C	0.5451461129350889 0.9420857754212297 0.5562724772225777	-0.123975
C	0.0225104331357033 0.1114904247839438 0.1351338778389525	0.107730
C	0.0235941896040018 0.1669341145203334 0.1402193298904456	-0.175644
C	0.4546818922736525 0.1136327098733493 0.5570774344809396	-0.127580
C	0.4548408919404474 0.0581616000878451 0.5562013193987053	-0.122360
C	0.9776037287947521 0.8889005590278740 0.1327048748682094	0.098840
C	0.9766882315847365 0.8334192150861862 0.1374872132391162	-0.173570
C	0.1136608892611141 0.5453084566855304 0.5571011325319456	-0.127951
C	0.0581872990738256 0.5451370931211511 0.5562393056628896	-0.122087
C	0.8889674384794465 0.0224416208011155 0.1348610624097118	0.101921
C	0.8334858042518513 0.0234665699064054 0.1399625113351077	-0.173778
C	0.8865859593122477 0.4546721677937908 0.5570979014486191	-0.126233
C	0.9420575556318417 0.4548273485594759 0.5561500818420189	-0.123442
C	0.1114467137392442 0.9776314538685887 0.1318256297832646	0.097035
C	0.1668887727708221 0.9766007973337419 0.1367692115048000	-0.172370
C	0.4546720738031311 0.8865857600908664 0.4429039417245784	-0.125989
C	0.4548275188900310 0.9420574876961860 0.4438505101424068	-0.123389
C	0.9776319102898533 0.1114463139884874 0.8681725440462824	0.096984
C	0.9766014412282457 0.1668886515030749 0.8632302562394167	-0.172458
C	0.5453083290754772 0.1136606911507428 0.4428995604267660	-0.127801
C	0.5451371364777312 0.0581875599811007 0.4437608110847439	-0.122132
C	0.0224411148092327 0.8889669907083684 0.8651404819676310	0.101779
C	0.0234670616918882 0.8334854562304467 0.8600366078429266	-0.173698
C	0.8866118449538610 0.5453101880954401 0.4428885870851449	-0.126284
C	0.9420858475018425 0.5451457058434456 0.4437298833566272	-0.124003
C	0.1114908689722035 0.0225099499368182 0.8648647774751562	0.107808
C	0.1669342490899989 0.0235933462622005 0.8597809332033327	-0.175634
C	0.1136325672571663 0.4546816212461435 0.4429239828803392	-0.127712
C	0.0581618783118488 0.4548405887591729 0.4437983656555537	-0.122305
C	0.8889005444736453 0.9776041548877751 0.8672921787965124	0.098885
C	0.8334192938706588 0.9766881819914673 0.8625103754716352	-0.173547
C	0.5000417300851331 0.3043870953539916 0.5013090457566206	0.174055
C	0.5000585571196434 0.2477264159574242 0.5011614049640455	-0.117120
C	0.5000316393974550 0.1989898416118387 0.5004340524666001	-0.096244
C	0.5000047239424232 0.1423403736230100 0.5000568830060919	0.125712
C	0.4999918281748978 0.0294914128310121 0.5000141168133668	0.064852
C	0.0000424496865434 0.8043936189872622 -0.0013150933470151	0.174259
C	0.0000566237874832 0.7477399877151493 -0.0011548634644857	-0.117048
C	0.0000319472242861 0.6990112037369468 -0.0004411809083706	-0.096042
C	0.0000061565083352 0.6423513488809017 -0.0000613085947354	0.125383
C	-0.0000088644803532 0.5294920310040688 -0.0000087898723821	0.064852
C	0.5000351187638890 0.6959701635811842 0.4982225595208797	0.172833
C	0.5000363152897014 0.7525793221904826 0.4985026598571269	-0.114566
C	0.5000208414417205 0.8012972618357124 0.4993640128093129	-0.098520
C	0.5000006831071175 0.8579243309101129 0.4998894309258816	0.124715
C	0.4999890471334465 0.9707412492283871 0.5000529484584003	0.065271
C	0.0000366483228100 0.1959620091137875 0.0017863857716951	0.172759
C	0.0000358255386240 0.2525713805524018 0.0014968962195698	-0.114689
C	0.0000210722924706 0.3012834634693530 0.0006393725353591	-0.098377
C	0.0000030957446152 0.3579176915890185 0.0001170705974965	0.124706
C	-0.0000105318281429 0.4707435280053717 -0.0000532999020286	0.065239
C	0.6959700892545718 0.5000346744963873 0.5017784924310348	0.172753
C	0.7525800819766698 0.5000358511008336 0.5015004340258232	-0.114526
C	0.8012965890343668 0.5000208968130287 0.5006386483787030	-0.098593
C	0.8579249678483573 0.5000006706672491 0.5001130291364863	0.124898
C	0.9707415820451870 0.4999887609511203 0.4999487605297848	0.065246
C	0.1959620975840375 0.0000358141764561 -0.0017860235051701	0.172718
C	0.2525729272285670 0.0000348210976279 -0.0014951362689823	-0.114758
C	0.3012829562176537 0.0000199544112284 -0.0006392069104294	-0.098266
C	0.3579183554706057 0.0000028335636981 -0.0001168618926817	0.124713
C	0.4707439561600915 -0.0000108786501912 0.0000544498573381	0.065269
C	0.3043875516944905 0.5000411824528616 0.4986916466545506	0.174151
C	0.2477270197844647 0.5000578565778359 0.4988420062621679	-0.117140
C	0.1989908440433906 0.5000314545250236 0.4995689121900149	-0.096252
C	0.1423405919287535 0.5000044867511864 0.4999453215062837	0.125787
C	0.0294913671590560 0.4999914234254653 0.4999867134300310	0.064901
C	0.8043939063316490 0.0000420541875368 0.0013141035304822	0.174167
C	0.7477401170598276 0.0000563061632703 0.0011541486686269	-0.117006
C	0.6990116832082622 0.0000316779657650 0.0004402871860657	-0.095986
C	0.6423516555829422 0.0000052672861967 0.0000636214200161	0.125345
C	0.5294923154659401 -0.0000090383982454 0.0000101776784155	0.064854
H	0.4606638847120482 0.4125237237590925 0.2599086945232369	0.105302
H	0.4582632131756418 0.3127895895428486 0.2518886675815925	0.124686
H	0.9197525842230445 0.6355166138277066 0.8969092138296891	0.111524
H	0.9199331420697269 0.5364691249163380 0.8957825351199340	0.105751
H	0.5391738212308540 0.5876893358268275 0.2582728898257758	0.098972
H	0.5421313828934219 0.6876025969326895 0.2494939025662541	0.123664
H	0.0802440618849220 0.3647119021527085 0.8969208032205979	0.111150
H	0.0800645526081314 0.4637680553719415 0.8957060966794030	0.106090
H	0.5878724622612641 0.4616016474457890 0.2595008688204457	0.107677
H	0.6874208049933679 0.4582290509877273 0.2524050569253894	0.124718
H	0.3646560454765699 0.9197523654714437 0.8968981440628382	0.111442
H	0.4637176506689966 0.9199119213481871 0.8958294340008318	0.106274
H	0.4129475933664215 0.5399023327270652 0.2597416811637547	0.099003
H	0.3128257014565512 0.5420603512877252 0.2498142128810692	0.123763
H	0.6355527695997899 0.0802543435700406 0.8969053905270554	0.111217
H	0.5365094569854701 0.0800382884382996 0.8957545211776163	0.105486
H	0.5399022651533421 0.4129487354075285 0.7402581497521518	0.099013
H	0.5420608810840467 0.3128266760580019 0.7501885808548399	0.123735
H	0.0802552670507846 0.6355519624886420 0.1030965186111304	0.111167
H	0.0800386342567853 0.5365088383676885 0.1042469953000878	0.105488
H	0.4616018493687321 0.5878728232718590 0.7404976829316079	0.107716
H	0.4582298843595118 0.6874205648006985 0.7475966810572809	0.124778
H	0.9197531106111921 0.3646555079719713 0.1031017990603917	0.111429
H	0.9199123228257434 0.4637171836344620 0.1041714469575179	0.106276
H	0.4125246353421090 0.4606625349297406 0.7400883664972143	0.105276
H	0.3127907390394891 0.4582626583857687 0.7481120799385328	0.124708
H	0.6355164924054285 0.9197521628316127 0.1030920536386114	0.111493
H	0.5364691790445466 0.9199329435259670 0.1042188916870082	0.105767
H	0.5876892297926853 0.5391727668670520 0.7417267767559109	0.098983
H	0.6876021365130199 0.5421304273839666 0.7505089841644684	0.123667
H	0.3647121144892864 0.0802434404612621 0.1030805807530735	0.111176
H	0.4637683276483317 0.0800642747148842 0.1042955033195898	0.106082
H	0.5802434953405582 0.8647084094991450 0.6030824411891699	0.111176
H	0.5800577899299586 0.9637584313310580 0.6042879426375271	0.106043
H	0.0391614323139126 0.0877043972948586 0.2417065043076791	0.099207
H	0.0421075659316984 0.1876158719764466 0.2505022077146283	0.123613
H	0.4197448606643261 0.1355217645975653 0.6030997818924477	0.111617
H	0.4199371898518676 0.0364800801204724 0.6042157207009983	0.105816
H	0.9606784419304975 0.9125169554483643 0.2400849710623510	0.105298
H	0.9582826244384742 0.8127913983948986 0.2481014277733148	0.124679
H	0.1355546194283609 0.5802587182446305 0.6031082454997903	0.111302
H	0.0365162726266566 0.5800335549845320 0.6042422820266450	0.105511
H	0.9129321971523666 0.0398945390327662 0.2402277790201332	0.099158
H	0.8128164909466733 0.0420385548891949 0.2501744194746169	0.123878
H	0.8646510910666048 0.4197483198676257 0.6031024562633620	0.111516
H	0.9637071843117269 0.4199177941183484 0.6041585320736765	0.106282
H	0.0878813594328186 0.9616155357808155 0.2404687862040129	0.107670
H	0.1874249686487249 0.9582550895759593 0.2475910286998625	0.124676
H	0.4197483027902388 0.8646509099512326 0.3968994495346962	0.111420
H	0.4199181004156954 0.9637069989511593 0.3958426659584958	0.106171
H	0.9616156431596956 0.0878812415986961 0.7595287805909920	0.107668
H	0.9582557373185467 0.1874250157307867 0.7524089471929686	0.124739
H	0.5802593913959195 0.1355547403863030 0.3968926450312460	0.111282
H	0.5800337265044356 0.0365161702501193 0.3957593660352227	0.105511
H	0.0398947164283046 0.9129317000694233 0.7597718555973860	0.099194
H	0.0420394782479863 0.8128159057618752 0.7498248734346052	0.123843
H	0.8647087330390103 0.5802433553531364 0.3969196941415740	0.111221
H	0.9637587268653112 0.5800573529737272 0.3957134377566028	0.106070
H	0.0877049573076000 0.0391612919838255 0.7582916901659924	0.099172
H	0.1876167219369806 0.0421065890080437 0.7494988092885274	0.123599
H	0.1355218715834831 0.4197444367973397 0.3969022496973785	0.111669
H	0.0364799587456996 0.4199364898919494 0.3957845811413984	0.105805
H	0.9125170938477749 0.9606790091127342 0.7599121868994011	0.105272
H	0.8127914746854266 0.9582825527458250 0.7518955120572253	0.124668
Ni	0.5000729340679775 0.5000739915951450 0.4999939728266668	0.768861
Ni	0.0000822021634038 0.0000818866890748 -0.0000037113262143	0.768697
Al	0.4983756071105479 0.4983894028992050 -0.0000055303696244	1.686749
Al	-0.0016024275114511 -0.0016030155708003 0.4999960026337990	1.685567
F	0.5019373100256967 0.4975926654887337 0.2396734520423297	-0.587484
F	-0.0023829469577931 0.0019255295475456 0.7394661500385779	-0.587312
F	0.4975956543080958 0.5019509941249863 0.7603116578263435	-0.587465
F	0.0019280227901618 -0.0023830199308101 0.2605323732506428	-0.587323
F	0.4493205835687776 0.4493263815548320 -0.0000053528292728	-0.634433
F	0.9493190966480618 0.9493183195790361 0.4999935962889557	-0.634370
F	0.4782965946308645 0.5648654902305397 0.0101850457432878	-0.639630
F	0.9783381419760598 0.0649187791881192 0.4898304222514241	-0.639573
F	0.5648565583093929 0.4783148354036533 0.9898264603522431	-0.639560
F	0.0649185926099731 0.9783352794399739 0.5101648871599382	-0.639529
N	0.4999701279969446 0.4162751567194857 0.5012615386528372	-0.233597
N	-0.0000312307377391 0.9162853400299613 -0.0012466670022639	-0.233409
N	0.5000420720085208 0.5840629699217551 0.4981405475769669	-0.238718
N	0.0000386934673165 0.0840582922743527 0.0018555104530473	-0.238558
N	0.5840630659705075 0.5000425912322101 0.5018559267990679	-0.238721
N	0.0840585816672924 0.0000381881308958 -0.0018578465171653	-0.238655
N	0.4162750645853755 0.4999695634086035 0.4987365200032680	-0.233590
N	0.9162853993769280 -0.0000309883086932 0.0012443029372711	-0.233460
	  	
