#======================================================================

# CRYSTAL DATA

#----------------------------------------------------------------------

data_VESTA_phase_1


_pd_phase_name                         ALFFIVE_5_Ni_i
_cell_length_a                         19.86099
_cell_length_b                         19.86098
_cell_length_c                         15.24469
_cell_angle_alpha                      89.99990
_cell_angle_beta                       90.00011
_cell_angle_gamma                      89.98396
_symmetry_space_group_name_H-M         P 1
_symmetry_Int_Tables_number            1

loop_
_symmetry_equiv_pos_as_xyz
   x, y, z

loop_
   _atom_site_label
   _atom_site_fract_x
   _atom_site_fract_y
   _atom_site_fract_z
   _atom_site_charge
F	0.2863584287064964 0.1700705578576252 0.3520000073635785	-0.631133
F	0.1647066894900169 0.2638047401294479 0.3512708925030072	-0.647553
F	0.3058423734509612 0.3190470046507050 0.3517374874451158	-0.640934
F	0.6809499753644900 0.6941738021275727 0.1482415490595317	-0.641036
F	0.7362111194918156 0.8352993402352149 0.1487366422465835	-0.647560
F	0.8299279386478018 0.7136320672226105 0.1479999989280854	-0.631156
F	0.6647119089815809 0.7638285390049653 0.6487310346710240	-0.647571
F	0.7863456682022361 0.6700650077023015 0.6479966427340755	-0.631160
F	0.8058700850271747 0.8190408255686807 0.6482675724203534	-0.640987
F	0.1809630954502077 0.1941280945967391 0.8517595263401413	-0.640984
F	0.3299249044047650 0.2136531106399001 0.8520021854029854	-0.631102
F	0.2361697234861019 0.3352902090850245 0.8512608321762966	-0.647497
F	0.2496804647778474 0.2495930391843661 0.4712458954201983	-0.588715
F	0.2502639130256480 0.2494546738503497 0.2317336795975545	-0.589119
F	0.7504210607160849 0.7503301925084374 0.0287516365029151	-0.588726
F	0.7505436779620898 0.7497288063468208 0.2682670731745530	-0.589144
F	0.7496762584733210 0.7495970107129200 0.5287530478805211	-0.588723
F	0.7502620901448603 0.7494412229082003 0.7682614020579948	-0.589157
F	0.2504170307618778 0.2503222527713678 0.9712452251288116	-0.588690
F	0.2505375731086581 0.2497215737957366 0.7317352517597704	-0.589092
N	0.3552150501096713 0.2476003879431354 0.6002697701912885	-0.236515
N	0.1449432712953103 0.2524117430820832 0.6019954373450545	-0.235278
N	0.2524610547343702 0.3550634876913009 0.6009438705375592	-0.235573
N	0.2475335104409225 0.1447906369300391 0.6023375364876817	-0.237615
N	0.6449361078187835 0.7475387964757132 0.8990574562167775	-0.235622
N	0.8552089455428228 0.7524661894961594 0.8976596749806650	-0.237560
N	0.7475900753640078 0.8550569050093705 0.8980013462314351	-0.235242
N	0.7524006794526076 0.6447854892940156 0.8997330013952399	-0.236515
N	0.6449433672978460 0.7524117505111358 0.3980051118083260	-0.235329
N	0.8552146658256805 0.7476001010366281 0.3997297709472772	-0.236563
N	0.7475334788685759 0.6447907644909604 0.3976615513467015	-0.237588
N	0.7524612842914923 0.8550633625269931 0.3990570279493368	-0.235560
N	0.3552092465067567 0.2524650641565075 0.1023405562061919	-0.237459
N	0.1449365720662014 0.2475376163576159 0.1009416066189086	-0.235508
N	0.2524002038294940 0.1447844652722532 0.1002689131437000	-0.236472
N	0.2475890832134674 0.3550555532072337 0.1019964291167813	-0.235246
C	0.3885891499615076 0.2175876291054315 0.6664389653367662	0.097749
C	0.4584382891386188 0.2159444914950683 0.6702915217788518	-0.181500
C	0.4965087800436874 0.2471129584028780 0.6043000953340540	0.101328
C	0.4608190230245359 0.2782356127329271 0.5358278043002819	-0.183609
C	0.3908309393044897 0.2771512699335925 0.5356939597068101	0.098638
C	0.5706397061721782 0.2479046242378953 0.6078783067647464	0.055097
C	0.6068168481009041 0.1914163093412460 0.6374295674889546	-0.131041
C	0.6767449415056656 0.1922370673854585 0.6403297655039336	-0.124308
C	0.7129678382668403 0.2498606964834316 0.6153061627917042	0.066565
C	0.6767623362625833 0.3066491183752380 0.5870437474229413	-0.118499
C	0.6068747287193887 0.3054610701388392 0.5826599429626507	-0.126657
C	0.1115113911714071 0.2824203354498739 0.6680318359107336	0.104298
C	0.0416751293317541 0.2839876356761971 0.6719279653007171	-0.181968
C	0.0036058934277044 0.2527034368523102 0.6059038726046265	0.106157
C	0.0393252716811897 0.2218418909913727 0.5373733982654060	-0.181867
C	0.1092519905126642 0.2231207615319532 0.5374536769807650	0.109359
C	0.9294463680619357 0.2520940478460772 0.6087389978970308	0.054960
C	0.8931980289072452 0.3086590986830804 0.6377990042462218	-0.132922
C	0.8232682025473558 0.3078555527007379 0.6403407713422716	-0.122960
C	0.7870910581993341 0.2502117767320027 0.6153018953796602	0.066397
C	0.8233468555114466 0.1934645810454525 0.5870751175352411	-0.117361
C	0.8932465018562377 0.1946008548394172 0.5830593563012453	-0.125909
C	0.2823599407902093 0.3885315467487775 0.6669638204356605	0.109634
C	0.2840514312021754 0.4583571148788689 0.6708261427214293	-0.180484
C	0.2529348178693662 0.4964093718608158 0.6047168503506161	0.105519
C	0.2218843642845397 0.4606760070421434 0.5362801503367395	-0.182676
C	0.2229953007833597 0.3907395201606092 0.5364673396398033	0.104672
C	0.2521543358214207 0.5705621577318930 0.6080787144019613	0.053969
C	0.3086294255528954 0.6067601308537747 0.6375114001678301	-0.130609
C	0.3077954537258063 0.6766890868120045 0.6403219931885920	-0.123798
C	0.2501547083371655 0.7129082847884723 0.6152706369998806	0.066753
C	0.1934117585209609 0.6766927239438225 0.5870396088041028	-0.117977
C	0.1945818331818089 0.6068003951239073 0.5827497937878526	-0.125531
C	0.2175162147415290 0.1114075781569231 0.6685267883085317	0.097737
C	0.2159303528669692 0.0415256016701189 0.6721066912496853	-0.182859
C	0.2472196832620899 0.0035054434457496 0.6060120722539581	0.102543
C	0.2781134606601667 0.0392341626128395 0.5375613799435952	-0.183828
C	0.2768860741252780 0.1091945944837985 0.5375868586297391	0.097099
C	0.2478500868404868 0.9293649082626126 0.6087864271238981	0.056304
C	0.1913142047196689 0.8931284878131391 0.6378328524316411	-0.133106
C	0.1921143232546603 0.8231976749235537 0.6403446940334155	-0.123019
C	0.2497956214378634 0.7870267207839666 0.6152747658290527	0.065832
C	0.3065358875976683 0.8232704066339062 0.5870746994114208	-0.116671
C	0.3053701566453224 0.8931744753465476 0.5830764048426104	-0.127117
C	0.6114679063816750 0.7176396823498749 0.8330375232191692	0.109764
C	0.5416423971012931 0.7159484623155800 0.8291747527000822	-0.180614
C	0.5035899631852888 0.7470653092486395 0.8952836453198412	0.105566
C	0.5393234148143328 0.7781155775855659 0.9637204102885083	-0.182694
C	0.6092599853195750 0.7770045257685293 0.9635337022728259	0.104677
C	0.4294372676965857 0.7478457178464214 0.8919215678632034	0.053971
C	0.3932394360170567 0.6913706052642898 0.8624889628163817	-0.130590
C	0.3233105780506857 0.6922045123086111 0.8596783039161191	-0.123800
C	0.2870914095903884 0.7498452429427291 0.8847294738526370	0.066732
C	0.3233069281790790 0.8065881381602088 0.9129606267144464	-0.117995
C	0.3931991297487287 0.8054181738612838 0.9172504398923015	-0.125521
C	0.8885920004027672 0.7824833950500325 0.8314705560057136	0.097756
C	0.9584741847029064 0.7840694110563923 0.8278916868404802	-0.182771
C	0.9964942179503282 0.7527803226212972 0.8939868123163994	0.102506
C	0.9607652283709107 0.7218865864122850 0.9624374292283746	-0.183739
C	0.8908049511141499 0.7231142407076129 0.9624118245678943	0.097066
C	0.0706348584845312 0.7521499550501748 0.8912132377174181	0.056307
C	0.1068713227216156 0.8086859238090572 0.8621670261645434	-0.133127
C	0.1768020602179155 0.8078857370602205 0.8596553506487986	-0.123056
C	0.2129730094618806 0.7502043630681836 0.8847252243519476	0.065868
C	0.1767293143588921 0.6934641404608700 0.9129253666659957	-0.116754
C	0.1068253131874709 0.6946298531195773 0.9169235982471104	-0.127096
C	0.7175803044549662 0.8884892283497134 0.8319651368511852	0.104368
C	0.7160131750992182 0.9583255131772584 0.8280721360777138	-0.182045
C	0.7472962242532315 0.9963945845147847 0.8940955100330452	0.106150
C	0.7781579184015442 0.9606744900873612 0.9626262476239361	-0.181858
C	0.7768800042985250 0.8907478820105368 0.9625438727761180	0.109293
C	0.7479058643689707 0.0705542985724807 0.8912608564184507	0.055053
C	0.6913405382680113 0.1068021956903858 0.8622007157102255	-0.132933
C	0.6921443275000927 0.1767320012510280 0.8596591447536115	-0.122983
C	0.7497882004519801 0.2129088798774945 0.8846982684368768	0.066404
C	0.8065354742544762 0.1766529487950070 0.9129249502258797	-0.117336
C	0.8053991562625735 0.1067533836903123 0.9169406119859671	-0.125947
C	0.7824127340496675 0.6114114442435862 0.8335633497768331	0.097733
C	0.7840552526272571 0.5415623519852492 0.8297099989471933	-0.181378
C	0.7528869711957399 0.5034913694553180 0.8957011151422191	0.101365
C	0.7217645309795065 0.5391808031176175 0.9641736208180923	-0.183611
C	0.7228495207136419 0.6091691813647517 0.9643078350077733	0.098627
C	0.7520951434260684 0.4293603820969438 0.8921219394380698	0.055137
C	0.8085834982965847 0.3931833926359254 0.8625704616268189	-0.131025
C	0.8077627990245025 0.3232551909435583 0.8596703917324499	-0.124337
C	0.7501392689330921 0.2870321738676889 0.8846940140293102	0.066575
C	0.6933508444770012 0.3232375738906801 0.9129564011454363	-0.118502
C	0.6945387983874539 0.3931252312048104 0.9173400401636677	-0.126676
C	0.6115116802588744 0.7824202969581818 0.3319679909935072	0.104385
C	0.5416751156023717 0.7839872340377354 0.3280723593438870	-0.181994
C	0.5036057380393290 0.7527034302933819 0.3940963992184757	0.106138
C	0.5393256021015360 0.7218418900680840 0.4626268263781703	-0.181853
C	0.6092524140481543 0.7231208550812710 0.4625465848167232	0.109379
C	0.4294460521487566 0.7520936042257281 0.3912614019303600	0.054916
C	0.3931979052198692 0.8086587509717573 0.3622012220379700	-0.132887
C	0.3232681104106266 0.8078553872511388 0.3596593671805289	-0.122943
C	0.2870910471145264 0.7502116913280488 0.3846983517618859	0.066361
C	0.3233470648466296 0.6934644862477483 0.4129250121484717	-0.117310
C	0.3932465844030438 0.6946004537586549 0.4169409798079011	-0.125954
C	0.8885889535296556 0.7175883198262344 0.3335603599827742	0.097698
C	0.9584380863140017 0.7159448721584843 0.3297079265114772	-0.181435
C	0.9965089956978934 0.7471130354836661 0.3956996503936943	0.101347
C	0.9608191660047044 0.7782357271165583 0.4641715561581019	-0.183630
C	0.8908310179602204 0.7771509473868439 0.4643051526959587	0.098721
C	0.0706399373344318 0.7479045636957908 0.3921215359477657	0.055091
C	0.1068169316738760 0.6914162659212060 0.3625701834435192	-0.131041
C	0.1767449945331096 0.6922370795645792 0.3596703202989410	-0.124308
C	0.2129678726865704 0.7498606905220514 0.3846939513793217	0.066571
C	0.1767623937215473 0.8066490586193359 0.4129563642004763	-0.118499
C	0.1068748324523174 0.8054610359228168 0.4173399027573838	-0.126648
C	0.7175162896699776 0.6114079537379719 0.3314720852647798	0.097712
C	0.7159305120780565 0.5415258893032100 0.3278920706291405	-0.182767
C	0.7472196154550278 0.5035055075196689 0.3939869138215457	0.102521
C	0.7781137368091001 0.5392342923925649 0.4624379493062112	-0.183776
C	0.7768866066676212 0.6091948444581230 0.4624121944414228	0.097068
C	0.7478500735127774 0.4293649131562469 0.3912134449870778	0.056307
C	0.6913140526820964 0.3931286057330826 0.3621668277647527	-0.133124
C	0.6921142785993685 0.3231977985868892 0.3596551504339212	-0.123047
C	0.7497956416195311 0.2870268111375432 0.3847252257158172	0.065835
C	0.8065359956282285 0.3232705265531736 0.4129252626984368	-0.116742
C	0.8053702333857372 0.3931745438500642 0.4169235128392698	-0.127091
C	0.7823601942005606 0.8885315197481980 0.3330371685309167	0.109634
C	0.7840513551822920 0.9583571135990934 0.3291746216322257	-0.180560
C	0.7529348276986451 0.9964095679808789 0.3952837865199566	0.105578
C	0.7218843403583028 0.9606759092039783 0.4637201568045515	-0.182749
C	0.7229952087276974 0.8907393576925704 0.4635329140788266	0.104713
C	0.7521544349991435 0.0705624138142339 0.3919216656350772	0.053991
C	0.8086293763948783 0.1067603069580874 0.3624888007691804	-0.130670
C	0.8077953937700078 0.1766891986604858 0.3596780038847735	-0.123792
C	0.7501547300047354 0.2129083612834151 0.3847293932858903	0.066743
C	0.6934118770665476 0.1766928408237568 0.4129603870223970	-0.117933
C	0.6945818652540079 0.1068005127232359 0.4172503718415346	-0.125533
C	0.3885921358969650 0.2824833034709111 0.1685291375579849	0.097737
C	0.4584742556566722 0.2840696765367257 0.1721084640608177	-0.182804
C	0.4964945726946454 0.2527803689906261 0.1060137337050432	0.102494
C	0.4607656793040147 0.2218868131817230 0.0375628676515051	-0.183759
C	0.3908052862642368 0.2231135303843706 0.0375885526636692	0.096984
C	0.5706351871417631 0.2521498692982330 0.1087871347097545	0.056392
C	0.6068715657190655 0.3086859159855084 0.1378331591243826	-0.133126
C	0.6768022472379878 0.3078857403986603 0.1403447039982335	-0.123018
C	0.7129731121483966 0.2502043972070010 0.1152748073218784	0.065852
C	0.6767294095140939 0.1934641018652564 0.0870747016334942	-0.116789
C	0.6068254835290432 0.1946298092650714 0.0830766403575288	-0.127064
C	0.1114682583582616 0.2176394231090099 0.1669622490426920	0.109603
C	0.0416427146848110 0.2159485924838943 0.1708249150988107	-0.180544
C	0.0035901918153880 0.2470651551553396 0.1047157001414364	0.105532
C	0.0393238301925539 0.2781156771945330 0.0362791753222794	-0.182693
C	0.1092604426221317 0.2770043248915734 0.0364661274451577	0.104689
C	0.9294374419312074 0.2478455255114211 0.1080779946751370	0.053982
C	0.8932396217504408 0.1913705292780473 0.1375109557462106	-0.130613
C	0.8233107729796780 0.1922044801968918 0.1403217200813850	-0.123815
C	0.7870915409700696 0.2498453001385692 0.1152705178178702	0.066685
C	0.8233070019030282 0.3065881982005180 0.0870394004822813	-0.117962
C	0.8931992326427284 0.3054181713661732 0.0827493671407638	-0.125525
C	0.2824123174002193 0.1114107452263332 0.1664387849954440	0.097691
C	0.2840553843794783 0.0415617053878354 0.1702916641105596	-0.181455
C	0.2528869862149831 0.0034911858994763 0.1042998783459153	0.101341
C	0.2217646199362302 0.0391807180896898 0.0358273775212998	-0.183613
C	0.2228493096713031 0.1091687803668463 0.0356928763294087	0.098642
C	0.2520953277791723 0.9293602444863769 0.1078785401094918	0.055085
C	0.3085836984211034 0.8931831544490776 0.1374298670654265	-0.131031
C	0.3077629712088885 0.8232550252361136 0.1403299618016777	-0.124298
C	0.2501392622173537 0.7870321612086735 0.1153062637767079	0.066569
C	0.1933507700518313 0.8232375960722579 0.0870438370671486	-0.118492
C	0.1945387730972256 0.8931252510691731 0.0826601432771187	-0.126654
C	0.2175804360331265 0.3884883602128965 0.1680330470578784	0.104327
C	0.2160132538809383 0.4583247049196026 0.1719273021293970	-0.181963
C	0.2472964303180167 0.4963944013362624 0.1059038042427090	0.106145
C	0.2781578867771379 0.4606741740340163 0.0373732447576741	-0.181865
C	0.2768790752659873 0.3907471838374026 0.0374549571935028	0.109379
C	0.2479060153529734 0.5705541708440184 0.1087386085373997	0.054911
C	0.1913406567051466 0.6068019293252557 0.1377989497988024	-0.132900
C	0.1921443863317369 0.6767317512084600 0.1403408330026756	-0.122988
C	0.2497881863618324 0.7129088586049803 0.1153019717000462	0.066397
C	0.3065354597844938 0.6766530559866357 0.0870751200353320	-0.117305
C	0.3053991402636426 0.6067535202315775 0.0830591751627395	-0.125916
H	0.3582390273143390 0.1967105370404293 0.7194642612336460	0.105749
H	0.4826661757298161 0.1924398557459598 0.7266490248270799	0.113278
H	0.4872891415957158 0.3024126161005861 0.4817221188863652	0.110883
H	0.3618712460552941 0.2999236501960100 0.4823986404334553	0.102634
H	0.5796704160124203 0.1460604537707811 0.6568344198889076	0.099195
H	0.7039788929528754 0.1479998076584546 0.6634517489274989	0.100977
H	0.7039325113423152 0.3513476804519688 0.5654023178759677	0.101373
H	0.5798433021773247 0.3500705306649403 0.5603167689771640	0.101831
H	0.1424761431396080 0.3049355907413986 0.7193115181785714	0.097297
H	0.0171496532265432 0.3080151407694806 0.7276416992184295	0.111332
H	0.0129963256553754 0.1984337320743649 0.4826007897299304	0.112584
H	0.1381961019725566 0.2019625181204833 0.4834303320426444	0.100603
H	0.9202387009662416 0.3541271953629705 0.6570401797103566	0.099516
H	0.7959990593203700 0.3521022621811571 0.6632873758436116	0.101341
H	0.7962163834218601 0.1487760177335232 0.5653178611603967	0.101139
H	0.9202790750916885 0.1500050917280721 0.5606895670805249	0.102198
H	0.3034441956110189 0.3578501974372067 0.7193365576038568	0.099730
H	0.3074469288308270 0.4827180676345070 0.7271014257268372	0.112228
H	0.1978773918405296 0.4871243703196804 0.4820370053076897	0.111784
H	0.2002144594972555 0.3614848110879370 0.4837023034868348	0.097754
H	0.3540455557236014 0.5796601185217560 0.6568726011828625	0.098428
H	0.3520117640323294 0.7039291456980409 0.6633858183545214	0.101145
H	0.1487098871539101 0.7038674227702668 0.5653730417052923	0.101169
H	0.1499434938555998 0.5798185634880313 0.5604652932958341	0.101864
H	0.1953225716430942 0.1420080325638803 0.7206228045951932	0.103458
H	0.1918182015189079 0.0170182007281839 0.7277845437186271	0.111574
H	0.3017024238293113 0.0129802268715003 0.4828031600967240	0.112770
H	0.2980337099235196 0.1378782591818108 0.4830880134199472	0.107098
H	0.1458815657834896 0.9202393127822907 0.6571277383306563	0.099667
H	0.1478722462311574 0.7959421880742554 0.6632991498964276	0.100521
H	0.3512529024977534 0.7961367306236288 0.5653074776450383	0.100821
H	0.3499116334060218 0.9202458668622526 0.5606733413833667	0.102374
H	0.6421490567456555 0.6965557475765649 0.7806646903380403	0.099726
H	0.5172811809529224 0.6925534650089481 0.7728990008304099	0.112264
H	0.5128748738484116 0.8021229447914489 0.0179631618440693	0.111766
H	0.6385144794551909 0.7997852949349250 0.0162988609924096	0.097755
H	0.4203396676470454 0.6459546868604187 0.8431277357182274	0.098413
H	0.2960705962605396 0.6479883430684193 0.8366140870209666	0.101140
H	0.2961322975290094 0.8512900062904366 0.9346268608907397	0.101210
H	0.4201812040029994 0.8500563831077566 0.9395347353968442	0.101842
H	0.8579918812851667 0.8046774479124124 0.7793738152901188	0.103418
H	0.9829815706045413 0.8081824182335343 0.7722143162627007	0.111531
H	0.9870191352430135 0.6982976954354611 0.0171961328575453	0.112742
H	0.8621213803934024 0.7019658100791023 0.0169100344578651	0.107073
H	0.0797605936061176 0.8541186241072057 0.8428720898732233	0.099694
H	0.2040575940371224 0.8521277243296000 0.8367009182321553	0.100534
H	0.2038630165678803 0.6487470841138422 0.9346925985561093	0.100831
H	0.0797539910250051 0.6500883469431651 0.9393266838180839	0.102396
H	0.6950643274985394 0.8575241527058374 0.7806856486415104	0.097309
H	0.6919845110429769 0.9828505749781061 0.7723580389789781	0.111338
H	0.8015655184411673 0.9870028202624231 0.0173992648166824	0.112585
H	0.7980377714666727 0.8618035162427002 0.0165672336582769	0.100629
H	0.6458725187365577 0.0797613576392139 0.8429596267712166	0.099503
H	0.6478975859108621 0.2040010633076896 0.8367126575923102	0.101334
H	0.8512240516001243 0.2037833057186447 0.9346823892195816	0.101130
H	0.8499949677746526 0.0797205961937030 0.9393104054543800	0.102200
H	0.8032892104631695 0.6417612851581667 0.7805378777802847	0.105746
H	0.8075593460177188 0.5173346927036686 0.7733518000953353	0.113205
H	0.6975866891726167 0.5127102369606817 0.0182782408972236	0.110860
H	0.7000765833468455 0.6381284972282715 0.0176028316377737	0.102649
H	0.8539393773405419 0.4203298289710738 0.8431657841097088	0.099161
H	0.8520000984831905 0.2960213991404451 0.8365484260675313	0.100989
H	0.6486523258791300 0.2960673310140239 0.9345978619804587	0.101365
H	0.6499293475734513 0.4201565357395198 0.9396833668615336	0.101842
H	0.6424762918225922 0.8049349635669918 0.2806877330103377	0.097297
H	0.5171500739476537 0.8080150456018571 0.2723579045281860	0.111327
H	0.5129970981295188 0.6984337879931873 0.5173993759374362	0.112578
H	0.6381966496375997 0.7019621876808946 0.5165697512021927	0.100613
H	0.4202388561622342 0.8541266771694259 0.3429602192695701	0.099520
H	0.2959991846803139 0.8521022643519063 0.3367127409058847	0.101290
H	0.2962166007423242 0.6487759714807617 0.4346822382812926	0.101160
H	0.4202791249448778 0.6500047296968039 0.4393106900704400	0.102219
H	0.8582390373368295 0.6967111019460897 0.2805353287825755	0.105760
H	0.9826664340876273 0.6924399077654544 0.2733509176763558	0.113232
H	0.9872891717761578 0.8024123294193575 0.5182777167562463	0.110881
H	0.8618719054779796 0.7999223211155160 0.5176012958550055	0.102607
H	0.0796704690862128 0.6460603622358493 0.3431655884653856	0.099192
H	0.2039789728129250 0.6479998855243991 0.3365484989474216	0.100974
H	0.2039325730202682 0.8513475582929196 0.4345979767510872	0.101371
H	0.0798433535750114 0.8500702772878035 0.4396832245798236	0.101826
H	0.6953217703895470 0.6420091040805741 0.2793769302430430	0.103468
H	0.6918179237911674 0.5170183723310127 0.2722144182442231	0.111545
H	0.8017020666922370 0.5129803676994278 0.5171965884895920	0.112775
H	0.7980335020624226 0.6378782528574972 0.5169116446704416	0.107069
H	0.6458813772266231 0.4202394757357329 0.3428720609048843	0.099692
H	0.6478721179631263 0.2959423314660564 0.3367008112360646	0.100527
H	0.8512529685238628 0.2961367361375741 0.4346926614508198	0.100822
H	0.8499117975907694 0.4202458962492361 0.4393267568686434	0.102396
H	0.8034440547099000 0.8578511956230814 0.2806634130493513	0.099749
H	0.8074466428893008 0.9827184265842960 0.2728994840979197	0.112252
H	0.6978770020771664 0.9871240122501398 0.5179631996294575	0.111781
H	0.7002135730612131 0.8614846476788111 0.5162969947405804	0.097747
H	0.8540455012508095 0.0796603987218008 0.3431275529559099	0.098460
H	0.8520115505260730 0.2039292644820045 0.3366142531402637	0.101148
H	0.6487100460657865 0.2038674183623387 0.4346270815409817	0.101165
H	0.6499436491811426 0.0798186286969176 0.4395347196495108	0.101840
H	0.3579916930806435 0.3046783092796794 0.2206245363966426	0.103447
H	0.4829818963324086 0.3081827220525600 0.2277858223613577	0.111541
H	0.4870194972157890 0.1982981761285072 0.9828043511342818	0.112756
H	0.3621217907156969 0.2019664067371726 0.9830889137462593	0.107075
H	0.5797606625749671 0.3541184363211012 0.1571277922180105	0.099662
H	0.7040577993304763 0.3521277852887053 0.1632990994458412	0.100518
H	0.7038631344452364 0.1487472208211117 0.0653074583873585	0.100838
H	0.5797540884961850 0.1500883967053629 0.0606734003761931	0.102358
H	0.1421487854646558 0.1965557276575595 0.2193359542597114	0.099766
H	0.0172815241347140 0.1925537705362069 0.2271006090596041	0.112256
H	0.0128753590590420 0.3021232162582083 0.9820362813911961	0.111759
H	0.1385148554108948 0.2997862604744416 0.9837017792198937	0.097722
H	0.9203395913617556 0.1459544682572730 0.1568723570156058	0.098444
H	0.7960706913654362 0.1479883522533486 0.1633857585465014	0.101176
H	0.7961323721566175 0.3512901337691670 0.0653730721904090	0.101200
H	0.9201811750248963 0.3500564042469353 0.0604651355024450	0.101844
H	0.3032889233971711 0.1417609083950218 0.2194641721536888	0.105765
H	0.3075597939328070 0.0173338125404509 0.2266493359317227	0.113233
H	0.1975872124048627 0.0127109090775490 0.9817218012648932	0.110861
H	0.2000775558686280 0.1381282420065435 0.9823969758783195	0.102670
H	0.3539396630314424 0.9203296040678882 0.1568344988398825	0.099187
H	0.3520002982733500 0.7960210821365152 0.1634517516588308	0.100967
H	0.1486522451925529 0.7960674759495342 0.0654021228157050	0.101364
H	0.1499294056558057 0.9201567652749171 0.0603168374880941	0.101829
H	0.1950649572696361 0.3575242280147888 0.2193131644640052	0.097299
H	0.1919851437040545 0.4828500021179731 0.2276410393927397	0.111305
H	0.3015654670686768 0.4870029019884222 0.9826007083258967	0.112585
H	0.2980374060900984 0.3618030232622649 0.9834319421584063	0.100582
H	0.1458726695095167 0.5797612094793264 0.1570400328082937	0.099508
H	0.1478976907812369 0.7040008126340965 0.1632875213936961	0.101350
H	0.3512240304053654 0.7037834729471074 0.0653179455438661	0.101122
H	0.3499949728293684 0.5797209045369998 0.0606893922518151	0.102194
Ni	0.2502192187351585 0.2497385595250255 0.6011482276245791	0.767351
Ni	0.7502616151913407 0.7497830923362705 0.8988487423012391	0.767176
Ni	0.7502175170587800 0.7497380513146653 0.3988531644466579	0.767299
Ni	0.2502619495103977 0.2497778772757817 0.1011465350390885	0.767183
Al	0.2513625772961107 0.2505322494282272 0.3516203806120408	1.686491
Al	0.7494753027856530 0.7486445214155547 0.1483759250129588	1.686678
Al	0.7513691588895012 0.7505317339486951 0.6483751545725266	1.686635
Al	0.2494650170822134 0.2486335178825239 0.8516189143259473	1.686384
	  	
