#======================================================================

# CRYSTAL DATA

#----------------------------------------------------------------------

data_VESTA_phase_1


_pd_phase_name                         ALFFIVE_2_Cu
_cell_length_a                         13.71727
_cell_length_b                         13.71728
_cell_length_c                         8.01854
_cell_angle_alpha                      90.08118
_cell_angle_beta                       89.91958
_cell_angle_gamma                      89.99185
_symmetry_space_group_name_H-M         P 1
_symmetry_Int_Tables_number            1

loop_
_symmetry_equiv_pos_as_xyz
   x, y, z

loop_
   _atom_site_label
   _atom_site_fract_x
   _atom_site_fract_y
   _atom_site_fract_z
   _atom_site_charge
C	0.5309281976360104 0.6985612356673592 0.1351409918365928	0.099923
C	0.5321235001634554 0.7996773891890246 0.1403392266880892	-0.165558
C	0.4685675960042542 0.3019448380025798 0.1355174527705970	0.098073
C	0.4678307626744446 0.2007578260447118 0.1401017257511537	-0.167535
C	0.3018305057781971 0.5310896274271838 0.1347693680107931	0.100682
C	0.2007169901308981 0.5321123021625296 0.1401789233931122	-0.166812
C	0.6983941680980237 0.4688997194624044 0.1349391744060619	0.093680
C	0.7995637043815856 0.4678850640485690 0.1396066218532031	-0.165844
C	0.4688997299263614 0.6983931040937122 0.8650605511670546	0.093655
C	0.4678851985751589 0.7995625813068750 0.8603941702178205	-0.165882
C	0.5310895219008075 0.3018294311465994 0.8652337265650492	0.100557
C	0.5321124064347733 0.2007162496866411 0.8598239849696064	-0.166772
C	0.6985608922105604 0.5309281515390080 0.8648600747405357	0.099910
C	0.7996766428393833 0.5321233581831785 0.8596625212088471	-0.165555
C	0.3019433941672125 0.4685670715446670 0.8644841131654819	0.098131
C	0.2007562378688876 0.4678304642846763 0.8599003932969761	-0.167475
C	0.5000312302481444 0.1478127802574930 -0.0001469883457207	0.170935
C	0.5000723587332906 0.0446246969092189 -0.0000782475630271	-0.095943
C	0.5000077835694215 0.8525302141889709 0.0004510890111154	0.168308
C	0.5000468298872454 0.9557418063198615 0.0002887464151792	-0.091203
C	0.8525302493304462 0.5000076671273126 -0.0004493861963113	0.168327
C	0.9557424483419642 0.5000467377058344 -0.0002868855547564	-0.091388
C	0.1478127942574842 0.5000310891920169 0.0001492554393411	0.170828
C	0.0446238018150297 0.5000724163272156 0.0000808059430552	-0.095742
H	0.5528995412300232 0.6549494802504530 0.2418822813602659	0.107482
H	0.5575879083972877 0.8368666900241324 0.2518866535297415	0.128224
H	0.4447473115058100 0.3454769950261100 0.2421917190206515	0.110471
H	0.4420717001652599 0.1634497305673708 0.2515775760686679	0.129091
H	0.3459186077447541 0.5546376323443210 0.2402900420590529	0.106054
H	0.1632901850499771 0.5577373925165391 0.2516220840555922	0.128184
H	0.6553328273263864 0.4469839298562200 0.2430509062480568	0.113264
H	0.8364898631003105 0.4424062327466729 0.2514808270363049	0.129165
H	0.4469825624690154 0.6553313515882866 0.7569477750982150	0.113272
H	0.4424057634833766 0.8364885384559803 0.7485194812767578	0.129172
H	0.5546361473194433 0.3459176467086625 0.7597129516973842	0.106082
H	0.5577370717598594 0.1632884003634758 0.7483808206138918	0.128207
H	0.6549488738119751 0.5528986282680269 0.7581165133915951	0.107477
H	0.8368652570989180 0.5575875033787423 0.7481160769862020	0.128215
H	0.3454752369292368 0.4447465388021272 0.7578110004872533	0.110482
H	0.1634475906659843 0.4420714475494417 0.7484231789991792	0.129072
Cu	0.5001558322570203 0.5001556559751290 -0.0000015725228215	0.725314
Al	0.4995789651508537 0.4995727846286128 0.4999923758579540	1.681856
F	0.4992402318747561 0.5014325983238763 0.7262827827066358	-0.626162
F	0.5014383511933441 0.4992445860453197 0.2737119260264974	-0.626146
F	0.4652792759189759 0.6225494303817444 0.4973282165510695	-0.644086
F	0.4093470813952886 0.4093211354034944 0.4999951957074808	-0.646181
F	0.6225593790384405 0.4653222619792332 0.5026583423420631	-0.644011
N	0.4998759747499526 0.3513325856399164 0.0003661089281963	-0.219419
N	0.4999113487081643 0.6490276445674841 0.0001714099796463	-0.221432
N	0.6490282512206025 0.4999115054753091 -0.0001721654014365	-0.221459
N	0.3513319814619264 0.4998758823156587 -0.0003638272939334	-0.219488
	  	
