#======================================================================

# CRYSTAL DATA

#----------------------------------------------------------------------

data_VESTA_phase_1


_pd_phase_name                         ALFFIVE_18_Co
_cell_length_a                         14.09041
_cell_length_b                         13.98291
_cell_length_c                         7.82494
_cell_angle_alpha                      89.43662
_cell_angle_beta                       95.60320
_cell_angle_gamma                      89.96098
_symmetry_space_group_name_H-M         P 1
_symmetry_Int_Tables_number            1

loop_
_symmetry_equiv_pos_as_xyz
   x, y, z

loop_
   _atom_site_label
   _atom_site_fract_x
   _atom_site_fract_y
   _atom_site_fract_z
   _atom_site_charge
F	0.5011037390414093 0.3513310225441857 0.5050487957380587	-0.611886
F	0.5193464034115521 0.4874435745341364 0.7342271247655265	-0.596512
F	0.3848228804999753 0.5240071522964111 0.5117816181550626	-0.579812
F	0.0008026131827519 0.8512537714273629 0.5048890827768615	-0.611981
F	0.0192808206042234 0.9870638958358627 0.7341167895950865	-0.596707
F	0.8849723795175194 0.0241470970973553 0.5114278647868691	-0.579740
F	0.6132329441877603 0.5248754706345619 0.4903094294397040	-0.579209
F	0.4798927225141247 0.4861779954695456 0.2685312377527236	-0.597221
F	0.1135442601277928 0.0243896963785968 0.4907035990098632	-0.579825
F	0.9802051692811783 0.9862748152410907 0.2687363109046417	-0.597749
C	0.6831438107765645 0.1649816731025530 0.6485338956103904	-0.424055
C	0.7551803722555461 0.1550036527040998 0.7993770059174143	0.202401
C	0.7602990940792206 0.1981616030564631 0.9608006945846852	-0.150427
C	0.6909769696973606 0.2632173165444979 0.0240706040328449	-0.145694
C	0.6760387924420314 0.3612918196058496 0.9816328129319664	0.218591
C	0.7305885382485543 0.4219249089812735 0.8677942525343233	-0.427655
C	0.8876201580448529 0.1912930570409881 0.2252632019753264	-0.436429
C	0.8467564737029644 0.1651878609138304 0.0494263861174065	0.220599
C	0.6248091168457296 0.2410243286320276 0.1408924918586565	0.204671
C	0.6016981067742891 0.1481099138101888 0.2212526950392617	-0.426929
C	0.1829769785068649 0.6649288798539992 0.6484718413737625	-0.422465
C	0.2550237947306035 0.6549701366867046 0.7993581167915422	0.201465
C	0.2602289010617445 0.6981831289407550 0.9607683354277204	-0.150484
C	0.1909235108808254 0.7631324005822895 0.0242649614019742	-0.146394
C	0.1760727808430842 0.8612544423302130 0.9819783381807683	0.219174
C	0.2306077905576854 0.9218935153002161 0.8680922776542547	-0.427463
C	0.3876355611704195 0.6912926689131167 0.2251670792626070	-0.435889
C	0.3467325369720689 0.6652321898889808 0.0493048353594729	0.220039
C	0.1247392710522691 0.7408764711701245 0.1409390712490473	0.205119
C	0.1016004328106803 0.6479556368410355 0.2212734973437730	-0.427531
C	0.3119720905981319 0.1676887503901793 0.3542197555500226	-0.421929
C	0.2416469662012690 0.1576061924611120 0.2009259008333656	0.200754
C	0.2389367261553029 0.1986677045581779 0.0365707627464810	-0.152417
C	0.3103334609881971 0.2619983327997484 0.9736316794461729	-0.144130
C	0.3264211275472416 0.3591210925164934 0.0175915182693070	0.218994
C	0.2704639652071690 0.4196247062928862 0.1272875741831448	-0.430124
C	0.1122589956744982 0.1931312250795932 0.7704110099138822	-0.435039
C	0.1523552886212444 0.1668586259029318 0.9477829922074873	0.218122
C	0.3787430609922672 0.2396411770594724 0.8615453978461324	0.205266
C	0.4019127217687687 0.1477751920291699 0.7800883344347475	-0.425045
C	0.8117494480237573 0.6678474535870771 0.3540281277313601	-0.421943
C	0.7414928491243840 0.6575408546433662 0.2007462599766876	0.201059
C	0.7387886388949163 0.6986330673483783 0.0364018443656661	-0.152888
C	0.8101563118451361 0.7619521427774695 0.9735818997015484	-0.144059
C	0.8263298196340004 0.8591032827880100 0.0175736243330478	0.219713
C	0.7705715319211889 0.9197217926504931 0.1273854501149691	-0.430694
C	0.6122881698133549 0.6931224250014865 0.7701755812366374	-0.435523
C	0.6522417690029922 0.6668006908761623 0.9475781191367907	0.218770
C	0.8786256678599360 0.7396082487145035 0.8614810332503645	0.205119
C	0.9018700419715582 0.6478191046580822 0.7799256913641176	-0.425111
H	0.7163650252854661 0.1880665766592514 0.5337720382575182	0.144620
H	0.6294754638422856 0.2185031240027145 0.6735305029860842	0.141255
H	0.6466010232573343 0.0969090720940626 0.6177253391891009	0.133229
H	0.6845696761840083 0.4524314098009951 0.7596681122462619	0.149059
H	0.7864321413870322 0.3787089681435257 0.8174274050474118	0.131050
H	0.7646176269536250 0.4819258034686488 0.9399875620204975	0.131193
H	0.8554887734219686 0.0615136433645121 0.6965208152913264	0.282380
H	0.8719799044050243 0.1367709760526260 0.3204179268880437	0.144769
H	0.8573916212695174 0.2597315556159973 0.2614864625910373	0.130825
H	0.9654609258854384 0.1978321675479055 0.2309877148789225	0.139439
H	0.5617659863266873 0.1587421002291841 0.3329826478401630	0.140853
H	0.6665585940564687 0.1071655579256344 0.2620386691874764	0.148811
H	0.5577657732381577 0.1038929025060041 0.1286100396523969	0.132595
H	0.5283741223465583 0.3358527602908598 0.2496135735848451	0.274760
H	0.2162107783099819 0.6880049284647826 0.5336513760847122	0.144201
H	0.1292823615749915 0.7184852130374888 0.6735184547870124	0.140868
H	0.1465160230646491 0.5967671770871269 0.6177432429066225	0.132978
H	0.1845703933586113 0.9524112954575791 0.7599503288640393	0.148877
H	0.2864370674363128 0.8786629187285983 0.8176909006987823	0.130925
H	0.2646682321184951 0.9819273140402256 0.9402032620503348	0.130877
H	0.3553684617164189 0.5614971079126593 0.6965397470698375	0.282244
H	0.3718900212726172 0.6367581512048012 0.3202192089823109	0.144812
H	0.3575595954237897 0.7597904058181728 0.2614637424658106	0.130859
H	0.4654891758457635 0.6976958584291105 0.2308123024899540	0.139183
H	0.0616512080770021 0.6587153681477672 0.3329528172278020	0.140851
H	0.1665319047961902 0.6071189546790332 0.2620275418045723	0.148996
H	0.0576923642821264 0.6037542153158545 0.1285691208216071	0.133187
H	0.0284431249027041 0.8357494072864945 0.2497231163585229	0.274744
H	0.2763875501872634 0.1861729696591520 0.4683605621640592	0.143204
H	0.3633726876018008 0.2244326904794084 0.3330243612920857	0.141817
H	0.3515920668945650 0.1007313621612457 0.3837441314437060	0.132605
H	0.3163472906608600 0.4538481464675623 0.2302119276677081	0.148837
H	0.2171466916827633 0.3755518718001996 0.1842453849786804	0.132549
H	0.2329584292543975 0.4766742211715193 0.0497696626093925	0.131029
H	0.1400172112436397 0.0655260607796203 0.3052335089362557	0.280453
H	0.1276423633447973 0.1382388739766809 0.6776279077817154	0.144210
H	0.1430396348533703 0.2612445208970888 0.7318141167352333	0.129796
H	0.0344227824501200 0.2008690427592683 0.7635957114182379	0.139723
H	0.4421867558425472 0.1599184151730657 0.6686920622345383	0.140204
H	0.3368802735028282 0.1079483398203400 0.7381671821713942	0.148061
H	0.4454572533241531 0.1016702126378211 0.8720007893045046	0.132099
H	0.4784529801017249 0.3342489877915238 0.7589589808283888	0.274099
H	0.7762164388479268 0.6864367597307253 0.4681981503563592	0.143219
H	0.8630237270064749 0.7246553571526742 0.3326608043667470	0.141914
H	0.8515873333453107 0.6010404493049158 0.3838298993772764	0.132464
H	0.8165518278592462 0.9538563391611983 0.2302732922986717	0.148686
H	0.7172613849276859 0.8757460835331280 0.1844136355433634	0.132545
H	0.7330655403159770 0.9768062849781033 0.0500766016556025	0.131198
H	0.6398216019623463 0.5655057796464126 0.3051241106331524	0.280588
H	0.6274978316625522 0.6380855783981154 0.6775137511936924	0.144628
H	0.6433189970492478 0.7611209782151370 0.7315991893205652	0.129721
H	0.5344814201963788 0.7011939875417911 0.7634493566594264	0.139839
H	0.9421423870410670 0.6601502912496418 0.6686039755765264	0.140245
H	0.8368944710185025 0.6079553177653620 0.7379022147250701	0.147868
H	0.9454188433284938 0.6016650991704142 0.8717323069293422	0.132181
H	0.9782524399033162 0.8342498201213492 0.7589142385877454	0.274368
N	0.8332767515684717 0.0993078857513637 0.7991221574260979	-0.152854
N	0.6050443866474595 0.3961453983880167 0.0662130461899089	-0.272780
N	0.8901661970593410 0.1046751464739835 0.9489100926224742	-0.274612
N	0.5759399347886411 0.3224345337023847 0.1621303576801692	-0.148868
N	0.3331791572230796 0.5993508312660745 0.7990622066171850	-0.152712
N	0.1050631449790693 0.8961080361079421 0.0664597790426062	-0.272928
N	0.3901432261219858 0.6047523201146002 0.9487524356042010	-0.274069
N	0.0759335840236620 0.8223314839197691 0.1622363621990537	-0.149330
N	0.1622351481694800 0.1039559362154021 0.2023021854439621	-0.151322
N	0.4001096123495682 0.3934119299940221 0.9386477355255847	-0.271894
N	0.1070027581440667 0.1083773622715426 0.0507325842595841	-0.274590
N	0.4300130251993421 0.3201929439576860 0.8449515038631265	-0.147443
N	0.6621645912761857 0.6037728419112499 0.2020348623061631	-0.152709
N	0.9000454391625694 0.8933436813308639 0.9386754344338754	-0.272299
N	0.6069392971394995 0.6082469629520465 0.0504561622193557	-0.273872
N	0.9298743348189362 0.8201527627083468 0.8449587857018027	-0.147245
Al	0.4993714653520235 0.4759750536346363 0.5016939534287258	1.665063
Al	-0.0005471187358594 0.9758852202275139 0.5019547438003298	1.665326
Co	0.4989375267861594 0.5058363142206356 -0.0001517476099918	0.881337
Co	-0.0011733001892172 0.0058426505037320 0.9998093379698045	0.882318
	  	
