#======================================================================

# CRYSTAL DATA

#----------------------------------------------------------------------

data_VESTA_phase_1


_pd_phase_name                         ALFFIVE_18_Zn
_cell_length_a                         14.06463
_cell_length_b                         13.98495
_cell_length_c                         7.88578
_cell_angle_alpha                      89.88486
_cell_angle_beta                       95.25991
_cell_angle_gamma                      89.86395
_symmetry_space_group_name_H-M         P 1
_symmetry_Int_Tables_number            1

loop_
_symmetry_equiv_pos_as_xyz
   x, y, z

loop_
   _atom_site_label
   _atom_site_fract_x
   _atom_site_fract_y
   _atom_site_fract_z
   _atom_site_charge
F	0.5011744909505497 0.3510169833899107 0.5080117207302391	-0.613079
F	0.5200910407593514 0.4888570469931901 0.7320389997383289	-0.591844
F	0.3840982999265481 0.5238816959517714 0.5146448596748844	-0.584670
F	0.0011449356216062 0.8509616928093837 0.5085641498926819	-0.612844
F	0.0202112276673716 0.9890633921738766 0.7318728004152254	-0.591470
F	0.8839960806857380 0.0239969507328261 0.5150492534910910	-0.584538
F	0.6121676200945980 0.5263199511215975 0.4859009196504138	-0.584529
F	0.4775759441861923 0.4833751074967452 0.2724290794059855	-0.593342
F	0.1123594731577807 0.0265587662913746 0.4863833451445412	-0.584342
F	0.9775999039808136 0.9833113223830385 0.2728862103955728	-0.592613
C	0.6838665743756361 0.1614645023542370 0.6532053268427784	-0.421382
C	0.7554534928502771 0.1540870148084791 0.8035947787420520	0.200861
C	0.7589519257006891 0.1979495439389603 0.9635511744546108	-0.151333
C	0.6886656140765904 0.2628902358628580 0.0254670339291275	-0.146857
C	0.6740722836245112 0.3607596383671678 0.9834962726387181	0.215563
C	0.7275741477257001 0.4207327498990728 0.8682582782559022	-0.429096
C	0.8855142723293826 0.1937370624402149 0.2269584481292565	-0.433518
C	0.8455769584688505 0.1666117942305798 0.0523907060018908	0.214047
C	0.6217330550574345 0.2412173927989763 0.1408877827585934	0.203628
C	0.5988570166399473 0.1488383437420123 0.2220184522754663	-0.426881
C	0.1839382633731128 0.6615687461406886 0.6531229902741953	-0.421511
C	0.2554876169827219 0.6541179707422886 0.8034919836615639	0.201317
C	0.2590007534853822 0.6979913543823610 0.9634100230738313	-0.151574
C	0.1887061557978551 0.7629543535992028 0.0253473602180931	-0.147330
C	0.1741484067417750 0.8608453969053272 0.9836438675860931	0.216369
C	0.2275982588555756 0.9208758751662682 0.8683848992404255	-0.428665
C	0.3856174999719300 0.6938582278368478 0.2268392439159147	-0.433106
C	0.3456975524186905 0.6667175642614741 0.0521884347352961	0.214131
C	0.1218455996506815 0.7412673452229698 0.1409249802876871	0.204296
C	0.0988943028854302 0.6488364874536829 0.2217864003873999	-0.427939
C	0.3160645199008998 0.1645810053870324 0.3466436885231995	-0.422052
C	0.2439323734627835 0.1561505683583125 0.1972969226845228	0.201971
C	0.2410313616045834 0.1977716049282605 0.0353249891925896	-0.152937
C	0.3121892731748974 0.2612564291014767 0.9729354793803499	-0.147621
C	0.3271771738383899 0.3586282090570730 0.0169205125855873	0.215986
C	0.2715835456162514 0.4183313283915133 0.1293747918120387	-0.430545
C	0.1141401799815230 0.1957847505658988 0.7737226741041918	-0.434370
C	0.1534504215061896 0.1680909299491522 0.9486851307902157	0.216574
C	0.3798032744650548 0.2398625196538900 0.8586009960665587	0.203396
C	0.4028303717532160 0.1485752543338302 0.7741197188831537	-0.426567
C	0.8160694644390212 0.6644477449177033 0.3464564102969695	-0.422529
C	0.7439312213563861 0.6560474948038473 0.1972071247200870	0.202139
C	0.7410300417666800 0.6976251844074524 0.0351923906638470	-0.152643
C	0.8122325658819880 0.7611393154611310 0.9729555493259733	-0.147669
C	0.8272090545608168 0.8585190304817213 0.0169711180923895	0.214974
C	0.7716274581337965 0.9182492803321769 0.1294170390316457	-0.429848
C	0.6141528031561644 0.6957259184237659 0.7735666090110344	-0.434189
C	0.6534529752028407 0.6679929902649984 0.9485801682706958	0.216507
C	0.8797921399530232 0.7397842392262121 0.8585416497904523	0.203160
C	0.9029073477390296 0.6485580632238518 0.7740783370696304	-0.426150
H	0.7179969925958735 0.1824013591949366 0.5389128659527425	0.145067
H	0.6296867132523623 0.2154551785612033 0.6752963396547499	0.140768
H	0.6476565719946561 0.0927607919563879 0.6254722320179561	0.133633
H	0.6797834249105992 0.4509604440765269 0.7638918802351318	0.150034
H	0.7822447249489543 0.3771188523433886 0.8142734470264504	0.131903
H	0.7630112497862348 0.4807936474688872 0.9380548356424733	0.130779
H	0.8580733183888974 0.0616723743528194 0.7027705377595550	0.281689
H	0.8777228803562283 0.1358356228437240 0.3188893584423781	0.144949
H	0.8478344049723125 0.2571600329813467 0.2685045542283163	0.129599
H	0.9619989218490753 0.2100499170496979 0.2295776887058833	0.139790
H	0.5642635282134018 0.1604619584008511 0.3393293020899774	0.141332
H	0.6638426789737044 0.1062108363313786 0.2519958009521264	0.149555
H	0.5501592644633179 0.1060563911183299 0.1352292041253621	0.133431
H	0.5246196089917754 0.3371242179262794 0.2477492925425957	0.275208
H	0.2180345340549957 0.6824610550919834 0.5388049868424171	0.144978
H	0.1297122767261460 0.7155168547085830 0.6750737448235028	0.140832
H	0.1476963104763656 0.5929287101924731 0.6252922488769870	0.133692
H	0.1797145038292791 0.9511099591895774 0.7641187255530472	0.149940
H	0.2822587969106718 0.8773111172618808 0.8142041062053682	0.131917
H	0.2629968520084072 0.9809613594841010 0.9382202624355249	0.130517
H	0.3579714150846962 0.5616845496352469 0.7025262515329899	0.281780
H	0.3778677427542120 0.6359171671016469 0.3187820295036856	0.145249
H	0.3478786003619804 0.7572951025697595 0.2682562282804923	0.129486
H	0.4620946085483355 0.7102208942323245 0.2292075813445020	0.139483
H	0.0642600400005691 0.6603532395217444 0.3390490046679399	0.141389
H	0.1638820663751542 0.6062781884479812 0.2519427320509734	0.149757
H	0.0502447916196476 0.6060293449345862 0.1349500962272443	0.133683
H	0.0245956050609686 0.8371661003064043 0.2478052281691558	0.275134
H	0.2818564074239593 0.1806084765195310 0.4630750857346418	0.144906
H	0.3661063307577661 0.2225320168094503 0.3256511020743166	0.141837
H	0.3572064996433296 0.0979422157450385 0.3691516385222335	0.133345
H	0.3183224270960678 0.4540765874118035 0.2286138652649608	0.151354
H	0.2205719740678279 0.3732301988833482 0.1899683076854415	0.132477
H	0.2310999565888716 0.4738653892618772 0.0543092131230731	0.129582
H	0.1407201451293741 0.0664245597948207 0.3022951334284629	0.283049
H	0.1215245817702517 0.1378327822287724 0.6820853358444430	0.146630
H	0.1528972304882603 0.2585750704923374 0.7325771988325928	0.128798
H	0.0378706302052103 0.2136554294967254 0.7699243795337241	0.140496
H	0.4386994636174550 0.1619775576291647 0.6585788453125271	0.141215
H	0.3378100752007895 0.1070171777257612 0.7399188797756877	0.148805
H	0.4507199291399351 0.1039685214604241 0.8600212418450068	0.132398
H	0.4765994210263068 0.3354944531730287 0.7524710515907990	0.274201
H	0.7819450336934807 0.6804890961694676 0.4629111681429076	0.145034
H	0.8661807377895996 0.7223028584777893 0.3255284079720187	0.141855
H	0.8571939731436130 0.5978452318601021 0.3690969612660702	0.133452
H	0.8183508852743435 0.9539088207406243 0.2288130910509245	0.151195
H	0.7205638670129624 0.8731146538061189 0.1897861275837719	0.132320
H	0.7311722056444281 0.9738213139554575 0.0543874071127482	0.129730
H	0.6407937617980516 0.5663004952597512 0.3022111480629202	0.283319
H	0.6214070018794144 0.6377101962770787 0.6819806891202994	0.146424
H	0.6530058613591952 0.7584407072451244 0.7322895980664917	0.128846
H	0.5379206639652456 0.7137265016398303 0.7699500699030293	0.140535
H	0.9386647715083967 0.6619483302551937 0.6584682634869575	0.141134
H	0.8379344329438921 0.6070058068845516 0.7398261753860823	0.148432
H	0.9508011097207856 0.6039012956927127 0.8598251846708382	0.132461
H	0.9766165493798797 0.8354956499233938 0.7524099527077003	0.274283
N	0.8349454765934708 0.0999485351887502 0.8040261658681613	-0.150939
N	0.6029803355130400 0.3961503545298883 0.0680354379508661	-0.244991
N	0.8906959271380753 0.1068295075663667 0.9528648685978075	-0.239432
N	0.5730203767851831 0.3228707555063989 0.1621603741345541	-0.146613
N	0.3349511379877794 0.5999942138641791 0.8038018728417863	-0.151399
N	0.1030474010001152 0.8961741835539421 0.0682335349859972	-0.245481
N	0.3907290779783008 0.6068623265351608 0.9526297622467486	-0.239243
N	0.0730988765900665 0.8228975377030239 0.1623980187712146	-0.146359
N	0.1634017026834836 0.1043536096487889 0.2000596286280307	-0.155150
N	0.3993011972947287 0.3939483215315543 0.9353390325342343	-0.246160
N	0.1073627477825138 0.1105392431754159 0.0509877794806249	-0.241899
N	0.4296354786377738 0.3211074258363525 0.8408206112889385	-0.148808
N	0.6634664549270965 0.6041887794256404 0.1999357454642002	-0.154892
N	0.8993765536201265 0.8938153688094714 0.9354440694565920	-0.245675
N	0.6073940126830388 0.6104383504004012 0.0509376206416906	-0.241911
N	0.9297339078087555 0.8210086691247555 0.8408239098196919	-0.148758
Al	0.4989683468269736 0.4758846841728149 0.5024983088576397	1.659985
Al	-0.0010358648292315 0.9759301321206135 0.5027115715644975	1.658546
Zn	0.5001886897438550 0.5074937877647595 0.0021814987794717	0.775367
Zn	0.0001837959211198 0.0074414096717149 0.0023535948540550	0.774787
	  	
