#======================================================================

# CRYSTAL DATA

#----------------------------------------------------------------------

data_VESTA_phase_1


_pd_phase_name                         ALFFIVE_5_Co_i
_cell_length_a                         19.60002
_cell_length_b                         19.60006
_cell_length_c                         15.78084
_cell_angle_alpha                      90.00043
_cell_angle_beta                       90.00063
_cell_angle_gamma                      89.99234
_symmetry_space_group_name_H-M         P 1
_symmetry_Int_Tables_number            1

loop_
_symmetry_equiv_pos_as_xyz
   x, y, z

loop_
   _atom_site_label
   _atom_site_fract_x
   _atom_site_fract_y
   _atom_site_fract_z
   _atom_site_charge
F	0.2877270637253783 0.1680883982701540 0.3520834524134551	-0.640434
F	0.1633155120296035 0.2633211320031343 0.3506283284526770	-0.654457
F	0.3075336899612837 0.3197005547945437 0.3514120626399599	-0.648314
F	0.6802715983990394 0.6924737023689086 0.1485387492951067	-0.648287
F	0.7366827275887985 0.8366992824405338 0.1493874961510929	-0.654526
F	0.8318999478184230 0.7122765937172030 0.1479507799764136	-0.640304
F	0.6633063277951269 0.7633985910911156 0.6493641896668394	-0.654531
F	0.7876989268914276 0.6680753377516037 0.6478961678951325	-0.640369
F	0.8075586229234180 0.8196890375262667 0.6485873499071104	-0.648339
F	0.1803050146021233 0.1924190818255904 0.8514350186860931	-0.648284
F	0.3319114095690056 0.2123352802663364 0.8520892712940765	-0.640307
F	0.2365854571365434 0.3366819415998862 0.8506472364769190	-0.654488
F	0.2498168925939636 0.2495868486160581 0.4655391678498424	-0.595115
F	0.2507543023541176 0.2488492657254473 0.2370388646740812	-0.595195
F	0.7504286507030288 0.7501946747974406 0.0344633302457928	-0.595016
F	0.7511200632506044 0.7492237460300505 0.2629642837748055	-0.595255
F	0.7497999155672915 0.7495767954667290 0.5344346193379809	-0.595107
F	0.7507488341411669 0.7488316384235161 0.7629389478936466	-0.595297
F	0.2504019313392067 0.2501835943973167 0.9655488061943840	-0.594955
F	0.2511341895073620 0.2492476385805600 0.7370532542469779	-0.595251
N	0.3501298710911397 0.2478147351791752 0.6005437499437535	-0.185785
N	0.1499753508823441 0.2524568934829050 0.6019881468144878	-0.186871
N	0.2522380783775357 0.3500610559988707 0.6010676938669505	-0.186847
N	0.2475062393075876 0.1499020552334450 0.6021344055031770	-0.187672
N	0.6499309584574966 0.7477610924314547 0.8989326393875913	-0.186891
N	0.8501085880395728 0.7524939921282275 0.8978655186804165	-0.187956
N	0.7475449518226576 0.8500347194835071 0.8980076520712661	-0.187417
N	0.7521879507563229 0.6498598453237987 0.8994583127060831	-0.186106
N	0.6499655427718821 0.7524572859200048 0.3980148808191935	-0.187766
N	0.8501333456987424 0.7478169263458060 0.3994584194095098	-0.186369
N	0.7475031136277908 0.6499002332652191 0.3978675821689717	-0.187620
N	0.7522352504259219 0.8500661325863457 0.3989365450934494	-0.186957
N	0.3501019105037207 0.2524969457206894 0.1021369650987339	-0.187776
N	0.1499334748146384 0.2477643429191350 0.1010639395517030	-0.186988
N	0.2521848378797287 0.1498601070082421 0.1005382536737671	-0.186200
N	0.2475423703746351 0.3500381774274980 0.1019914173071666	-0.187444
C	0.3839834975167593 0.2185022159714059 0.6655939272778326	0.087845
C	0.4546972863914788 0.2168239308249052 0.6688651048619484	-0.176175
C	0.4932478098233679 0.2471744409139703 0.6042041001068158	0.099410
C	0.4570646584080317 0.2775426074444122 0.5372892274731321	-0.180837
C	0.3862397830406352 0.2765641135724765 0.5368876906036580	0.088871
C	0.5683043688308183 0.2478455773941615 0.6075069637578354	0.055158
C	0.6048804651716733 0.1910018913782280 0.6373971672838120	-0.130877
C	0.6757568203777348 0.1917700780007471 0.6402751769356885	-0.124875
C	0.7124734377119422 0.2498563470626611 0.6148826055571487	0.066902
C	0.6758906932604902 0.3071025087360101 0.5864127008528295	-0.120244
C	0.6050785939628184 0.3058003404396097 0.5819359504599162	-0.125897
C	0.1161658743629329 0.2818590498754943 0.6669887215084196	0.093562
C	0.0454757177377689 0.2834233022911326 0.6704056139570005	-0.179769
C	0.0068821069925427 0.2528749340851837 0.6057976537414655	0.103452
C	0.0430014735372325 0.2228066961196793 0.5387071056620204	-0.177425
C	0.1137731544903905 0.2239997680047397 0.5383891444781913	0.098095
C	0.9318003230470459 0.2521732484386293 0.6086464153836412	0.054722
C	0.8951250540492492 0.3090843975992281 0.6380494402957099	-0.129131
C	0.8242385511778495 0.3083831152979943 0.6404450569518161	-0.125097
C	0.7875924693557738 0.2502633008065924 0.6149823773279260	0.067822
C	0.8242466666919722 0.1930459338089170 0.5866016181854845	-0.120372
C	0.8950864393631662 0.1942635601928472 0.5826324877280054	-0.126202
C	0.2814937062241321 0.3839390733236926 0.6660244330289625	0.097799
C	0.2832264092748188 0.4546231257113491 0.6693653422286934	-0.173982
C	0.2528997353277935 0.4931627786767215 0.6046383969536006	0.102375
C	0.2225251753696478 0.4569922149855024 0.5377256048959715	-0.180516
C	0.2235067334903843 0.3862225002098217 0.5375538614461139	0.094427
C	0.2522179005570884 0.5682314709950306 0.6077900580762495	0.055214
C	0.3090699217784910 0.6048433578927458 0.6375490909885244	-0.131003
C	0.3082843378258697 0.6757233861286244 0.6402963476827269	-0.124761
C	0.2501803856818382 0.7124183893911252 0.6148828084528527	0.067603
C	0.1929566208019229 0.6758088749399983 0.5864351643308275	-0.119658
C	0.1942642809999658 0.6049897598260849 0.5821102344369232	-0.126423
C	0.2181459885732940 0.1161232319498316 0.6673034211797065	0.088669
C	0.2165883247666973 0.0453840033043147 0.6705242313505868	-0.179098
C	0.2470710196037173 0.0068004660324808 0.6058766281394806	0.098884
C	0.2771453346525966 0.0429392146459889 0.5388339913215719	-0.178994
C	0.2760065814253942 0.1137492361430626 0.5384090174999041	0.088367
C	0.2477747576817383 0.9317277238433390 0.6086907093974412	0.056083
C	0.1908736035680695 0.8950544757665764 0.6380900519889150	-0.130369
C	0.1915989495447616 0.8241702037479899 0.6404407790184172	-0.124759
C	0.2497331980682065 0.7875343811054998 0.6149702215186555	0.067004
C	0.3069450788658347 0.8241908104805313 0.5865955427067246	-0.120598
C	0.3056904260202071 0.8950284278439954 0.5826497024519098	-0.126706
C	0.6160556605348412 0.7185038005079285 0.8339745362472711	0.097906
C	0.5453741465642127 0.7167719793514239 0.8306348881373361	-0.173876
C	0.5068384857959922 0.7471006337402621 0.8953628664921770	0.102223
C	0.5430053265659713 0.7774758619073054 0.9622745843722877	-0.180391
C	0.6137725070090336 0.7764952026433479 0.9624492600868665	0.094325
C	0.4317689662514189 0.7477822737668005 0.8922095583426395	0.055228
C	0.3951558460142566 0.6909306009839364 0.8624511214050581	-0.130929
C	0.3242764335234642 0.6917163066202537 0.8597024946661691	-0.124680
C	0.2875826424729309 0.7498212880588777 0.8851159730746495	0.067555
C	0.3241909036528880 0.8070452544808593 0.9135643817860396	-0.119772
C	0.3950101180798374 0.8057363599991307 0.9178909903237038	-0.126309
C	0.8838825066289614 0.7818557251677748 0.8326913156364510	0.088667
C	0.9546191596047034 0.7834121168166099 0.8294749439317681	-0.178973
C	0.9931989914327344 0.7529297319478413 0.8941218995786758	0.098813
C	0.9570645110387782 0.7228546477361188 0.9611654788305778	-0.178892
C	0.8862578758511565 0.7239933081047943 0.9615943939698293	0.088609
C	0.0682725760237999 0.7522262650195095 0.8913083233304816	0.056083
C	0.1049461508179947 0.8091276747396886 0.8619092171981830	-0.130293
C	0.1758299894564238 0.8084029868929236 0.8595577919964998	-0.124908
C	0.2124656198142960 0.7502679533016769 0.8850290078992136	0.067085
C	0.1758099821126879 0.6930553663661014 0.9134043999789555	-0.120692
C	0.1049724992727790 0.6943106461199458 0.9173496726742307	-0.126669
C	0.7181409447530004 0.8838407774009507 0.8330048678522066	0.093817
C	0.7165775653459794 0.9545289175600720 0.8295906247057010	-0.179676
C	0.7471252504834092 0.9931189480484730 0.8941998804860076	0.103403
C	0.7771956595904974 0.9570033186657929 0.9612906200174614	-0.177460
C	0.7760026139362944 0.8862337520646129 0.9616110962617976	0.098304
C	0.7478273715020829 0.0682017791208965 0.8913517776409319	0.054635
C	0.6909162208673337 0.1048773466996030 0.8619485428313219	-0.129144
C	0.6916167059245582 0.1757636377931882 0.8595541729729708	-0.125133
C	0.7497373133251239 0.2124084866179196 0.8850170364088101	0.067838
C	0.8069554025584686 0.1757554292879956 0.9133982399852039	-0.120272
C	0.8057377043123560 0.1049157603998961 0.9173658557679223	-0.126211
C	0.7815008310541803 0.6160092793007437 0.8344054110569056	0.088064
C	0.7831783061576720 0.5452976647938461 0.8311368382601707	-0.176249
C	0.7528254972685615 0.5067514791222498 0.8957979495077967	0.099437
C	0.7224578696030665 0.5429314648758460 0.9627128001843415	-0.180827
C	0.7234353637986064 0.6137539240445535 0.9631173395108260	0.088973
C	0.7521547672402665 0.4316943424465541 0.8924935664797778	0.055092
C	0.8089987803208836 0.3951182613261380 0.8626029965026820	-0.130668
C	0.8082311241757172 0.3242426541781996 0.8597238093451904	-0.124919
C	0.7501439104823949 0.2875269040634348 0.8851166971778728	0.066853
C	0.6928973131148961 0.3241084854115505 0.9135881029055933	-0.120223
C	0.6941997620331810 0.3949201400560568 0.9180652593930264	-0.125935
C	0.6161400075601345 0.7818555694849928 0.3330180230072355	0.094081
C	0.5454470245161731 0.7834165588229761 0.3295995954168781	-0.179323
C	0.5068514648321506 0.7528747837929863 0.3941987750958637	0.103003
C	0.5429732057325403 0.7228121689329672 0.4612860589638504	-0.177229
C	0.6137484188659065 0.7240033672666512 0.4616064596442013	0.098620
C	0.4317988282875387 0.7521753836506133 0.3913493710578824	0.054724
C	0.3951152266589680 0.8090837819356391 0.3619516472753869	-0.129205
C	0.3242230123641674 0.8083830849013663 0.3595512865640176	-0.125101
C	0.2875829894029506 0.7502629390610857 0.3850112036240059	0.068033
C	0.3242324826005047 0.6930492324828693 0.4133936247250752	-0.120192
C	0.3950779667278463 0.6942689741612137 0.4173625328251470	-0.126251
C	0.8840035966315223 0.7185078568664059 0.3344153843748610	0.088056
C	0.9547204379457391 0.7168282163159292 0.3311435916933568	-0.176233
C	0.9932760613890462 0.7471732337878929 0.3958025646320985	0.099497
C	0.9570900061013774 0.7775358287362423 0.4627100836442664	-0.180875
C	0.8862615986284228 0.7765578905533820 0.4631107354848731	0.089177
C	0.0683026647055993 0.7478425113792663 0.3924960958321327	0.055155
C	0.1048885628961183 0.6910032684527205 0.3626053834131602	-0.130652
C	0.1757669569240025 0.6917703174542762 0.3597212711358367	-0.124895
C	0.2124822049251208 0.7498562812369328 0.3851118896841396	0.066887
C	0.1759020839161088 0.8071010947329947 0.4135836561703859	-0.120587
C	0.1050862988025616 0.8057959731727988 0.4180619537114629	-0.125711
C	0.7181484063312970 0.6161039438360556 0.3327007970092687	0.088537
C	0.7165914850843810 0.5453616784319285 0.3294789437149480	-0.179028
C	0.7470708300542422 0.5067745361035400 0.3941170669384924	0.099442
C	0.7771397302905231 0.5429174659109499 0.4611604004254200	-0.178851
C	0.7760006169519527 0.6137309969253886 0.4615819878697201	0.088278
C	0.7477741219898505 0.4317316899883456 0.3913060167514427	0.055733
C	0.6908761047230703 0.3950483307069547 0.3619106948115016	-0.130167
C	0.6916007330453626 0.3241593917733944 0.3595565001321752	-0.124821
C	0.7497341179566847 0.2875256357451737 0.3850265481581940	0.066931
C	0.8069439619084229 0.3241807944723155 0.4133996405129575	-0.120656
C	0.8056861920473113 0.3950230293497217 0.4173479160403843	-0.126592
C	0.7814904851638708 0.8839573698643457 0.3339897491961841	0.097914
C	0.7832212632840396 0.9546450633502231 0.3306460990792742	-0.173844
C	0.7529027061059936 0.9931887213624684 0.3953703695461409	0.102226
C	0.7225315204742041 0.9570179838289602 0.4622727932375298	-0.180590
C	0.7235102050220374 0.8862438427243926 0.4624450666089783	0.094563
C	0.7522220498851330 0.0682287597394209 0.3922154300903514	0.055033
C	0.8090691147718188 0.1048515626799765 0.3624551664641223	-0.130938
C	0.8082840532854820 0.1757356615287964 0.3597018246679927	-0.124451
C	0.7501797949635914 0.2124270280282547 0.3851133376118405	0.067467
C	0.6929590907712992 0.1758210098046945 0.4135589861447735	-0.119775
C	0.6942711206138101 0.1049971730077171 0.4178886070230428	-0.126109
C	0.3838827931824438 0.2818550069531476 0.1673070693659962	0.088617
C	0.4546225507310003 0.2834133899361656 0.1705295120655342	-0.179033
C	0.4932056677198738 0.2529295795146033 0.1058812340077297	0.098853
C	0.4570657438757519 0.2228558986657101 0.0388370379421587	-0.178733
C	0.3862555290573802 0.2239952510284086 0.0384132552157597	0.088378
C	0.5682755449038349 0.2522262080680727 0.1086949573911194	0.055962
C	0.6049487464995110 0.3091282749521386 0.1380913787937571	-0.130311
C	0.6758326976880077 0.3084020687365510 0.1404425240597740	-0.124872
C	0.7124678577025951 0.2502677658141312 0.1149720541596695	0.067115
C	0.6758118357341867 0.1930560882480072 0.0865968076277477	-0.120700
C	0.6049742226460926 0.1943108656272511 0.0826500776316737	-0.126626
C	0.1160554404324604 0.2185055294312332 0.1660176692797179	0.097911
C	0.0453716769749785 0.2167735767589052 0.1693583422219321	-0.173751
C	0.0068305654279147 0.2471001514175864 0.1046318925361527	0.102176
C	0.0430006073564586 0.2774764221753659 0.0377219693423887	-0.180420
C	0.1137703668858120 0.2764957988040351 0.0375512229006335	0.094540
C	0.9317658180851445 0.2477817606286411 0.1077859961412624	0.055125
C	0.8951543193399110 0.1909301893365077 0.1375470038214913	-0.130838
C	0.8242756377012899 0.1917167767946384 0.1402968397144576	-0.124766
C	0.7875819911834155 0.2498214904704640 0.1148847148210608	0.067503
C	0.8241895871764824 0.3070447011166337 0.0864369412510048	-0.119750
C	0.8950080230635330 0.3057361623261057 0.0821085109353724	-0.126326
C	0.2814995159805191 0.1160065296439015 0.1655883296665164	0.088019
C	0.2831759575394603 0.0452916307897486 0.1688606024050398	-0.176282
C	0.2528278407969795 0.0067414532560098 0.1042008977440881	0.099347
C	0.2224587644975810 0.0429229694510409 0.0372851815542261	-0.180792
C	0.2234371727103797 0.1137485740174746 0.0368821339473954	0.089041
C	0.2521562447589578 0.9316884840535381 0.1075053117403419	0.055278
C	0.3090004628503115 0.8951147949484954 0.1373978091043342	-0.130840
C	0.3082319080599181 0.8242410066217742 0.1402776493414734	-0.124845
C	0.2501445525319697 0.7875256842469401 0.1148854027811967	0.066941
C	0.1928980117984508 0.8241062115184660 0.0864128421068841	-0.120439
C	0.1941997512099962 0.8949160573992287 0.0819349353179199	-0.125736
C	0.2181413917900265 0.3838489875227459 0.1669922304568224	0.094086
C	0.2165788164103143 0.4545381774820367 0.1704079342208720	-0.179558
C	0.2471267946356791 0.4931303014173252 0.1058009412718102	0.103234
C	0.2771937390461529 0.4570115568585685 0.0387108623419919	-0.177471
C	0.2760014220849839 0.3862392319440467 0.0383917849244715	0.098490
C	0.2478271570648931 0.5682071983020309 0.1086498744048969	0.054639
C	0.1909159962776047 0.6048820919530498 0.1380500509031498	-0.129079
C	0.1916175514385097 0.6757678821992719 0.1404467381876712	-0.125091
C	0.2497379620050154 0.7124107323909494 0.1149856656862624	0.067821
C	0.3069552268865928 0.6757591047244408 0.0866030980190926	-0.120170
C	0.3057382401254976 0.6049198986676092 0.0826347072976475	-0.126275
H	0.3532450043390299 0.1986378072183615 0.7176179906525123	0.112218
H	0.4792581053876068 0.1937919050628474 0.7237901079404762	0.116001
H	0.4838669643497955 0.3009791014900345 0.4842319818850952	0.114987
H	0.3568702167186319 0.2981576789066241 0.4845261794015603	0.109157
H	0.5771558122669325 0.1454289368954119 0.6571196122871616	0.099169
H	0.7032716860129504 0.1472783168394378 0.6637854265039393	0.101324
H	0.7034855104302343 0.3522169234577841 0.5650463965610756	0.102527
H	0.5775658298966571 0.3506404894449102 0.5594515934299567	0.101470
H	0.1477027596325497 0.3030853848541801 0.7173744685324657	0.106171
H	0.0206351050437283 0.3067272690004769 0.7249745573728176	0.115320
H	0.0162634142538824 0.1999029706187030 0.4853041807737389	0.115998
H	0.1432092797730094 0.2039106306071152 0.4854736612507188	0.108449
H	0.9227606518651753 0.3547564810094005 0.6575949934625755	0.098804
H	0.7966734281322208 0.3529540005692454 0.6635710177953275	0.102022
H	0.7966985933775351 0.1479827997075964 0.5649314088088551	0.102969
H	0.9225989167313747 0.1494299889423729 0.5601460921685302	0.102261
H	0.3013970588503619 0.3527079226234879 0.7173733135397078	0.106924
H	0.3060857429557617 0.4793178481510849 0.7242786044130854	0.115543
H	0.1992239652293392 0.4838403781090810 0.4846270574849274	0.114939
H	0.2019058663111103 0.3564366981470088 0.4857855232477680	0.106748
H	0.3546875785198529 0.5771613492790052 0.6572176590245543	0.098538
H	0.3527839213020719 0.7032617752215579 0.6637100157509702	0.101895
H	0.1478407726592149 0.7033845647616430 0.5650153747131182	0.102674
H	0.1493980235497250 0.5774957286211797 0.5596950737565449	0.101679
H	0.1971789205308021 0.1471584255132174 0.7185188501693399	0.110271
H	0.1932205760903986 0.0206239547852874 0.7251206830291740	0.115344
H	0.3002372156760769 0.0162859750696210 0.4854542725886011	0.116096
H	0.2962357898728671 0.1427472258202758 0.4849762382012872	0.112581
H	0.1452351501651454 0.9227296380855482 0.6577162628164688	0.099524
H	0.1470425421954403 0.7965974267292337 0.6635879098276993	0.101089
H	0.3520183552493496 0.7966438512051494 0.5649229824522591	0.103019
H	0.3504864961466697 0.9225765511782518 0.5601211320067193	0.102539
H	0.6472904337809984 0.6985998443872897 0.7826289759764183	0.106851
H	0.5206814068934578 0.6939161993522506 0.7757257296856843	0.115514
H	0.5161592421282954 0.8007763888881637 0.0153691970780084	0.114929
H	0.6435625044808244 0.7980951583011683 0.0142147427969218	0.106841
H	0.4228377622378935 0.6453140965255438 0.8427819180960249	0.098450
H	0.2967369306789187 0.6472169921440243 0.8362890063924012	0.101885
H	0.2966150429486427 0.8521600786340766 0.9349853698157173	0.102697
H	0.4225039680362248 0.8506017439486330 0.9403047955995003	0.101640
H	0.8528414915799591 0.8028216674758165 0.7814788425763384	0.110346
H	0.9793765798952025 0.8067789192301500 0.7748835249141626	0.115330
H	0.9837157680045270 0.6997655062412407 0.0145401291923863	0.116072
H	0.8572536236444753 0.7037628818337351 0.0150242332180588	0.112459
H	0.0772708878199302 0.8547654492120382 0.8422841183631579	0.099544
H	0.2034040901327827 0.8529597693388862 0.8364116106160567	0.101123
H	0.2033575243273023 0.6479817936158002 0.9350771622501489	0.103054
H	0.0774245073036934 0.6495152075205702 0.9398781203915625	0.102532
H	0.6969163101745599 0.8523003306362809 0.7826213427665092	0.106184
H	0.6932746835829949 0.9793686154666698 0.7750272412222694	0.115282
H	0.8000957426872469 0.9837393554841278 0.0146898894434164	0.116073
H	0.7960917525262199 0.8567933785806343 0.0145232697007582	0.108415
H	0.6452444108452873 0.0772413306562822 0.8424043708121792	0.098891
H	0.6470461400828214 0.2033301347759214 0.8364286580596845	0.102027
H	0.8520186539867491 0.2033044970625108 0.9350685492218072	0.102911
H	0.8505702108192785 0.0774024346540599 0.9398530728976617	0.102305
H	0.8013666545975833 0.6467515809899498 0.7823848178209157	0.112214
H	0.8062062508685526 0.5207390861444076 0.7762158356666490	0.115996
H	0.6990218939025403 0.5161301407528991 0.0157646084268620	0.115000
H	0.7018411073246136 0.6431278646468446 0.0154751704397885	0.109158
H	0.8545708688387508 0.4228443740681997 0.8428807606146077	0.099128
H	0.8527228500741720 0.2967261991239579 0.8362140361496894	0.101304
H	0.6477832262818040 0.2965121657207914 0.9349543788655431	0.102499
H	0.6493604863974447 0.4224337432336306 0.9405483653812726	0.101511
H	0.6476807795856218 0.8030831021729902 0.2826206729774640	0.106054
H	0.5206087070670705 0.8067270892642192 0.2750141234220126	0.115151
H	0.5162340556265410 0.6999039715403024 0.5147007931692489	0.115936
H	0.6431860380259545 0.7039112246274857 0.5145371724950781	0.108176
H	0.4227476062616862 0.8547650981902000 0.3424057504242674	0.098806
H	0.2966498995671566 0.8529556676159339 0.3364253663115045	0.101988
H	0.2966752809598973 0.6479857120407078 0.4350655388106606	0.102803
H	0.4225857028927931 0.6494251381925339 0.4398527994394481	0.102265
H	0.8532623940723789 0.6986400015354894 0.2823762848147169	0.112171
H	0.9792807968426703 0.6937907646331534 0.2762039024728824	0.116008
H	0.9838939094462654 0.8009763964976383 0.5157832075394448	0.114912
H	0.8568903814609292 0.7981554865351189 0.5154872625859849	0.109108
H	0.0771657944933657 0.6454210347130602 0.3428816072476317	0.099075
H	0.2032917974334281 0.6472774709150582 0.3362102172042281	0.101251
H	0.2035078875882488 0.8522155459748765 0.4349493192860715	0.102620
H	0.0775776229573274 0.8506459622075914 0.4405519481413239	0.101430
H	0.6971738912877709 0.6471441867416179 0.2814754418017156	0.110213
H	0.6932179272698945 0.5206024140128401 0.2748670725864865	0.115251
H	0.8002377410001950 0.5162626636095883 0.5145530483285257	0.115895
H	0.7962300425702575 0.6427316842770009 0.5150338158524288	0.112456
H	0.6452271040374922 0.4227192694291969 0.3422817215309202	0.099536
H	0.6470415657245040 0.2965770566658008 0.3364101445740023	0.101074
H	0.8520171510275329 0.2966252117726055 0.4350758713346648	0.103021
H	0.8504918526600500 0.4225669155441397 0.4398789748702345	0.102568
H	0.8013963483933689 0.8527257561840499 0.2826231625452543	0.106871
H	0.8060892650512349 0.9793383371101335 0.2757231560148238	0.115559
H	0.6992261692463074 0.9838630171583824 0.5153869295057567	0.114811
H	0.7019026761174080 0.8564562858196382 0.5142268764126061	0.106755
H	0.8546946310924610 0.0771723818823027 0.3427839401705833	0.098478
H	0.8527833398990490 0.2032817363390051 0.3362879536908951	0.101743
H	0.6478421276412242 0.2034038189692308 0.4349799097539357	0.102608
H	0.6493947354366639 0.0775062736111911 0.4403075431883888	0.101671
H	0.3528473328068595 0.3028246646870127 0.2185223612599380	0.110329
H	0.4793823452944627 0.3067817204935824 0.2251270082534517	0.115305
H	0.4837194242774993 0.1997635012143928 0.9854547224153571	0.116013
H	0.3572561475592210 0.2037667303312711 0.9849792842197849	0.112468
H	0.5772751624068100 0.3547684329558308 0.1577166632262872	0.099580
H	0.7034094774066342 0.3529586804235752 0.1635875919824107	0.101118
H	0.7033613586078856 0.1479842558970025 0.0649235890980342	0.103038
H	0.5774277791856812 0.1495129121716585 0.0601212267404158	0.102560
H	0.1472856373215677 0.1986009903372569 0.2173667786534516	0.106806
H	0.0206773585424100 0.1939128010757956 0.2242731446972809	0.115498
H	0.0161535079823755 0.3007772941256763 0.9846212340525689	0.114865
H	0.1435565575066917 0.2981007865564058 0.9857844886034746	0.106774
H	0.9228359748194678 0.1453122325981743 0.1572153456618416	0.098454
H	0.7967344688465747 0.1472188622403741 0.1637100328535834	0.101906
H	0.7966114821169229 0.3521588333821510 0.0650159392876722	0.102686
H	0.9225014160437910 0.3506031649987609 0.0596925624070776	0.101678
H	0.3013661970896641 0.1467443795697077 0.2176108992182963	0.112243
H	0.3062109950519892 0.0207317953064888 0.2237892198192566	0.115953
H	0.1990225352245310 0.0161185224573302 0.9842233261399688	0.114900
H	0.2018429090844727 0.1431155990396556 0.9845190698169709	0.109210
H	0.3545747117807724 0.9228392544373617 0.1571184330464769	0.099129
H	0.3527219092431451 0.7967194743180249 0.1637874389833075	0.101291
H	0.1477860718378692 0.7965039187201364 0.0650469580393006	0.102528
H	0.1493593107839055 0.9224280125894713 0.0594495931442413	0.101478
H	0.1969149923642262 0.3523120564130383 0.2173769879741847	0.106014
H	0.1932737498312294 0.4793797721455749 0.2249802710884863	0.115227
H	0.3000971662826034 0.4837491059336680 0.9853071463966380	0.115983
H	0.2960919602552965 0.3568020567324119 0.9854795793031582	0.108326
H	0.1452426079145505 0.5772481060983382 0.1575929606204096	0.098831
H	0.1470477926654487 0.7033392555074832 0.1635701235929173	0.101978
H	0.3520150443549738 0.7033131769471813 0.0649331335125130	0.102892
H	0.3505731299489445 0.5774091026667476 0.0601471564883290	0.102278
Co	0.2500283582708155 0.2499752793488846 0.6008577069031376	0.586854
Co	0.7500249704046884 0.7499713123347650 0.8991418025842659	0.586900
Co	0.7500250227418205 0.7499753133460473 0.3991425445249348	0.587330
Co	0.2500238595148392 0.2499735365355557 0.1008558202178089	0.587047
Al	0.2517727928958615 0.2500295321736765 0.3513703385455238	1.677169
Al	0.7499572697396830 0.7482309066950759 0.1486190956660575	1.677013
Al	0.7517676610747294 0.7500369723498501 0.6486299949013150	1.677294
Al	0.2499418202758858 0.2482277900298774 0.8513779297269634	1.676920
	  	
