#======================================================================

# CRYSTAL DATA

#----------------------------------------------------------------------

data_VESTA_phase_1


_pd_phase_name                         ALFFIVE_14_Fe_i
_cell_length_a                         13.42320
_cell_length_b                         13.41549
_cell_length_c                         7.79912
_cell_angle_alpha                      87.57884
_cell_angle_beta                       87.54047
_cell_angle_gamma                      90.38951
_symmetry_space_group_name_H-M         P 1
_symmetry_Int_Tables_number            1

loop_
_symmetry_equiv_pos_as_xyz
   x, y, z

loop_
   _atom_site_label
   _atom_site_fract_x
   _atom_site_fract_y
   _atom_site_fract_z
   _atom_site_charge
C	0.5717567191586802 0.2680341641784537 0.3684236346157360	-0.183867
C	0.4683793983470119 0.2716617550118888 0.3725295662190864	0.111082
C	0.9378633596652179 0.2894620475729949 0.4203352661746605	-0.178771
C	0.0407729470583888 0.2821712264764653 0.4037276238627897	0.111622
C	0.2663798645931126 0.5717682907065429 0.3708828674223207	-0.185097
C	0.2698230245652252 0.4682822495900477 0.3755331550652530	0.109630
C	0.2976891159596759 0.9379805738884293 0.4153914579989389	-0.178313
C	0.2893920027336235 0.0409255518806612 0.3999665391940928	0.110433
C	0.9298541432933030 0.2336429219523960 0.1312561308715656	-0.187690
C	0.0332345016602825 0.2298907247251928 0.1247574955202459	0.106154
C	0.5652522774828476 0.2069768292276946 0.0827557864995673	-0.173064
C	0.4623000117134762 0.2159981695962032 0.0955001482805893	0.099587
C	0.2082210786087251 0.5651968960560337 0.0834042434646854	-0.178727
C	0.2173831000776219 0.4622409714834847 0.0965022977338075	0.099883
C	0.2302794825455858 0.9295492104014443 0.1344676099836506	-0.187163
C	0.2261933391355394 0.0329896860563719 0.1284239333873460	0.108458
C	0.4301636656937191 0.7350072971184203 0.6314501284572447	-0.186622
C	0.5334957036837031 0.7319460284367216 0.6243994035142478	0.103900
C	0.0654991972279333 0.7288197711433938 0.5711818119098891	-0.169066
C	0.9623001571558476 0.7327465558304015 0.5876036529858382	0.093828
C	0.7351907469384119 0.4299193514652829 0.6308265982316194	-0.187093
C	0.7324017116216157 0.5333437372704455 0.6238053138125932	0.106008
C	0.7158402004205169 0.0649211774729108 0.5769710126169265	-0.169820
C	0.7223854060118576 0.9617778362483186 0.5916013501087435	0.094800
C	0.0713431531192687 0.7619246328980604 0.8719865221830602	-0.184725
C	0.9679135716339330 0.7633201216325439 0.8776982224287917	0.103331
C	0.4381153350517869 0.7787969400124575 0.9274443111913377	-0.169902
C	0.5411702222140409 0.7748307755957039 0.9086310671618013	0.107571
C	0.7797162113335406 0.4377694440311031 0.9264311308931154	-0.172511
C	0.7751485634429983 0.5408355320243295 0.9081021188876559	0.106492
C	0.7666127948874851 0.0712281474454939 0.8691511734204426	-0.183025
C	0.7693669235967429 0.9678012476513685 0.8738990707605235	0.107146
C	0.6220423276334527 0.2355181205089941 0.2194113311766211	0.190363
C	0.8803728824438394 0.2633266196421983 0.2829685284389658	0.192476
C	0.2353362666974498 0.6219415439171353 0.2210165248571595	0.194468
C	0.2661961847791383 0.8803539252563584 0.2816630616173953	0.192461
C	0.3806388320821161 0.7582887509585364 0.7871946371815629	0.188895
C	0.1220097040830097 0.7446747450862028 0.7145248699148196	0.188405
C	0.7587635504564590 0.3803443244283313 0.7862261074887267	0.189417
C	0.7396855550052814 0.1216618207918668 0.7164590007510095	0.188379
H	0.6126671371905302 0.2848968535530848 0.4812581183380246	0.106928
H	0.4268515375850698 0.2917415097865981 0.4888573655976580	0.094377
H	0.9025686740183529 0.3144127358266305 0.5388005228827337	0.124506
H	0.0876584694265661 0.3008970026154306 0.5084215684593550	0.094150
H	0.2821767145141947 0.6130493071813015 0.4838581185702807	0.110193
H	0.2882203450781297 0.4269167438233982 0.4929704149762776	0.096220
H	0.3276175077943837 0.9027510311304513 0.5300359990504967	0.124128
H	0.3122245042381252 0.0880858201490344 0.5019667751355982	0.095251
H	0.8880048558071642 0.2183863096848456 0.0187307856998821	0.107397
H	0.0739151798873459 0.2083353713464709 0.0080570346325706	0.098207
H	0.6010857521665247 0.1789932732315145 0.9670959057382803	0.123718
H	0.4169748970677248 0.1974780025892902 0.9883507679142031	0.104555
H	0.1817454490150755 0.6010003440527066 0.9666027128739547	0.124660
H	0.2005489133641952 0.4168807851134475 0.9884820390944397	0.104123
H	0.2104295785835728 0.8874277191046301 0.0246384570179780	0.110074
H	0.2004919543972219 0.0736749677595850 0.0146486206852435	0.097791
H	0.3887749847105466 0.7225488093981828 0.5171300226789314	0.103145
H	0.5742460579624814 0.7133175095131130 0.5061512440602752	0.101277
H	0.1014826135690199 0.7141616008973928 0.4476412142649070	0.121481
H	0.9173522432114214 0.7213955532157259 0.4769284026915767	0.107750
H	0.7230826746243144 0.3882859437520362 0.5165970573713179	0.104724
H	0.7141108193609884 0.5741873339673659 0.5054932921346502	0.101433
H	0.6930576257928500 0.1008073886878487 0.4577762180357836	0.123392
H	0.7063228437188387 0.9166258188632629 0.4830200682582170	0.108682
H	0.1117824093356430 0.7703279542742352 0.9887997851903896	0.101921
H	0.9263839501051252 0.7728045934746617 -0.0011319846694118	0.101748
H	0.4028519817229611 0.7973701462671465 0.0497913786770072	0.122756
H	0.5878898754492360 0.7908395103857578 0.0147837050260185	0.097154
H	0.7988476572004509 0.4024076131171438 0.0483457113428288	0.123929
H	0.7908036271498015 0.5875667845847288 0.0144851698120196	0.097901
H	0.7806484269113351 0.1118572994088531 0.9837415438706490	0.104862
H	0.7859982883298240 0.9262436474929808 0.9920117402790006	0.101592
N	0.7761850931264203 0.2745119154134710 0.3023972549012884	-0.115868
N	0.2789833763095229 0.7760649417377883 0.2980492105976041	-0.117766
N	0.7262177818686747 0.2240165862186303 0.2012693821990698	-0.111563
N	0.2232164675496568 0.7261481497321067 0.2051927666535069	-0.111385
N	0.2262189483078802 0.7386825552668973 0.6887977955735726	-0.106449
N	0.7308717192080391 0.2258881405841822 0.6933613406750602	-0.108416
N	0.2763719342909846 0.7651203641137462 0.8138968422045003	-0.112016
N	0.7670649757607730 0.2760864050224054 0.8107472510427344	-0.111380
N	0.4137948791694687 0.2479058615031822 0.2381658908735129	-0.250909
N	0.0885741054537127 0.2527212140551641 0.2588124194679302	-0.247677
N	0.2475602160244137 0.4137210052176651 0.2403512396989730	-0.252752
N	0.2541424676931346 0.0884120481631596 0.2591897414225383	-0.248626
N	0.5890107494365177 0.7514170247603250 0.7602397602560793	-0.205280
N	0.9133823536600160 0.7499343266595402 0.7382285822480877	-0.207689
N	0.7517696525575663 0.5887675709386663 0.7597746524243668	-0.202831
N	0.7488439564641526 0.9131528051225536 0.7376197300496541	-0.205974
F	0.3666389124644627 0.2015027606027250 0.7395454688733624	-0.619277
F	0.2117582083013147 0.3681495647676118 0.7400532338130478	-0.617622
F	0.1513463622207723 0.1569336788042612 0.7669219029050833	-0.626208
F	0.7053082992104075 0.8677804975330956 0.2392347071245879	-0.616633
F	0.8667790969192082 0.7072694660788198 0.2407159953842807	-0.610637
F	0.6540258202965727 0.6545848998494450 0.2645651106108823	-0.626262
F	0.2491793512729705 0.2484242839236690 0.5073004429174520	-0.559487
F	0.2502434526041022 0.2485663022194243 0.9890374017751115	-0.558724
F	0.7485372398180890 0.7499108075187362 0.4889252444544985	-0.562881
F	0.7495820210638527 0.7495055930275163 0.0071064043271801	-0.562370
Al	0.2457444318683077 0.2442708555276637 0.7484784911221413	1.667820
Al	0.7444459214373087 0.7458101753024892 0.2482681235509540	1.660290
Fe	0.2510035754505717 0.2508245819596602 0.2477212810310842	0.873508
Fe	0.7510382480896446 0.7508204694556291 0.7476177768462969	0.705707
	  	
