#======================================================================

# CRYSTAL DATA

#----------------------------------------------------------------------

data_VESTA_phase_1


_pd_phase_name                         ALFFIVE_13_Ni_i
_cell_length_a                         15.10757
_cell_length_b                         15.10458
_cell_length_c                         7.87616
_cell_angle_alpha                      90.01655
_cell_angle_beta                       89.96278
_cell_angle_gamma                      89.89250
_symmetry_space_group_name_H-M         P 1
_symmetry_Int_Tables_number            1

loop_
_symmetry_equiv_pos_as_xyz
   x, y, z

loop_
   _atom_site_label
   _atom_site_fract_x
   _atom_site_fract_y
   _atom_site_fract_z
   _atom_site_charge
C	0.5401901628262784 0.6776321851082048 0.8703452945635364	0.104009
C	0.5433283304329449 0.7698896141389183 0.8682885634663725	-0.148281
C	0.4635006837201415 0.3252766346917921 0.8759929146623039	0.097230
C	0.4602460125222111 0.2330314422759665 0.8768664859243352	-0.140126
C	0.8202583889593842 0.9734162680615707 0.3638643343957496	0.105831
C	0.7285502524217380 0.9703102396106067 0.3602858223818133	-0.139367
C	0.3250039156331107 0.5412866023367744 0.8677100581192840	0.098866
C	0.2327423405772601 0.5451986375276230 0.8652718782125254	-0.149999
C	0.1824733403354594 0.9710768682040833 0.3565324764554979	0.092776
C	0.2742277242147356 0.9696154346510312 0.3535555755070931	-0.138594
C	0.6771888946799945 0.4631829880017639 0.8807854230993161	0.097202
C	0.7693182414902905 0.4601120298655871 0.8810275173910985	-0.141369
C	0.4555835110378451 0.6779965101109022 0.1169849404395989	0.098661
C	0.4518726692972220 0.7701437150877948 0.1178230937658150	-0.137456
C	0.5394771198756804 0.3271252263243639 0.1332452033981678	0.098837
C	0.5422762721726642 0.2348286162685521 0.1381577384911570	-0.148592
C	0.1804632685220947 0.0198404712088177 0.6370709130388361	0.108165
C	0.2720676771585487 0.0224555452688867 0.6438574078354785	-0.138422
C	0.6751593213239473 0.5430833887993480 0.1331315998926109	0.105682
C	0.7674236833121988 0.5466654530128371 0.1368992434761514	-0.148961
C	0.8199796454954423 0.0297455241462655 0.6392539134464593	0.104885
C	0.7282855248628591 0.0305933555321427 0.6455225275248134	-0.139690
C	0.3238151730846192 0.4588244162642265 0.1174009095221745	0.098715
C	0.2315919661476040 0.4561008722881530 0.1180210079113834	-0.141081
C	0.9653712074509598 0.8182770906083913 0.6357191986172747	0.107759
C	0.9641810856282192 0.7264215819474287 0.6419164244663229	-0.139822
C	0.9837662778979308 0.1791575776374953 0.6394381674083918	0.089592
C	0.9797487227201989 0.2707315413108056 0.6429833234801992	-0.139691
C	0.0209333046720973 0.8170814613225460 0.3597974528297411	0.105594
C	0.0239791326492564 0.7254833465662806 0.3563852977628794	-0.142493
C	0.0312635651448741 0.1787622787415051 0.3579983849984656	0.111456
C	0.0314208592482885 0.2705507499952203 0.3517547516054163	-0.139082
C	0.0038702897186254 0.3168731595520684 0.4963588006880579	0.041395
C	0.0009880733418113 0.4132131275656423 0.4966504172892102	0.255750
C	0.4978173904404014 0.8178467781734690 0.9932472115659539	0.057551
C	0.4989117241880897 0.9163007467425729 0.9980750329131350	0.250551
C	0.9950201475698622 0.6796206646172360 0.5003361586505195	0.040074
C	0.9971274465865233 0.5830758747914747 0.5003378239558681	0.247141
C	0.5010562029779962 0.1861400141276888 0.0090198491385047	0.057276
C	0.5004765263637053 0.0875287829036861 0.0095078629531749	0.252038
C	0.6821422794781581 -0.0002815070462379 0.5034046352982134	0.038836
C	0.5856462186584216 0.9976817353498000 0.5044455387403476	0.245814
C	0.1843749176441719 0.5011574770898516 0.9914182646072329	0.060023
C	0.0858633603657063 0.5022684537340214 0.9941929151281816	0.249255
C	0.3194395888413232 0.9960020965182557 0.4998293965588810	0.040151
C	0.4157996986120263 0.9960735042543973 0.5024706860663477	0.255304
C	0.8161711054806902 0.5036058493519163 0.0099042120389033	0.059455
C	0.9146780296209630 0.5035482750279145 0.0072455634138723	0.251064
H	0.5705537775593130 0.6379178943521061 0.7708574390687211	0.112440
H	0.5802356134667302 0.8030539582730147 0.7679124442048967	0.125483
H	0.4369632734357209 0.3637978419796885 0.7700290691342517	0.118373
H	0.4284200274285344 0.1981287451797094 0.7723974598247431	0.121133
H	0.8597475081452765 0.9522734682411265 0.2551341023466213	0.107275
H	0.6939209977705223 0.9462753297583265 0.2481972314677356	0.118416
H	0.3650679318713956 0.5715414372143592 0.7681325704029617	0.111863
H	0.1997654991862761 0.5816867424477626 0.7639673690783820	0.126682
H	0.1449181360328954 0.9553011378993248 0.2424789088116502	0.105435
H	0.3090613883556819 0.9501598334361849 0.2382860511136491	0.114496
H	0.6386949040079692 0.4361371966361685 0.7760325553405453	0.118336
H	0.8041581752103739 0.4267503886276891 0.7781280462485346	0.120898
H	0.4267679790241654 0.6389472238549477 0.2192679898282054	0.118552
H	0.4166735535457751 0.8042618708600396 0.2192911973059650	0.119909
H	0.5675434192617480 0.3675372678233612 0.2345739386700448	0.111504
H	0.5754596989932073 0.2021430233419146 0.2438886567314740	0.125750
H	0.1403239311433998 0.0362504552182597 0.7472082087292045	0.104744
H	0.3056380477846598 0.0429711013330931 0.7595883422043702	0.115955
H	0.6350443670980388 0.5712772489695410 0.2343938026728089	0.112717
H	0.7998261068229244 0.5816627007654276 0.2406439939659697	0.125690
H	0.8594294429367416 0.0500402109694200 0.7479425470097573	0.095102
H	0.6936804336582157 0.0531542241457508 0.7589471696056315	0.118623
H	0.3625888184077096 0.4297082804530888 0.2202625390746052	0.117712
H	0.1969546812191531 0.4219773186355611 0.2201530284471132	0.119513
H	0.9441741957275549 0.8580339862818384 0.7440850675889089	0.108119
H	0.9413010214628735 0.6922916093267191 0.7555551019292651	0.117986
H	0.9692091964746856 0.1409224598310923 0.7532544891707532	0.104964
H	0.9595867227454945 0.3049257031860139 0.7583989563019383	0.118370
H	0.0398933288001779 0.8562201925832618 0.2498463450838697	0.095643
H	0.0474957733513441 0.6905859533071490 0.2441179476781587	0.116689
H	0.0483700204338919 0.1391383124033828 0.2474622618215067	0.105263
H	0.0504038143662320 0.3049604148678323 0.2358062031005867	0.116020
N	0.9437538311433666 0.5400675963355607 0.6104414923299255	-0.142764
N	0.4209124827357943 0.0466374679967645 0.0086549632363691	-0.148474
N	0.5433448895244725 0.0511174854515842 0.6157844929172283	-0.143135
N	0.9559720566776143 0.4240456950074427 0.0025870815660882	-0.143901
N	0.0524188260194193 0.5433845530129650 0.3886333374986078	-0.142203
N	0.5792190565912766 0.0449143975520554 0.0109985349147253	-0.151953
N	0.9568397124710609 0.5823745212825945 0.0048274203094932	-0.147156
N	0.5453311993592297 0.9418793074775642 0.3949264597339364	-0.140109
N	0.0547986288822096 0.4562821781781472 0.3876145580597252	-0.137939
N	0.5784252821450572 0.9571934109522197 0.0011898760314163	-0.146039
N	0.4581891972319003 0.9410266178045695 0.3942438535065638	-0.132471
N	0.0445317406454079 0.5817135639896441 0.9946102399258741	-0.149223
N	0.9452987578665603 0.4528803948854733 0.6074990023323982	-0.134002
N	0.4202162284126298 0.9588656472170836 0.0061452660020755	-0.141463
N	0.0437059713088914 0.4234008403729973 0.9988662736608003	-0.146665
N	0.4561941250549998 0.0503739462002810 0.6144023681005861	-0.139818
N	0.0074367370632079 0.1343125555874987 0.4988169407552555	-0.220946
N	0.4983289794650633 0.6324246809411430 0.9942560489956115	-0.163905
N	0.9936255998179655 0.8623613846395130 0.4972947234028902	-0.218875
N	0.5014713115171239 0.3714371697306736 0.0034958868486325	-0.160848
N	0.8647563677590721 0.0023684985172802 0.5011337329772795	-0.216662
N	0.3696941801062552 0.4999296181805289 0.9931226912744067	-0.159118
N	0.1368093804562528 0.9947468179554804 0.4962126541885553	-0.220617
N	0.6308067294944577 0.5029967721097992 0.0060524410689939	-0.164351
Ni	0.0008050783457690 0.9984638522564595 0.4979042497385078	0.745352
Ni	0.5001968778053478 0.5017128340512096 0.9992436366532195	0.528858
Al	0.9982006135891376 0.9957573996818111 0.9983402172859279	1.666707
Al	0.4981925534480030 0.5021218245428379 0.4994159422051060	1.677537
F	0.0005048085930239 -0.0020945926413713 0.2353195126758086	-0.590214
F	0.5072334234107146 0.4986155376023793 0.7261350146122795	-0.611688
F	-0.0005094189323628 0.9969137423389898 0.7612391706765846	-0.591244
F	0.4916789080152646 0.5073522640968825 0.2725389416023253	-0.611836
F	0.9171179800322975 0.9153565133401286 0.0000156214319168	-0.623823
F	0.4185025184313709 0.4176666077360162 0.5036417084185755	-0.653479
F	0.9669452591086884 0.1059906565819230 0.9977839679318729	-0.616930
F	0.4634574725159428 0.6130129148972285 0.5121351739581861	-0.657261
F	0.1082402588198267 0.9638100768570382 -0.0022837895120358	-0.616782
F	0.6107392649344047 0.4731489524068395 0.4833071156247912	-0.656132
	  	
