#======================================================================

# CRYSTAL DATA

#----------------------------------------------------------------------

data_VESTA_phase_1


_pd_phase_name                         ALFFIVE_3_Ni
_cell_length_a                         14.04590
_cell_length_b                         14.04596
_cell_length_c                         7.77176
_cell_angle_alpha                      90.00066
_cell_angle_beta                       90.00134
_cell_angle_gamma                      90.18789
_symmetry_space_group_name_H-M         P 1
_symmetry_Int_Tables_number            1

loop_
_symmetry_equiv_pos_as_xyz
   x, y, z

loop_
   _atom_site_label
   _atom_site_fract_x
   _atom_site_fract_y
   _atom_site_fract_z
   _atom_site_charge
C	0.2703762158155696 0.4516505686596315 0.6439207145181451	0.059022
C	0.2292448744161845 0.0508992339169423 0.6420643283059808	0.061650
C	0.2301490781635888 0.4516607904648345 0.3572424854088204	0.048844
C	0.2707594553353712 0.0507764423041958 0.3562164486429311	0.064650
C	0.0507747971380007 0.2707618216244051 0.3562148263324386	0.064611
C	0.4516582332603092 0.2301516963036475 0.3572423005823082	0.048959
C	0.4516494323466804 0.2703804064831709 0.6439180972079860	0.059022
C	0.0508958976010872 0.2292476221677530 0.6420648340775740	0.061685
C	0.9516595523703149 0.2301529784190234 0.6427512604674247	0.048709
C	0.5507775157601428 0.2707610701126388 0.6437849765650813	0.064680
C	0.5508945894650610 0.2292472297462671 0.3579330688274916	0.061436
C	0.9516462304524376 0.2703800623124227 0.3560767974895373	0.059061
C	0.7292451741566544 0.0508941576179839 0.3579368039499179	0.061490
C	0.7703785085356629 0.4516474068736282 0.3560809789594259	0.059029
C	0.7707580443598689 0.0507767659024044 0.6437876186344857	0.064659
C	0.7301516445926939 0.4516615711633710 0.6427517116752000	0.048878
C	0.4516599103913503 0.7301542167597802 0.6427543607686383	0.048826
C	0.0507760799077933 0.7707619871289223 0.6437880995691404	0.064681
C	0.0508946453513053 0.7292482726690063 0.3579379048531084	0.061432
C	0.4516454011803299 0.7703818499506873 0.3560801392093887	0.059076
C	0.2292451714736514 0.5508958364793590 0.3579378791333330	0.061602
C	0.2703782843685478 0.9516488117425619 0.3560813641527475	0.059066
C	0.2707570727562195 0.5507788227504697 0.6437860333584432	0.064674
C	0.2301499181730297 0.9516634276110316 0.6427535414049897	0.048829
C	0.7703767873095314 0.9516493405236967 0.6439190503394941	0.059033
C	0.7292451487114193 0.5508972060200876 0.6420622020401342	0.061627
C	0.7301502072602973 0.9516586617050052 0.3572429289647733	0.048995
C	0.7707596779844593 0.5507750507822879 0.3562167140522854	0.064656
C	0.5507737649583113 0.7707626742736796 0.3562165777165368	0.064622
C	0.9516583450615725 0.7301526559149613 0.3572438778685035	0.048985
C	0.9516482834651480 0.7703811788465755 0.6439190994873970	0.059108
C	0.5508959044567961 0.7292478716690228 0.6420647922051692	0.061666
H	0.2830192269393381 0.4119565060667483 0.7618730662057753	0.111086
H	0.2116200040338252 0.0906133058634687 0.7582579415766622	0.110823
H	0.2156827333373236 0.4123801075376043 0.2389313322181067	0.117882
H	0.2864020552322766 0.0909119772943891 0.2399184775357227	0.107175
H	0.0909099321402331 0.2864030235636142 0.2399170524038680	0.107191
H	0.4123783966380092 0.2156832936099777 0.2389323006127570	0.117887
H	0.4119557629718515 0.2830251291340565 0.7618682788335222	0.111077
H	0.0906092716375651 0.2116227850254452 0.7582590695084889	0.110826
H	0.9123806611664073 0.2156852370191782 0.7610577296287189	0.118000
H	0.5909135654291063 0.2864034024365220 0.7600845813393826	0.107126
H	0.5906060001721892 0.2116229366183824 0.2417411519859461	0.110882
H	0.9119513468424036 0.2830238661538929 0.2381249152282069	0.111109
H	0.7116209672465507 0.0906085421031563 0.2417428224726701	0.110851
H	0.7830212131964625 0.4119532086719178 0.2381253306069579	0.111124
H	0.7864023620918321 0.0909146726004682 0.7600874816330182	0.107156
H	0.7156852225141959 0.4123826223716836 0.7610624566897399	0.117937
H	0.4123809100802078 0.7156876148599765 0.7610625361800930	0.117946
H	0.0909129872645915 0.7864059132137791 0.7600889360821564	0.107095
H	0.0906076882418271 0.7116238215815354 0.2417445976335618	0.110930
H	0.4119508149561392 0.7830240359869579 0.2381249447527509	0.111125
H	0.2116213001212966 0.5906104328136431 0.2417419534921687	0.110858
H	0.2830228196179419 0.9119537469512595 0.2381296089215837	0.111079
H	0.2864003530083217 0.5909161413218953 0.7600889691041622	0.107151
H	0.2156819993035046 0.9123855133411995 0.7610636483357313	0.117963
H	0.7830198627792792 0.9119550544693873 0.7618743279949196	0.111098
H	0.7116204242402915 0.5906124830062206 0.7582561367615456	0.110846
H	0.7156834703219543 0.9123783869423907 0.2389304280164531	0.117858
H	0.7864030458408576 0.5909115616581676 0.2399187007054077	0.107182
H	0.5909096123854387 0.7864044080916056 0.2399180974918128	0.107212
H	0.9123786250648335 0.7156837669476619 0.2389316666481292	0.117899
H	0.9119539919020391 0.7830256069247772 0.7618708751150124	0.111085
H	0.5906112496676953 0.7116227339339900 0.7582578489577978	0.110827
Ni	0.2509621917804381 0.2509615383844243 0.4990506243693075	0.760083
Ni	0.7509608921541128 0.2509621023191679 0.5009431495478953	0.760162
Ni	0.2509594668973383 0.7509647542319076 0.5009475138081637	0.760144
Ni	0.7509645903606417 0.7509624973450120 0.4990549851324684	0.760204
Al	0.2477680243097469 0.2477521710766452 -0.0017013806016663	1.661061
Al	0.7477583257522022 0.2477528556103890 0.0016995243978313	1.660715
Al	0.2477526754597461 0.7477626621697501 0.0017042430791495	1.660862
Al	0.7477626651230180 0.7477501228107759 -0.0017082832780564	1.660817
F	0.2510585524988948 0.2510146216120483 0.7582967578655970	-0.588964
F	0.2497160870204206 0.2497149338325027 0.2384155954000027	-0.590329
F	0.1609622264212539 0.1609596121379474 -0.0053473387913450	-0.612743
F	0.2128056349245873 0.3656448063820917 0.9986684025026286	-0.607605
F	0.3656648881977911 0.2127831336227490 0.9987210216298091	-0.607627
F	0.7497202522532188 0.2497125366058170 0.7615749337758673	-0.590309
F	0.7510231735772169 0.2510243790363842 0.2417130690088254	-0.588873
F	0.6609535723962042 0.1609587436875538 0.0053403527168676	-0.612692
F	0.7128138682230873 0.3656491228602452 0.0013185533185677	-0.607542
F	0.8656492469712070 0.2127828501325562 0.0012900087803090	-0.607547
F	0.2497231668308892 0.7497120264752527 0.7615894165909567	-0.590361
F	0.2510103959116033 0.7510439357175211 0.2417174570901411	-0.588937
F	0.1609521991110984 0.6609471863349793 0.0053696001667513	-0.612689
F	0.2127881433594129 0.8656531039841834 0.0012778644041768	-0.607560
F	0.3656491662286394 0.7128153175385372 0.0013478615133902	-0.607555
F	0.7510603631863213 0.7510094133345622 0.7582991705506744	-0.588921
F	0.7497033824072760 0.7497020362830068 0.2384058448625240	-0.590373
F	0.6609490132619433 0.6609481625237178 -0.0053636184719280	-0.612689
F	0.7127966297615392 0.8656375126883196 0.9986629629130774	-0.607579
F	0.8656522441666080 0.7127756733522785 0.9987211433564940	-0.607575
N	0.4019171736268246 0.2506692864901361 0.5003028570709580	-0.194294
N	0.1006517749524011 0.2501951993401164 0.4990506738275583	-0.193845
N	0.2506656892145646 0.4019183353787857 0.5003046253604855	-0.194244
N	0.2501922424445107 0.1006546712486439 0.4990495867713155	-0.193878
N	0.9019160894543728 0.2506695451178744 0.4996892473487866	-0.194292
N	0.6006518387043525 0.2501943276806340 0.5009497666239742	-0.193733
N	0.7506679260054745 0.4019172315678690 0.4996933298172352	-0.194386
N	0.7501917482947498 0.1006520800108286 0.5009507495338348	-0.193785
N	0.4019153372108220 0.7506707252447236 0.4996929802162321	-0.194404
N	0.1006519112992073 0.7501954423516961 0.5009539771810411	-0.193787
N	0.2506673716910239 0.9019187619443899 0.4996947720925736	-0.194279
N	0.2501911689070916 0.6006537100606132 0.5009506964926772	-0.193798
N	0.9019164271580560 0.7506700140495666 0.5003040462562482	-0.194359
N	0.6006519586712145 0.7501946270292972 0.4990508209524342	-0.193863
N	0.7506666616381794 0.9019163647272014 0.5003050114658190	-0.194344
N	0.7501923122155792 0.6006526806529443 0.4990484699087747	-0.193836
	  	
