#======================================================================

# CRYSTAL DATA

#----------------------------------------------------------------------

data_VESTA_phase_1


_pd_phase_name                         ALFFIVE_15_Cu_i
_cell_length_a                         29.59418
_cell_length_b                         28.61921
_cell_length_c                         8.24104
_cell_angle_alpha                      89.99859
_cell_angle_beta                       89.99913
_cell_angle_gamma                      89.99641
_symmetry_space_group_name_H-M         P 1
_symmetry_Int_Tables_number            1

loop_
_symmetry_equiv_pos_as_xyz
   x, y, z

loop_
   _atom_site_label
   _atom_site_fract_x
   _atom_site_fract_y
   _atom_site_fract_z
   _atom_site_charge
C	0.9357682299608533 0.1045812492868848 0.8914213525533018	0.090932
C	0.9030181033080535 0.0699014036386479 0.8964601540780578	-0.162424
C	0.7702431557048712 0.9362713278222530 0.8980644421889191	-0.116703
C	0.7356980271412915 0.9036149562002967 0.8978311060821768	-0.116296
C	0.5660596552399025 0.7391650805842743 0.8912591627502167	0.090409
C	0.5998251902188564 0.7727844451178059 0.8960728940563195	-0.167377
C	0.4358939592872891 0.6043707334702901 0.8913402038732000	0.099616
C	0.4031872460574000 0.5696636197357390 0.8965669392041642	-0.163734
C	0.2701378639797488 0.4363635526279854 0.8980191932154846	-0.115513
C	0.2356292254903446 0.4036668504950301 0.8977971224556055	-0.115075
C	0.0662235301029288 0.2390529080175214 0.8911851112780554	0.098378
C	0.1000700269091498 0.2725616200593899 0.8962038296483592	-0.167037
C	0.0647053108291396 0.8950386507558215 0.3913620278544756	0.100284
C	0.0970958446033931 0.9300606840392143 0.3965629885258968	-0.163782
C	0.2297424755913096 0.0637902619605169 0.3980346163803133	-0.114918
C	0.2642760611751562 0.0964596681104388 0.3978151882230572	-0.115578
C	0.4343655634850973 0.2603179752380445 0.3911935671838773	0.097763
C	0.4002776133262627 0.2270721827448066 0.3962323863488127	-0.167615
C	0.5645366595299994 0.3951046382238623 0.3913942554437749	0.093460
C	0.5968075500285792 0.4302683417731969 0.3964641112679934	-0.162380
C	0.7297710550824807 0.5637278246838896 0.3980572967317343	-0.116671
C	0.7643508928147741 0.5963457204252016 0.3978175566750964	-0.115962
C	0.9342717148552034 0.7605226644142624 0.3912558203764424	0.090010
C	0.9000976400038500 0.7273440372642809 0.3960689904940811	-0.166687
C	0.0645242731261504 0.1051817876113222 0.6086465523929988	0.101638
C	0.0968952029770003 0.0701467581741072 0.6034065413084163	-0.164705
C	0.2294709311727720 0.9364477615524388 0.6019542246238434	-0.115830
C	0.2640976169806280 0.9038836711757210 0.6021776340476266	-0.114361
C	0.4337443285188567 0.7393408785682269 0.6088030507619483	0.089895
C	0.3999869639673060 0.7729860624022267 0.6039517148183960	-0.166587
C	0.5639630379962962 0.6045696613289600 0.6086450333028950	0.098825
C	0.5966599536624003 0.5698617786762477 0.6034196483056514	-0.163592
C	0.7296501379008714 0.4365999164454711 0.6019403893831486	-0.114917
C	0.7640775988783093 0.4038135652897708 0.6021756980119997	-0.115183
C	0.9340944492074726 0.2396838833148702 0.6087889919854745	0.091433
C	0.8998917002075153 0.2728418141521738 0.6039308732245873	-0.165986
C	0.9356395072548624 0.8956076613065024 0.1086154482828473	0.091077
C	0.9028549159038001 0.9302659894235566 0.1035927675251408	-0.161403
C	0.7699559079113761 0.0639231047865380 0.1019591111585104	-0.114355
C	0.7355163499919556 0.0967018566631071 0.1021472690884846	-0.117269
C	0.5654641640770617 0.2605007702700299 0.1088074668343383	0.097769
C	0.5995592833356497 0.2272679703250350 0.1037639795891141	-0.167382
C	0.4353045204773462 0.3952874568895638 0.1086280882592739	0.092926
C	0.4030216435082417 0.4304486268870549 0.1035363028143855	-0.161912
C	0.2700174461892486 0.5639371437787918 0.1019479170784393	-0.115801
C	0.2353850168220698 0.5964953799470164 0.1021850824797121	-0.115473
C	0.0660682928653546 0.7611584642342519 0.1088127106459834	0.097556
C	0.0999004655420541 0.7276331157491994 0.1038158071290008	-0.166905
C	0.0647057195363772 0.8950399042793863 0.1086330167080704	0.100248
C	0.0970966980629551 0.9300617893989584 0.1034288969070982	-0.163831
C	0.2297430353369963 0.0637909082109556 0.1019674471486705	-0.114897
C	0.2642766415233427 0.0964601175011956 0.1021783136942731	-0.115633
C	0.4343664046040104 0.2603192541077194 0.1088044576965705	0.097924
C	0.4002790914523743 0.2270733557055609 0.1037660495281688	-0.167613
C	0.5645380809860280 0.3951051723576897 0.1086027526988912	0.093475
C	0.5968093182815933 0.4302686728384577 0.1035328126813793	-0.162530
C	0.7297718358160867 0.5637286183934904 0.1019367986125546	-0.116692
C	0.7643515828425382 0.5963469481640109 0.1021722103540875	-0.115803
C	0.9342733763239819 0.7605238958638187 0.1087434354883312	0.089914
C	0.9000989907794593 0.7273452878355526 0.1039317486510748	-0.166557
C	0.9357693128042771 0.1045825285515840 0.6085924568583895	0.090834
C	0.9030192426112187 0.0699034131700782 0.6035538911593061	-0.162369
C	0.7702444098654359 0.9362724368267132 0.6019287974246080	-0.116740
C	0.7356991558845838 0.9036159150931551 0.6021648909975216	-0.116288
C	0.5660616935849191 0.7391670898871703 0.6087529194226670	0.090188
C	0.5998272495646830 0.7727864874472804 0.6039365813289150	-0.167215
C	0.4358980055623412 0.6043723910717249 0.6086412763508734	0.099738
C	0.4031892571636360 0.5696674177395847 0.6034134933855054	-0.163449
C	0.2701389103607376 0.4363644183372862 0.6019732756470685	-0.115494
C	0.2356301223070652 0.4036675113535159 0.6022003063688827	-0.115001
C	0.0662243193125496 0.2390522994351242 0.6088171136865563	0.098509
C	0.1000712356184115 0.2725612783296938 0.6037929339967628	-0.167079
C	0.9356393868546798 0.8956080530973528 0.3913880345018380	0.091000
C	0.9028550113002710 0.9302663439568616 0.3964090329166385	-0.161350
C	0.7699563132817309 0.0639230954323423 0.3980386039895295	-0.114263
C	0.7355166561931613 0.0967014097316765 0.3978488260590885	-0.117284
C	0.5654656131249008 0.2605017985193687 0.3912007678838338	0.097870
C	0.5995601411242909 0.2272686239933003 0.3962399375692516	-0.167449
C	0.4353052541753826 0.3952881985978025 0.3913695119316258	0.092915
C	0.4030218495198408 0.4304492949983497 0.3964602502473857	-0.161793
C	0.2700179483154166 0.5639360423067656 0.3980471058578425	-0.115922
C	0.2353855553943355 0.5964947081654489 0.3978117621016419	-0.115380
C	0.0660691919756163 0.7611581933064192 0.3911980436630675	0.097618
C	0.0999010578403911 0.7276326178259914 0.3961943099862909	-0.166873
C	0.0645245717351115 0.1051798290334740 0.8913624497404328	0.101843
C	0.0968953918878164 0.0701449273462244 0.8965986378141759	-0.164735
C	0.2294711985688711 0.9364471730657672 0.8980437701571372	-0.115807
C	0.2640978346352967 0.9038830393421765 0.8978176724900367	-0.114365
C	0.4337455942725860 0.7393402026753843 0.8912052051173632	0.089975
C	0.3999882938939051 0.7729855036782268 0.8960616692098730	-0.166688
C	0.5639661812896347 0.6045698776189276 0.8913450548121079	0.099008
C	0.5966621150968815 0.5698610859076360 0.8965652249003362	-0.163656
C	0.7296505291194321 0.4366002800798581 0.8980531515031258	-0.114910
C	0.7640780369342381 0.4038140037185088 0.8978197986922906	-0.115190
C	0.9340948668774861 0.2396844572211975 0.8912278693051711	0.091406
C	0.8998917224307658 0.2728424732049504 0.8960828477318521	-0.166169
C	0.6523587039165720 0.8244118997226344 0.7500028911209023	-0.102479
C	0.8857934139628729 0.0518462330165369 0.7500077669239555	0.161629
C	0.8225816641715868 0.9870827628704889 0.7499967538402165	-0.100767
C	0.6176780927504237 0.7904660039173946 0.7500042581129241	0.168490
C	0.7879127126589671 0.9532049838775858 0.7499952793227277	0.128276
C	0.7177557151642807 0.8867948248626472 0.7499989211208791	0.138371
C	0.6825793297092103 0.8534476873830641 0.7500010358009118	-0.102151
C	0.8520982746722601 0.0168912429345583 0.7500057515897692	-0.103339
C	0.1525062850522821 0.3242072857196986 0.7499947401611380	-0.105109
C	0.3859302161125151 0.5516999271023153 0.7499887692930348	0.162963
C	0.3225473069930478 0.4871175040831743 0.7499917856639831	-0.098005
C	0.1178506467010624 0.2902319965952123 0.7499955374452000	0.169939
C	0.2878082377771597 0.4533133241624815 0.7499944485752205	0.130362
C	0.2177156330743109 0.3868195072511976 0.7499993396956127	0.137393
C	0.1826253533257885 0.3533604752686306 0.7499986865818902	-0.099268
C	0.3521622371518147 0.5168168350924839 0.7499872319474424	-0.105229
C	0.3474271707872395 0.1758953298271066 0.2500003696101714	-0.105307
C	0.1140618055285503 0.9483166496143379 0.2499939365065206	0.163924
C	0.1772056716671795 0.0131791957358748 0.2500024742213077	-0.098476
C	0.3822542944471604 0.2096772144848844 0.2499993344605279	0.171166
C	0.2119811449730089 0.0469564822720276 0.2500018242153841	0.128789
C	0.2821258027314527 0.1133971562562820 0.2499948880026198	0.140320
C	0.3172307395514821 0.1468292342947212 0.2499945178116224	-0.099478
C	0.1476389810992272 0.9834159607307135 0.2499958199856952	-0.107719
C	0.8472798993897875 0.6760264569049138 0.2499989834179282	-0.103145
C	0.6137905525148892 0.4485865242881943 0.2499977248128226	0.161208
C	0.6770688364597428 0.5132929109283351 0.2499985371571747	-0.101324
C	0.8820520524930321 0.7098860918714250 0.2500006826107311	0.167629
C	0.7119554197409524 0.5469332295515418 0.2499981564882061	0.128259
C	0.7821973495560678 0.6132728553128625 0.2499937881857013	0.139165
C	0.8172190414248266 0.6468050090621189 0.2499937026591636	-0.100935
C	0.6473671731680885 0.4836771651526909 0.2499943912662176	-0.105694
C	0.3474171600627516 0.8246109437294245 0.7500039779297669	-0.101748
C	0.1138503186060364 0.0519129444859441 0.7500017931139740	0.162742
C	0.1769451048163120 0.9870291085220071 0.7499998761728984	-0.096603
C	0.3821152737252128 0.7906668424743550 0.7500074025270813	0.165635
C	0.2117237474804634 0.9532669731129521 0.7499992352110675	0.126160
C	0.2820579786957822 0.8870482707060799 0.7499977481104521	0.138683
C	0.3172330467186043 0.8536908037382314 0.7499983970867463	-0.101115
C	0.1474095168988811 0.0168232559132062 0.7499994978069957	-0.109556
C	0.8470627495191159 0.3241724541347014 0.7500031448691851	-0.104028
C	0.6138683429890531 0.5518686341513628 0.7499901421496251	0.163925
C	0.6772611537347007 0.4873078414345764 0.7499950730264506	-0.094684
C	0.8818430869801459 0.2903267976311613 0.7500052620462356	0.166338
C	0.7120023591088031 0.4535248044764609 0.7499967975362982	0.127327
C	0.7819181043594101 0.3868531786189335 0.7499979944712474	0.138602
C	0.8169379461848525 0.3533195703915966 0.7500032156107580	-0.099969
C	0.6475973112971437 0.5169565496920675 0.7499892639258378	-0.108140
C	0.6523742553046789 0.1760898827080642 0.2500052644374537	-0.106641
C	0.8856149987885442 0.9483605254339642 0.2499998866237349	0.159824
C	0.8223150366773431 0.0130621545748310 0.2499968049847814	-0.099147
C	0.6175567681040365 0.2098716385386064 0.2500026497328614	0.171307
C	0.7876398588693216 0.0469511263599586 0.2499972194380055	0.126809
C	0.7176950381354585 0.1136205433373743 0.2499978726848566	0.137158
C	0.6825907657641007 0.1470488258168380 0.2499989142631300	-0.098311
C	0.8518917406229350 0.9833113141479760 0.2499987510774576	-0.101574
C	0.1523375049982339 0.6760080792167675 0.2500019517291691	-0.103909
C	0.3859913746698744 0.4487275777775327 0.2499978719200916	0.159775
C	0.3227198156029530 0.5134603958352544 0.2499947037158016	-0.103087
C	0.1176880980336324 0.7099843121165259 0.2500044430509923	0.169761
C	0.2878312705249197 0.5471134592469933 0.2499974674380281	0.127758
C	0.2174746829133025 0.6133240301882245 0.2499995871155107	0.137133
C	0.1823889683185374 0.6467826418299513 0.2500005690608287	-0.100016
C	0.3523646158636748 0.4837779385575364 0.2499945413701020	-0.102818
H	0.9502279191232782 0.1187266671894484 0.0027899242570227	0.110654
H	0.8912082212995143 0.0569063445664304 0.0131786298373408	0.121728
H	0.7841503225664010 0.9491541139399338 0.0121572863252637	0.106336
H	0.7220176557484991 0.8905453806989668 0.0118627142025783	0.114818
H	0.5523269916316579 0.7243333420150865 0.0027211932048793	0.109686
H	0.6123750890045443 0.7848672607642679 0.0128532142791456	0.126310
H	0.4507044080353000 0.6189177346049096 0.0013532654616169	0.107147
H	0.3912102416710236 0.5564736806463707 0.0127967553032700	0.121734
H	0.2840962637275673 0.4492349052577459 0.0120123254043688	0.106899
H	0.2219930051311934 0.3905284330950947 0.0117705443723557	0.114652
H	0.0520512202576741 0.2239014352212746 0.0012844768445242	0.105842
H	0.1128210146343264 0.2847738269662287 0.0125066596697665	0.125979
H	0.0510646423296168 0.8792895999659917 0.5013468200079599	0.107315
H	0.1093378795427435 0.9429893241383849 0.5127696830042590	0.121643
H	0.2159599470046170 0.0507278069071831 0.5120616336890481	0.106295
H	0.2780890273111651 0.1093857164469724 0.5118052180789420	0.114985
H	0.4496695094699300 0.2742745950595005 0.5012446620663606	0.105742
H	0.3878184483746440 0.2145263189251836 0.5125328481997872	0.126323
H	0.5513703685359872 0.3796214918603785 0.5027210848843460	0.110494
H	0.6088614576088857 0.4430510552623825 0.5131684160177270	0.121141
H	0.7159848767166380 0.5507293361132558 0.5121813431832972	0.105958
H	0.7781489989234280 0.6092672414583936 0.5118597897391312	0.115216
H	0.9492575080930106 0.7740183436576196 0.5026787549867459	0.109785
H	0.8877789703048516 0.7149915614654941 0.5128226288508924	0.126270
H	0.0508695389817492 0.1209335977950809 0.4987098817674565	0.106614
H	0.1091255743882161 0.0572016846830604 0.4871925945415544	0.122033
H	0.2156006982483250 0.9493836279261157 0.4879069344026317	0.106018
H	0.2778175392889503 0.8908893263220692 0.4881045018354776	0.115048
H	0.4474731543501099 0.7245455602186335 0.4973068966667107	0.110200
H	0.3874642039075702 0.7850837639599006 0.4871078456232190	0.126551
H	0.5491734339181803 0.6191507605467017 0.4986679801373772	0.106902
H	0.6086547277183285 0.5566854768083577 0.4872116064939799	0.121904
H	0.7157717334119711 0.4495545619989452 0.4879285510278480	0.106261
H	0.7777569843488814 0.3907805318785105 0.4880911080810378	0.114721
H	0.9490681824123791 0.2262032637275642 0.4973415050747802	0.109686
H	0.8875747096965506 0.2851828876627122 0.4871168346282823	0.125871
H	0.9500640391212488 0.8814913576501131 0.9971661752155524	0.111173
H	0.8910191094652566 0.9432431066877758 0.9868454463987565	0.121522
H	0.7837653990598912 0.0509279373847411 0.9878316223550248	0.106506
H	0.7217776998548600 0.1096961103158574 0.9881307089345882	0.115396
H	0.5501773965717669 0.2744907264492227 0.9987611002917819	0.105407
H	0.6120343222250816 0.2147564712550172 0.9874835483375137	0.126380
H	0.4484725656899750 0.3798388885887256 0.9972725978774467	0.110928
H	0.3909867628752660 0.4432401157947964 0.9867837649994869	0.121098
H	0.2838728850934084 0.5510367432271183 0.9877955735641070	0.106205
H	0.2216394182666738 0.6095096608382072 0.9882078133559055	0.115325
H	0.0518948519311011 0.7762983354530835 0.9987052679993347	0.105327
H	0.1126353622588923 0.7153918251252330 0.9875291280148003	0.126196
H	0.0510654269856107 0.8792916262366449 0.9986497023166679	0.107300
H	0.1093398792540720 0.9429918543213709 0.9872219845003408	0.121654
H	0.2159609552174384 0.0507285203840861 0.9879426755580080	0.106255
H	0.2780897809668454 0.1093866673205832 0.9881858670309503	0.115050
H	0.4496710383659512 0.2742769309603196 0.9987524326532305	0.105627
H	0.3878190946170355 0.2145287448911717 0.9874679676465337	0.126329
H	0.5513722982487165 0.3796223955193065 0.9972795392216556	0.110484
H	0.6088635075391549 0.4430525676655934 0.9868225725949654	0.121182
H	0.7159864512476193 0.5507305197857787 0.9878150102775496	0.105934
H	0.7781510865323159 0.6092678890663515 0.9881292704369862	0.115146
H	0.9492602883577210 0.7740204064446244 0.9973203440051617	0.109846
H	0.8877812306162025 0.7149940461707535 0.9871792115555652	0.126209
H	0.9502292892018686 0.1187291504855064 0.4972211585608968	0.110691
H	0.8912104280550404 0.0569093750218304 0.4868368340390542	0.121701
H	0.7841522708144646 0.9491557929692798 0.4878339787819574	0.106330
H	0.7220197200816459 0.8905471304381739 0.4881350027401794	0.114866
H	0.5523278462877310 0.7243362266890305 0.4972954429638405	0.109838
H	0.6123788426480528 0.7848697262924108 0.4871546847369321	0.126249
H	0.4507129870128851 0.6189161137641402 0.4986271027929413	0.107042
H	0.3912165517564539 0.5564761154547487 0.4871837358707519	0.121617
H	0.2840979233448039 0.4492362237638737 0.4879782395595610	0.106893
H	0.2219946816066881 0.3905297861960983 0.4882289223579941	0.114599
H	0.0520531478433692 0.2239005271990183 0.4987200492016645	0.105793
H	0.1128224084232361 0.2847737833177744 0.4874884675557670	0.125926
H	0.9500638231709690 0.8814920760873343 0.5028375886898577	0.111172
H	0.8910193225618842 0.9432437758724685 0.5131563943430641	0.121540
H	0.7837664577826001 0.0509273195382889 0.5121640634879827	0.106496
H	0.7217786517761440 0.1096955524806547 0.5118650943072177	0.115375
H	0.5501792436819243 0.2744925670329270 0.5012458223909467	0.105365
H	0.6120366687916566 0.2147594886861488 0.5125256185320833	0.126422
H	0.4484727605829695 0.3798407775785715 0.5027278980369627	0.110955
H	0.3909869215349658 0.4432420609262189 0.5132091829896799	0.121047
H	0.2838736776603921 0.5510352547979855 0.5121991622674901	0.106222
H	0.2216398879655253 0.6095075414201613 0.5117900701045014	0.115311
H	0.0518965562960782 0.7762979640528689 0.5013055349998421	0.105324
H	0.1126360038183437 0.7153910554625188 0.5124812465772461	0.126209
H	0.0508695518433014 0.1209311002899420 0.0013003545201493	0.106533
H	0.1091260085309683 0.0571986762856175 0.0128126824897054	0.122036
H	0.2156013591682301 0.9493825283720375 0.0120911965862495	0.106012
H	0.2778184249190544 0.8908882354029184 0.0118900654445102	0.115070
H	0.4474725638449817 0.7245435327986177 0.0027048479812951	0.110156
H	0.3874650340198049 0.7850827023439105 0.0129035943127471	0.126575
H	0.5491814189841836 0.6191534266130541 0.0013244029791761	0.106824
H	0.6086589826904693 0.5566838664945457 0.0127693537166488	0.121789
H	0.7157723879130340 0.4495547819460607 0.0120640174222157	0.106274
H	0.7777578163610349 0.3907807951827120 0.0119042673280864	0.114745
H	0.9490685126845272 0.2262044286404835 0.0026758962930880	0.109768
H	0.8875744557499721 0.2851844975053199 0.0128952140950420	0.125930
Cu	0.4998944356496287 0.6728737319691586 0.7499890369681019	0.711357
Cu	-0.0001227341837976 0.1728874421297268 0.7500096844809997	0.711149
Cu	0.4998760635426641 0.3273311590164263 0.2500026510555385	0.710453
Cu	-0.0001037447585622 0.8274159855417230 0.2499974857063799	0.710366
Al	0.4998541023304376 0.6721585305284782 0.2500085549734949	1.672333
Al	0.0007856577225940 0.1729976531066016 0.2500053029063821	1.670333
Al	0.4998035723773155 0.3260996832996219 0.7499923076008499	1.672526
Al	0.0007970992548544 0.8271553138484293 0.7499954378596509	1.667858
F	0.4996537435679431 0.6112469672104444 0.2501689622819350	-0.641611
F	0.9719961829281584 0.2261496839386703 0.2500015084052187	-0.631007
F	0.9716390790831141 0.1200305947913222 0.2499934934310977	-0.627758
F	0.4998591792517493 0.2652118946744271 0.7499797391468287	-0.645154
F	0.9719899550109061 0.7740116293478437 0.7499868984294056	-0.630027
F	0.9716360695498243 0.8801335402543020 0.7499921329020528	-0.627376
F	0.5513500905856342 0.7018698330772980 0.2499839934269600	-0.630129
F	0.0597129880530717 0.1725836927756290 0.2500085047460287	-0.643742
F	0.4483419119692688 0.3558603230948271 0.7499869761701391	-0.630713
F	0.4484813260536340 0.7021316171636428 0.2499962941465590	-0.630891
F	0.5513311025974913 0.3557284501800704 0.7499950142421384	-0.629968
F	0.0597126806821923 0.8274282840649105 0.7499865334156403	-0.642954
F	0.4998469756857410 0.6727061304036377 0.4721558586517931	-0.621275
F	0.0002865287220762 0.1730251519674888 0.4721354996640688	-0.620790
F	0.4997264868961876 0.3267839479139052 0.9721500258130155	-0.620798
F	0.0002938510499374 0.8273176256527112 0.9724302778773151	-0.620107
F	0.4998252613817354 0.6726728810581888 0.0278792604900966	-0.621365
F	0.0002881272996221 0.1730279158219045 0.0278585247483495	-0.620797
F	0.4997251795022439 0.3267829135700345 0.5278275242016821	-0.620797
F	0.0002911287897748 0.8273199569941773 0.5275736540529428	-0.620135
N	0.5493292622743087 0.7227463319697131 0.7500050329742555	-0.221355
N	0.9516452184238153 0.1217855185945881 0.7500068600124603	-0.218032
N	0.0494127901294093 0.2227349389048935 0.7500025540302304	-0.218551
N	0.4516798586485743 0.6216353528187942 0.7499929159737951	-0.216516
N	0.4509461160427350 0.2768646110613480 0.2499990799360305	-0.216550
N	0.0487141872251609 0.8779891093628327 0.2499980763542318	-0.216030
N	0.9509489541418152 0.7770177400740135 0.2499987658633045	-0.219799
N	0.5486175688273348 0.3779570618305235 0.2499986395924046	-0.220092
N	0.4504529578227257 0.7228733310361856 0.7500036621684235	-0.219610
N	0.0485608830589213 0.1222743386215497 0.7500048428571563	-0.217947
N	0.9508107020549964 0.2232220637518839 0.7500089384733772	-0.221856
N	0.5481387151700396 0.6218098814874994 0.7499972701820873	-0.216181
N	0.5488351010943971 0.2770259968200982 0.2500043391163544	-0.217805
N	0.9515577580949164 0.8784439434635783 0.2500022698124078	-0.218475
N	0.0492867770472437 0.7775180451643201 0.2500055023246439	-0.216831
N	0.4511952935352678 0.3780939545355465 0.2499998654191438	-0.218337
	  	
