#======================================================================

# CRYSTAL DATA

#----------------------------------------------------------------------

data_VESTA_phase_1


_pd_phase_name                         ALFFIVE_6_Co_i
_cell_length_a                         17.41782
_cell_length_b                         17.40792
_cell_length_c                         15.59853
_cell_angle_alpha                      89.98273
_cell_angle_beta                       89.99044
_cell_angle_gamma                      89.98454
_symmetry_space_group_name_H-M         P 1
_symmetry_Int_Tables_number            1

loop_
_symmetry_equiv_pos_as_xyz
   x, y, z

loop_
   _atom_site_label
   _atom_site_fract_x
   _atom_site_fract_y
   _atom_site_fract_z
   _atom_site_charge
N	0.2440823502388528 0.1383104122414505 0.1277367782709647	-0.189497
N	0.2563637995464851 0.3617161473223751 0.1284649834470107	-0.188876
N	0.3617287339332799 0.2436487652757816 0.1284346560572390	-0.189387
N	0.1382020341882769 0.2558455803061793 0.1273424419057230	-0.189208
N	0.7563966187759613 0.6384224048474121 0.3716572852527195	-0.189133
N	0.7441266417580235 0.8616115951724026 0.3725290098997879	-0.190436
N	0.6383037440939082 0.7436101182427318 0.3716351778792549	-0.189031
N	0.8616745138134457 0.7558816067934503 0.3722206941118356	-0.190190
N	0.7563645029353788 0.8616025196285898 0.8716210460425146	-0.188672
N	0.7441049451486336 0.6384007832560958 0.8721909466565685	-0.190376
N	0.6383033731561737 0.7558413038057366 0.8725895992178710	-0.190708
N	0.8616544321450400 0.7436464682513525 0.8716215822512862	-0.189399
N	0.2441214230056127 0.3624767607773033 0.6274979376804226	-0.191422
N	0.2564240351383819 0.1375662225658901 0.6283336567869130	-0.193269
N	0.3623590401542713 0.2559047872429480 0.6278059472009564	-0.191993
N	0.1376518591155710 0.2435968364188469 0.6283212297064806	-0.193586
C	0.2010561586576811 0.1013018609739432 0.1866240474784377	0.098107
C	0.1923951325283031 0.0220891010943457 0.1858364175204943	-0.179397
C	0.2319587448013417 0.9782061754519974 0.1247604737080945	0.108653
C	0.2782326576108577 0.0174239708529873 0.0655627546799148	-0.180065
C	0.2817675558618303 0.0969995670094882 0.0678279929613896	0.096079
C	0.2258778003869823 0.8938635546856668 0.1235634154946533	0.062357
C	0.2914971090633249 0.8489875230961499 0.1207077219038765	-0.173654
C	0.2870778668091705 0.7679461232126583 0.1220348555691934	0.084376
C	0.1462820799918167 0.7790608236998970 0.1245414761307689	-0.122991
C	0.1526295073786863 0.8577958010943398 0.1266434332755483	-0.137879
C	0.2990959070588153 0.3985526452994931 0.1879214157252131	0.087200
C	0.3076688740721850 0.4778308883270243 0.1870521260820882	-0.182363
C	0.2682724895613596 0.5218506389434134 0.1258636251198692	0.103077
C	0.2225412489884666 0.4826810485497364 0.0662522184509218	-0.178403
C	0.2191221679431933 0.4030247072722439 0.0681348071459916	0.087911
C	0.2741639569265957 0.6062197783466586 0.1245344835546677	0.062613
C	0.2085082694210932 0.6510576336388443 0.1212847013046918	-0.173309
C	0.2128993039706009 0.7321130806699535 0.1221251112965526	0.084762
C	0.3536881332123351 0.7210179778927128 0.1246930909808539	-0.123597
C	0.3474016832398019 0.6423021877990046 0.1273063165668052	-0.136249
C	0.3985945846555226 0.2004600675852565 0.1873349146559925	0.092065
C	0.4777837103418477 0.1919906047036251 0.1867955699662515	-0.181036
C	0.5218189052074955 0.2318311553285443 0.1259294300813445	0.106978
C	0.4826454391386276 0.2777993984266104 0.0664962999724612	-0.176564
C	0.4030904197516882 0.2812004068939599 0.0685713912896218	0.099345
C	0.6061741220090295 0.2259334379269923 0.1245756574545201	0.061696
C	0.6510587461332933 0.2915623128747615 0.1213074465613503	-0.172668
C	0.7320638485561699 0.2870809571609106 0.1220738599031818	0.085357
C	0.7208686954117632 0.1461703085128574 0.1246331514537699	-0.124033
C	0.6422255339759263 0.1526362548841751 0.1272964535335516	-0.136415
C	0.1011928434104822 0.2985046622135857 0.1866057697222809	0.089401
C	0.0219660695532200 0.3071038287474248 0.1857361990364515	-0.179919
C	0.9780889418713774 0.2677939216358667 0.1245068154538873	0.106533
C	0.0174318624324924 0.2219400413113439 0.0649618674950672	-0.181648
C	0.0970306414169342 0.2185130975474878 0.0669840655851634	0.088447
C	0.8937383803625671 0.2739017447224792 0.1233723538866670	0.061631
C	0.8488106658028747 0.2083210851652932 0.1205179860209584	-0.173550
C	0.7678218141235381 0.2127831152548016 0.1219244765599637	0.084873
C	0.7790481800439761 0.3537023970333990 0.1245327301847862	-0.123568
C	0.8577187934851612 0.3472193258409025 0.1265457058551412	-0.137348
C	0.7995251572494488 0.6014916300862886 0.3126872933205945	0.092045
C	0.8079968387446068 0.5222466735002451 0.3133121669819332	-0.181138
C	0.7682087203601731 0.4782312323983250 0.3742150535643660	0.107711
C	0.7222011654844472 0.5173939743379513 0.4335976480939019	-0.176038
C	0.7188565378295082 0.5970168793873049 0.4315692208058682	0.098743
C	0.7741352719066371 0.3938559982356397 0.3755028382317711	0.061444
C	0.7085062014552654 0.3490015698162536 0.3786976798721248	-0.173039
C	0.7129716006889468 0.2679443389743671 0.3778606453073506	0.084963
C	0.8537346434185059 0.2790496640523646 0.3753150504547461	-0.123116
C	0.8474047542666794 0.3577679289881136 0.3727164800961852	-0.136110
C	0.7015086181384802 0.8986799853471240 0.3131897406175142	0.091039
C	0.6928838052798775 0.9779557047845396 0.3142075274853878	-0.179321
C	0.7321143519774266 0.0217853332308064 0.3755302555494248	0.106593
C	0.7780244541032438 0.9824348111731224 0.4349839989635721	-0.182493
C	0.7814492584185702 0.9027856891821084 0.4329548175546754	0.089714
C	0.7259900806005846 0.1061724054506566 0.3766633942351381	0.062231
C	0.7915841963849054 0.1510666303069466 0.3794475548529263	-0.173487
C	0.7871546907544447 0.2321159017940300 0.3779998338477194	0.084880
C	0.6463805400761863 0.2209948116562021 0.3754163601103978	-0.123016
C	0.6527164668960086 0.1422502684021016 0.3734410614500033	-0.137372
C	0.6014494998400155 0.7009962356701682 0.3121242495947296	0.088040
C	0.5222165393324201 0.6924201255792238 0.3129066814676125	-0.181936
C	0.4781633483064274 0.7317893120494057 0.3740925944861481	0.103587
C	0.5173854706965278 0.7773925272213960 0.4338101688964691	-0.177859
C	0.5969998995272870 0.7807505623433327 0.4319913533922168	0.087679
C	0.3937636748740256 0.7259300630738035 0.3754447441104422	0.062864
C	0.3488729751811842 0.7915835909401726 0.3787545143733288	-0.173238
C	0.2678564831490621 0.7871548075975355 0.3779615727448284	0.084990
C	0.2790539620797037 0.6462478214290618 0.3753648722150745	-0.124358
C	0.3577038064899556 0.6526497969483342 0.3726940840899161	-0.136321
C	0.8986470200998306 0.7988175008092703 0.3132726745569359	0.097478
C	0.9778149921442233 0.8074894014167963 0.3140193823268497	-0.178350
C	0.0217702950583873 0.7679499833294083 0.3750761394730991	0.108979
C	0.9825125167748695 0.7218019167580618 0.4343961476883678	-0.179190
C	0.9029855764834402 0.7182970841713882 0.4321818158688225	0.095608
C	0.1061468285441018 0.7740298015103840 0.3763533905334331	0.061404
C	0.1510898032134379 0.7084207565776841 0.3793159430588746	-0.173192
C	0.2320902283228426 0.7128804976992530 0.3780589879170905	0.085304
C	0.2208664622195947 0.8537914651819958 0.3755077640437370	-0.123873
C	0.1421951851623133 0.8473194938707103 0.3733325457036856	-0.137073
C	0.7990255673109209 0.8984888847003001 0.8120849186105056	0.087568
C	0.8076060969304691 0.9777695102300558 0.8129423143025262	-0.182544
C	0.7682442689562943 0.0217863885969525 0.8741444320936692	0.103940
C	0.7225417909128922 0.9825789504518577 0.9338011142840816	-0.177402
C	0.7191683645636103 0.9029100795147484 0.9319893173475553	0.087574
C	0.7741464989357185 0.1061841324502586 0.8754500168378652	0.062399
C	0.7084966700819771 0.1510466129934305 0.8787025794501120	-0.172884
C	0.7128974096752523 0.2321101449526768 0.8778493202898520	0.085113
C	0.8536765089810302 0.2209989407637910 0.8752896881923837	-0.123075
C	0.8473936714957538 0.1422802180036210 0.8726727564367251	-0.136712
C	0.7011404433449608 0.6013904536433579 0.8132711018819510	0.097912
C	0.6924599615752965 0.5221707830038732 0.8141144644615935	-0.178435
C	0.7319788499733281 0.4782497268483400 0.8752070043751174	0.108561
C	0.7782236279033331 0.5174594234213531 0.9344007434157285	-0.179299
C	0.7817399347915908 0.5970451095999859 0.9321406131015598	0.095224
C	0.7258851626795682 0.3938798481830870 0.8764147561386776	0.062169
C	0.7915027685508672 0.3489815013269816 0.8792789849324788	-0.173474
C	0.7870732510063416 0.2679348663592208 0.8779397052329451	0.084239
C	0.6462866933420731 0.2790653865831036 0.8754453201859561	-0.122762
C	0.6526322789264967 0.3578059033786768 0.8733384945006805	-0.137884
C	0.6012968527525087 0.7984450145633915 0.8132458209312303	0.090605
C	0.5220715127772370 0.8070763278180596 0.8141713227762316	-0.179560
C	0.4781630855159415 0.7678077105691176 0.8754569588232454	0.106715
C	0.5175159925223042 0.7219599195544256 0.9350140166829359	-0.182301
C	0.5971149682659478 0.7185442809816196 0.9330019011954606	0.089887
C	0.3937772174552402 0.7739192404607588 0.8766115915598438	0.061576
C	0.3488399538710773 0.7083319284845120 0.8794745945595585	-0.173678
C	0.2678409322180191 0.7127922595268122 0.8780704562052698	0.085319
C	0.2790547731657110 0.8536901902717207 0.8754597615623231	-0.123443
C	0.3577317438093630 0.8472322748775070 0.8734343409405253	-0.136932
C	0.8985417337966407 0.7005434555683342 0.8126671207049982	0.091218
C	0.9777265980025713 0.6920468344200325 0.8132363865092855	-0.180777
C	0.0217752364856003 0.7318213212912390 0.8741089428767648	0.107018
C	0.9825718610047305 0.7777521328575856 0.9335492145850856	-0.175064
C	0.9030081441904740 0.7811258504924971 0.9315201994201395	0.098151
C	0.1061582345283764 0.7259288519036443 0.8754327876517483	0.061619
C	0.1510504921865969 0.7915598532985666 0.8786990630617844	-0.172136
C	0.2320657042848634 0.7870743353710957 0.8779228604721282	0.085076
C	0.2208825322037606 0.6461869214987292 0.8753653864327817	-0.123636
C	0.1422338800449015 0.6526361966474901 0.8727000117131377	-0.136547
C	0.2015978264000794 0.3994955213803634 0.6869968245604415	0.091758
C	0.1930782284513329 0.4787403250217385 0.6859927513252084	-0.179954
C	0.2323873230810629 0.5223651608784874 0.6246306673773562	0.106959
C	0.2781349284509664 0.4832190345025202 0.5649685294766569	-0.182136
C	0.2813868368962212 0.4035971549125779 0.5669092120487780	0.091362
C	0.2262376688787082 0.6065634421315514 0.6234425042507231	0.062542
C	0.2918554934275975 0.6513204319133225 0.6205631409693799	-0.174107
C	0.2872605362429261 0.7322585655186983 0.6220227010308316	0.085154
C	0.1462358839108792 0.7209062642878838 0.6246061264317301	-0.122739
C	0.1528455017325679 0.6422341538737910 0.6266548325437318	-0.136821
C	0.2994507576008138 0.1006443464716768 0.6874268466856508	0.094992
C	0.3078257744585757 0.0214347385307849 0.6868185830457502	-0.182280
C	0.2679740732317943 0.9776838307766146 0.6258924786882840	0.108888
C	0.2221546615654162 0.0167063152054290 0.5663161035790305	-0.176595
C	0.2189502145350335 0.0962942886779535 0.5682459572440939	0.101442
C	0.2738862924237739 0.8934861762552864 0.6245914588389982	0.061861
C	0.2082390824035468 0.8487690913506095 0.6213125856030896	-0.173357
C	0.2128690091264879 0.7678153985102844 0.6221575561948522	0.085186
C	0.3538764726777121 0.7791537624174080 0.6246995625606151	-0.123023
C	0.3472686618104397 0.8577922340890602 0.6273706547495316	-0.135041
C	0.3992986126912081 0.2987502604614888 0.6868827418259087	0.099454
C	0.4784375724902001 0.3073973625040296 0.6860905676843013	-0.179692
C	0.5222202360750227 0.2678729283076617 0.6249683718842984	0.110251
C	0.4831284547385892 0.2218221213433449 0.5655567414828752	-0.178404
C	0.4036222229897161 0.2183884495457175 0.5676938604244832	0.096216
C	0.6064391669695903 0.2739654556534833 0.6236713648311669	0.061401
C	0.6512499390011882 0.2083223007107042 0.6206845370373665	-0.172663
C	0.7321731616362440 0.2128289150543779 0.6219612335447875	0.085282
C	0.7208870352110124 0.3539017710820951 0.6245103817931160	-0.123062
C	0.6422571451958977 0.3473158249667142 0.6267065569299831	-0.136750
C	0.1008192924254853 0.2010536345895633 0.6880064035706517	0.091267
C	0.0216177988255579 0.1924768849226598 0.6872026199395942	-0.182772
C	0.9777470236701394 0.2318524089985765 0.6259537150789228	0.106672
C	0.0168263696146308 0.2773641029338875 0.5660724770489906	-0.179940
C	0.0964137372735786 0.2806577269732954 0.5677583239821462	0.091888
C	0.8935012274525836 0.2259934509956795 0.6246121463612300	0.062570
C	0.8487423544735919 0.2916826040263236 0.6212676506454045	-0.173745
C	0.7677984701746533 0.2872083470926139 0.6220685673580427	0.085705
C	0.7790557352574923 0.1461367664218511 0.6246624239761573	-0.124035
C	0.8576630235749714 0.1526515925497092 0.6273760916808272	-0.135768
H	0.1751705165318105 0.1370806452552874 0.2359643430655818	0.106804
H	0.1570351219695859 0.9944534952854740 0.2345515040430459	0.114834
H	0.3095790846057470 0.9860270297966032 0.0162684989103257	0.114354
H	0.3138751949620702 0.1299657308521204 0.0204861353588254	0.106120
H	0.3479226523179952 0.8762701599498925 0.1200099564519085	0.106183
H	0.0899763123152212 0.7516090227492996 0.1252248116854942	0.109713
H	0.1012227642068805 0.8935989405772506 0.1287038847408921	0.099084
H	0.3248798908871766 0.3629129586424949 0.2378334274283571	0.112274
H	0.3430423565738270 0.5053834544336184 0.2358078671706215	0.114445
H	0.1913346172575383 0.5140365563657020 0.0168110225683222	0.114869
H	0.1886301364930484 0.3706220137745898 0.0189365746079224	0.113076
H	0.1520742321991385 0.6237715357256480 0.1205053151942714	0.106888
H	0.4099752702782443 0.7484861894585819 0.1250553241288413	0.106140
H	0.3987892763898891 0.6064659199821624 0.1293927568265854	0.099906
H	0.3623422092953812 0.1737660826440634 0.2358784066496169	0.106169
H	0.5052099507112541 0.1562805157449291 0.2353334761258022	0.113558
H	0.5138515825014449 0.3089510408273564 0.0169495242736296	0.115834
H	0.3702284478543826 0.3123792081181243 0.0205542115513990	0.107356
H	0.6238430603208845 0.3480485187969258 0.1206047212924728	0.107165
H	0.7479440930699178 0.0896436837588527 0.1250455065808898	0.108128
H	0.6063637758541380 0.1012945536784944 0.1293115327146721	0.100545
H	0.1365889544145025 0.3236173250477709 0.2369221265225289	0.112694
H	0.9945968931654888 0.3425352758235214 0.2345465942000179	0.115445
H	0.9862512644639154 0.1907301066858706 0.0154172360425603	0.113880
H	0.1298892241151841 0.1872164843754028 0.0187061209275759	0.109897
H	0.8761082297674878 0.1518773045042742 0.1197776879432547	0.105298
H	0.7518940426586435 0.4101930334744000 0.1254351135003072	0.107984
H	0.8936577696813710 0.3985187667180097 0.1287041470457212	0.098301
H	0.8262786035573252 0.6375345396810994 0.2639444310699589	0.106462
H	0.8435109473529002 0.4945476790313526 0.2647754557639508	0.114073
H	0.6909470140887921 0.4859821591415606 0.4829503051367500	0.115761
H	0.6877021507073765 0.6297185576636128 0.4797678287482917	0.107327
H	0.6520280099920011 0.3762272593057391 0.3793837617462563	0.107570
H	0.9100517410310929 0.2516170636476834 0.3749445318761604	0.107612
H	0.8988041851012222 0.3935582721461507 0.3706665913959579	0.100791
H	0.6763594878906334 0.8634585661717616 0.2627013163307931	0.111915
H	0.6576112827399494 0.0056564619630485 0.2654683468395717	0.115540
H	0.8092841560213946 0.0137600312263475 0.4843784250863390	0.114553
H	0.8127337687401769 0.8700424608615471 0.4813821616306760	0.109824
H	0.8480188036479773 0.1237652450319302 0.3802016908260868	0.105278
H	0.5901033773564643 0.2485185411853347 0.3745745286212038	0.108118
H	0.6013426052326718 0.1064151085914100 0.3712562570938976	0.098527
H	0.6371894592637580 0.6753338173203255 0.2622770225287302	0.111205
H	0.4948684326099425 0.6568951940648768 0.2641722989899296	0.115282
H	0.4861641731444484 0.8085226647536743 0.4833651288799379	0.115188
H	0.6295408185467278 0.8112149805782675 0.4810729827914540	0.112762
H	0.3761251975729588 0.8480497143785951 0.3795086851093025	0.107053
H	0.2519512737264123 0.5897558056686603 0.3748694202570779	0.107282
H	0.3936181799103172 0.6013175306843366 0.3705568328071653	0.099631
H	0.8627171273741887 0.8246231270643781 0.2640237316845844	0.106777
H	0.0052270187307832 0.8430150662436816 0.2653460105444438	0.115398
H	0.0137973672784054 0.6905950928237495 0.4838530080699387	0.114187
H	0.8699010756263686 0.6863768978776893 0.4795529614296337	0.106059
H	0.1238549894100680 0.6519565983396878 0.3799857315591835	0.106100
H	0.2479575912331149 0.9103050398569836 0.3747028774772475	0.110696
H	0.1063169927640754 0.8986703655956779 0.3712147006641127	0.098951
H	0.8247914078514250 0.8629001216007831 0.7621305606693524	0.111835
H	0.8429908564920022 0.0053728699678601 0.7642138277212778	0.114964
H	0.6913694802878088 0.0139680966402955 0.9832257069282487	0.115051
H	0.6886955072829452 0.8704921242295447 0.9812207623539521	0.113003
H	0.6520490352192946 0.1237820833307701 0.8795091355164284	0.106860
H	0.9099599483899831 0.2484602550527393 0.8749792245909573	0.106508
H	0.8987847820579112 0.1064385940035286 0.8706226441850301	0.100018
H	0.6752487486385732 0.6371441048735358 0.7638797053321237	0.106868
H	0.6570834652398196 0.4945025924611544 0.7654696233188903	0.114741
H	0.8095219654490056 0.4860245820777840 0.9837101454070138	0.114826
H	0.8137698640167783 0.6299733642101615 0.9795568968105001	0.106664
H	0.8479392687400399 0.3762500628984616 0.8800079954148711	0.106328
H	0.5899840005980720 0.2516219803008798 0.8748144027415290	0.109889
H	0.6012249572106187 0.3936170280256088 0.8713152400042748	0.099273
H	0.6367011711678559 0.8235209499416768 0.7628779927228491	0.111999
H	0.4946633097589627 0.8425055489493058 0.7653895154666633	0.115600
H	0.4863192859672122 0.6907408384723209 0.9845552563615236	0.114882
H	0.6299672243219687 0.6872793823963119 0.9813131156386889	0.109762
H	0.3761200428102244 0.6518740489053795 0.8802354791095528	0.105412
H	0.2518977501027522 0.9101767185342285 0.8745965454403877	0.108293
H	0.3936479653849044 0.8985534469927392 0.8713065994101021	0.098270
H	0.8623319493399255 0.6739484034002762 0.7640440316126159	0.106754
H	0.0051780585531875 0.6563742491304310 0.7646986631130716	0.113846
H	0.0137936139768245 0.8089185969896167 0.9830391483376426	0.115949
H	0.8701408464876019 0.8122723056097977 0.9795642839000942	0.107753
H	0.1238495826179128 0.8480561123719266 0.8794150207508358	0.107249
H	0.2479558348511065 0.5896642941046899 0.8749851254125756	0.108309
H	0.1063854940591617 0.6012819920816040 0.8707121604233669	0.100694
H	0.1763951271418884 0.3641585624663134 0.7373793729864994	0.112874
H	0.1578032941916487 0.5066970953121276 0.7344910562297954	0.115836
H	0.3090596298261220 0.5148286621675161 0.5155366570315207	0.115265
H	0.3123776948096502 0.3707426128604174 0.5183830697202548	0.109847
H	0.3482944176372885 0.6240363365988658 0.6197989537990356	0.105875
H	0.0898081603446236 0.7482200098414521 0.6253757550070191	0.108589
H	0.1017901520234599 0.6059818800781646 0.6288028117539166	0.098460
H	0.3261529051950199 0.1367301196391457 0.7361057299205981	0.106658
H	0.3433079680888416 0.9934419926830171 0.7351321144887594	0.114325
H	0.1912325027047059 0.9850585693979698 0.5169753606820350	0.116676
H	0.1880906422826784 0.1291774129149455 0.5199582091056235	0.107889
H	0.1517543142538177 0.8759595655919346 0.6206062400171066	0.107745
H	0.4103429171825959 0.7519322505174282 0.6249954571025292	0.108427
H	0.3983629346134109 0.8939736457510106 0.6293783432194019	0.100351
H	0.3633590462207354 0.3245069791840710 0.7361562892674747	0.107795
H	0.5060949615111333 0.3428464312176090 0.7346091117819860	0.115454
H	0.5146367041433363 0.1908268774600337 0.5161519038158183	0.114356
H	0.3705158658377287 0.1866708112253762 0.5201963426118126	0.106516
H	0.6240219463525383 0.1518670834654913 0.6199975997165657	0.106129
H	0.7479593708033135 0.4104465311296038 0.6252597590847345	0.110429
H	0.6061637435353051 0.3985062745075340 0.6287987079289554	0.098615
H	0.1365537292564833 0.1754426881609745 0.7378984781619405	0.110822
H	0.9940239856777100 0.1570383430953528 0.7358374773449080	0.115601
H	0.9853563856248774 0.3082924047570906 0.5165884432660218	0.116071
H	0.1289888574605167 0.3109701096182206 0.5185308525336674	0.112985
H	0.8759846634404597 0.3481433285319127 0.6204805007713153	0.107243
H	0.7519828370394290 0.0896041415646344 0.6250901908572075	0.107364
H	0.8937934484681261 0.1014840546511649 0.6294800987352480	0.099711
F	0.2569998048201153 0.1511144311653551 0.3752097665660526	-0.664391
F	0.1610765809031727 0.2994923435463256 0.3769117607525787	-0.653565
F	0.3335024150137010 0.3088323320661387 0.3761992160564652	-0.658512
F	0.6911376545125075 0.6666721681236991 0.1217753408385697	-0.657380
F	0.7009004827755556 0.8391820761713572 0.1212889544342548	-0.651933
F	0.8486469045471371 0.7433901589980759 0.1226905483236688	-0.663027
F	0.6609215480180740 0.7992523630746214 0.6212852685455080	-0.652080
F	0.7569473983556200 0.6514151421350178 0.6227454496551877	-0.662993
F	0.8333259864216588 0.8090157197662692 0.6216545296363922	-0.657131
F	0.1914562271884016 0.1664744051812504 0.8804460920421323	-0.659042
F	0.3486424047540054 0.2433187158103381 0.8792006015862274	-0.664636
F	0.2001283690336394 0.3392190517519679 0.8805483666202341	-0.653490
F	0.2493739842721036 0.2510750317332297 0.2615145578298408	-0.593299
F	0.2497434675357628 0.2497981590726555 0.4910197332501440	-0.598958
F	0.7488723192665775 0.7505856054319202 0.2373735935387935	-0.595050
F	0.7500525639119846 0.7501349510138340 0.0064315043682847	-0.596036
F	0.7493347423655325 0.7513647914063551 0.7372932442039914	-0.595219
F	0.7497923419418794 0.7502303402949566 0.5064066733192187	-0.595711
F	0.2486969612363140 0.2510129550695829 0.7652433608848979	-0.598561
F	0.2500303209522696 0.2505271752171554 0.9946997045437196	-0.594078
Co	0.2500195911292232 0.2499950117810448 0.1282728941816203	0.603937
Co	0.7500165073087656 0.7499777384727597 0.3717422223113031	0.602802
Co	0.7500350087132295 0.7499941416959383 0.8717413749449502	0.603137
Co	0.2500238702428301 0.2499664880167115 0.6283206846681472	0.596371
Al	0.2502737004109796 0.2519841211437616 0.3763894301903334	1.686967
Al	0.7480041985407384 0.7498441250709165 0.1219067244489872	1.685448
Al	0.7502071489770817 0.7521312518237258 0.6218708580134811	1.684768
Al	0.2478633008798520 0.2500356786624767 0.8798991321501056	1.687581
	  	
