#======================================================================

# CRYSTAL DATA

#----------------------------------------------------------------------

data_VESTA_phase_1


_pd_phase_name                         ALFFIVE_6_Fe_i
_cell_length_a                         17.92736
_cell_length_b                         17.92735
_cell_length_c                         15.18137
_cell_angle_alpha                      89.99988
_cell_angle_beta                       90.00005
_cell_angle_gamma                      89.97574
_symmetry_space_group_name_H-M         P 1
_symmetry_Int_Tables_number            1

loop_
_symmetry_equiv_pos_as_xyz
   x, y, z

loop_
   _atom_site_label
   _atom_site_fract_x
   _atom_site_fract_y
   _atom_site_fract_z
   _atom_site_charge
N	0.2438571848563661 0.1278682669142302 0.1280733652611437	-0.217331
N	0.2562036306426861 0.3722136928664652 0.1288229433071165	-0.221048
N	0.3721513327331402 0.2438341616958449 0.1286508964054531	-0.211061
N	0.1278248539235036 0.2561504013630141 0.1276726958121327	-0.211150
N	0.7561653884587155 0.6278486976547070 0.3713497315534410	-0.203332
N	0.7438491614537629 0.8721761547965562 0.3723273808755665	-0.203599
N	0.6277856229094722 0.7437950500626901 0.3711769778964741	-0.205235
N	0.8721325777164504 0.7561420806404662 0.3719264717696313	-0.201705
N	0.7562044113415118 0.8722134613513727 0.8711768972058636	-0.205144
N	0.7438567202083839 0.6278672714887809 0.8719265558318322	-0.201563
N	0.6278240631870097 0.7561508705059355 0.8723270003964566	-0.203723
N	0.8721510763093400 0.7438342283271978 0.8713496623424625	-0.203583
N	0.2438495763161490 0.3721747401169294 0.6276724066998582	-0.203523
N	0.2561659661692692 0.1278484508777559 0.6286513946069706	-0.203355
N	0.3721319892575859 0.2561425086489889 0.6280726313782263	-0.201575
N	0.1277867400335655 0.2437959559546725 0.6288237997611359	-0.205121
C	0.2001275050517835 0.0918169768765256 0.1860743092077757	0.108519
C	0.1918906776678586 0.0147667920177245 0.1856734155250248	-0.186514
C	0.2323620211635350 0.9719396541360079 0.1248341676797604	0.110455
C	0.2788843408140407 0.0100650217774903 0.0657035977449150	-0.185947
C	0.2821595111573668 0.0874845716113833 0.0686780749044998	0.103328
C	0.2267268201287398 0.8899203510764985 0.1236876809976862	0.061762
C	0.2904154002270378 0.8462409481940605 0.1209820506962153	-0.172754
C	0.2859963467649387 0.7674957029004078 0.1220864165677111	0.086078
C	0.1494443381859979 0.7783513645817343 0.1246041535356528	-0.123554
C	0.1556486647062185 0.8548044010194193 0.1265805093778838	-0.135992
C	0.2999177189517119 0.4081535570922958 0.1871234196215694	0.097560
C	0.3081577962506268 0.4852664793820325 0.1865037458527953	-0.187288
C	0.2676298709801275 0.5280640018976368 0.1255929509158925	0.106097
C	0.2212004483849375 0.4899351162798348 0.0663940282655577	-0.187120
C	0.2180557069139641 0.4124969638849291 0.0690393038612243	0.100720
C	0.2733270976903783 0.6100880358514497 0.1240541037373566	0.062494
C	0.2096344521618229 0.6537639957133662 0.1211458531652999	-0.172888
C	0.2140063599001047 0.7325230776058539 0.1220955857782920	0.086379
C	0.3505572218384339 0.7216844762723659 0.1246391630984049	-0.123519
C	0.3443909358339884 0.6452236706832903 0.1267561730329754	-0.136201
C	0.4081668308966608 0.1999501152929559 0.1865893488802026	0.101135
C	0.4852636289675655 0.1918354558898850 0.1863617043185292	-0.187017
C	0.5280754683014979 0.2324356529420139 0.1255846873348473	0.109616
C	0.4899278428310755 0.2788784790685829 0.0664196068934511	-0.183779
C	0.4125307162490607 0.2820964662723560 0.0692404164611449	0.110404
C	0.6100909843426329 0.2267151230513027 0.1240748030571425	0.061690
C	0.6537210445382722 0.2903997077944650 0.1211625921477097	-0.172623
C	0.7324776592558864 0.2859744808633436 0.1221079396181500	0.086505
C	0.7216865219385439 0.1494309347765916 0.1246527757547415	-0.122935
C	0.6452278563559286 0.1556258986554132 0.1267652359437343	-0.135762
C	0.0918181248906298 0.2997734408324823 0.1860029504972323	0.100976
C	0.0147412737243957 0.3080537760994800 0.1854419817055873	-0.186232
C	0.9719420459219099 0.2675863427496105 0.1246000539089843	0.107195
C	0.0100802081242871 0.2210868161854323 0.0653695242597145	-0.186611
C	0.0875542005308478 0.2178809885806882 0.0680232395332179	0.097701
C	0.8899077058005489 0.2732007381679206 0.1235982775185879	0.062161
C	0.8462347593557198 0.2095410054355574 0.1209456540330327	-0.173232
C	0.7674792346674235 0.2139704879549570 0.1220985588379937	0.086213
C	0.7782757675934102 0.3505179903230221 0.1246049847375707	-0.123277
C	0.8547406566510153 0.3442839472351900 0.1265446664715458	-0.136108
C	0.8000495529476001 0.5918334185039431 0.3134106206163458	0.099720
C	0.8081639741289665 0.5147363542889433 0.3136388916282588	-0.187537
C	0.7675641064238107 0.4719249748467526 0.3744163658527950	0.109228
C	0.7211206715408572 0.5100716999022881 0.4335811408628959	-0.184387
C	0.7179026199277500 0.5874691290843892 0.4307601124372586	0.108980
C	0.7732851282102983 0.3899098402569054 0.3759256571323863	0.061996
C	0.7096001336345068 0.3462789969837394 0.3788373475615557	-0.172780
C	0.7140252249250036 0.2675223728887681 0.3778918604129621	0.086526
C	0.8505695312613816 0.2783136225777109 0.3753470264246787	-0.123037
C	0.8443739728420072 0.3547724774092260 0.3732353128493217	-0.135833
C	0.7002259065800064 0.9081818781060400 0.3139959757587982	0.099615
C	0.6919458677244492 0.9852588695243991 0.3145580904558425	-0.186865
C	0.7324134371947983 0.0280574327393015 0.3753994999328581	0.106907
C	0.7789138421107071 0.9899195887828712 0.4346302873775333	-0.187138
C	0.7821195152705090 0.9124458363854533 0.4319765074108396	0.096338
C	0.7267990888496617 0.1100909327360212 0.3764022077918318	0.062358
C	0.7904585434149954 0.1537650430235823 0.3790548959871123	-0.173279
C	0.7860290708604314 0.2325209954684097 0.3779013700156927	0.085925
C	0.6494812237268519 0.2217245510770081 0.3753945625810055	-0.123438
C	0.6557162046425928 0.1452593484382848 0.3734551559560086	-0.136196
C	0.5918465324874136 0.7000810449598374 0.3128750906308199	0.096398
C	0.5147332257565691 0.6918417983693024 0.3134953090867813	-0.187111
C	0.4719366551113399 0.7323701063483768 0.3744061990418893	0.106103
C	0.5100653214960149 0.7787996235334044 0.4336049433984718	-0.186939
C	0.5875034039022260 0.7819442088861173 0.4309598788482907	0.099686
C	0.3899133629614145 0.7266726097521886 0.3759452392156993	0.062298
C	0.3462363957884938 0.7903649160524263 0.3788538455835190	-0.172805
C	0.2674772015320320 0.7859932752397998 0.3779043762787763	0.086371
C	0.2783155271495608 0.6494420312711155 0.3753607711674781	-0.123373
C	0.3547768172952527 0.6556088561861391 0.3732435776325016	-0.136125
C	0.9081825715914199 0.7998731877886976 0.3139253016492801	0.107143
C	0.9852333683141591 0.8081094544561825 0.3143266947708830	-0.186266
C	0.0280601115462501 0.7676378459659532 0.3751652233809811	0.109762
C	0.9899358929034479 0.7211152964727447 0.4342960638036216	-0.185669
C	0.9125158141150038 0.7178395741599052 0.4313220548564068	0.101895
C	0.1100786599113386 0.7732730916336007 0.3763113435781736	0.061863
C	0.1537591353259526 0.7095846305247991 0.3790172098146171	-0.172881
C	0.2325046682166190 0.7140035701969745 0.3779133852796365	0.086177
C	0.2216490127523452 0.8505558368561916 0.3753955431085566	-0.123415
C	0.1451958993933030 0.8443508734087902 0.3734188534183620	-0.135903
C	0.7999189406285617 0.9081528337257575 0.8128763588736344	0.096516
C	0.8081588792437722 0.9852659338121462 0.8134962041445712	-0.187066
C	0.7676301653731423 0.0280630149757308 0.8744062162971202	0.105997
C	0.7212004436577703 0.9899344825780686 0.9336053060681313	-0.186988
C	0.7180555269189283 0.9124964603224458 0.9309599842670363	0.099821
C	0.7733274966196633 0.1100868826488343 0.8759448752045412	0.062375
C	0.7096350184888917 0.1537633255828877 0.8788535236861524	-0.172749
C	0.7140065990387222 0.2325224196485133 0.8779044518924772	0.086260
C	0.8505575107789017 0.2216842222304009 0.8753605179904611	-0.123511
C	0.8443911264365447 0.1452233945155880 0.8732435883495971	-0.136288
C	0.7001270791830941 0.5918163460802096 0.8139252493706401	0.107070
C	0.6918904143557350 0.5147660672734806 0.8143266269596584	-0.186261
C	0.7323620765744916 0.4719393834861384 0.8751658129069869	0.109589
C	0.7788845819774595 0.5100642193989764 0.9342960821132017	-0.185674
C	0.7821595766163013 0.5874837619575837 0.9313217397905815	0.101904
C	0.7267268594443749 0.3899205903360279 0.8763123534691656	0.062050
C	0.7904152733606000 0.3462406963770451 0.8790179941370161	-0.172977
C	0.7859964089270639 0.2674951278032615 0.8779137079485414	0.086161
C	0.6494444489856143 0.2783505811611012 0.8753957064905791	-0.123560
C	0.6556488942620163 0.3548037730964111 0.8734193959249895	-0.135968
C	0.5918175998167516 0.7997739567450722 0.8139961939443032	0.099513
C	0.5147406526074855 0.8080540307157601 0.8145576159041819	-0.186875
C	0.4719419843263208 0.7675863402421599 0.8753995440428101	0.106907
C	0.5100800383831234 0.7210865406397692 0.9346299316847447	-0.187197
C	0.5875538541177477 0.7178806309151923 0.9319760604061843	0.096358
C	0.3899079996725531 0.7732007785582710 0.8764016994836864	0.062324
C	0.3462347239056718 0.7095411672627342 0.8790544400822967	-0.173259
C	0.2674790776683114 0.7139706259197716 0.8779016767483604	0.085997
C	0.2782756158014889 0.8505182507773337 0.8753948446515994	-0.123352
C	0.3547406446372968 0.8442839385817453 0.8734552374628592	-0.136141
C	0.9081666577315222 0.6999502686106331 0.8134109266184072	0.099731
C	0.9852633879923015 0.6918363576170221 0.8136387435830962	-0.187543
C	0.0280750910555899 0.7324363215385389 0.8744155608720185	0.109367
C	0.9899278934231517 0.7788792712011348 0.9335805615130506	-0.184405
C	0.9125306936555282 0.7820967564351669 0.9307599384756743	0.108898
C	0.1100902251392572 0.7267154682830118 0.8759251887418655	0.061905
C	0.1537210781250523 0.7903999301740736 0.8788374584355633	-0.172778
C	0.2324776561022401 0.7859745441801668 0.8778922673587081	0.086554
C	0.2216862988311802 0.6494310008154037 0.8753470284752545	-0.122925
C	0.1452276878783639 0.6556263904440107 0.8732346544253959	-0.135738
C	0.2002264762356313 0.4081812857776126 0.6860022726512360	0.099500
C	0.1919461418554688 0.4852582128241641 0.6854414493431028	-0.186887
C	0.2324134531435503 0.5280576173703720 0.6245997561449461	0.106917
C	0.2789129568467529 0.4899194673906609 0.5653695468342264	-0.187240
C	0.2821190934940412 0.4124453855883205 0.5680230946299435	0.096430
C	0.2267989919558608 0.6100921494825013 0.6235978915922749	0.062473
C	0.2904584738854977 0.6537649215448696 0.6209450422843275	-0.173271
C	0.2860292696679040 0.7325207522871751 0.6220975774417770	0.085958
C	0.1494817937161939 0.7217240894655511 0.6246047446436732	-0.123420
C	0.1557156506082495 0.6452591378806680 0.6265446125544332	-0.136189
C	0.3000496938002986 0.0918327092316740 0.6865899337201921	0.099732
C	0.3081646851205984 0.0147357501720172 0.6863622422825149	-0.187598
C	0.2675644243331168 0.9719241814456792 0.6255847814145523	0.109323
C	0.2211215447202265 0.0100717735357953 0.5664198150705450	-0.184411
C	0.2179036919517636 0.0874690256347042 0.5692411258748813	0.108861
C	0.2732846150978379 0.8899083660925601 0.6240744009612915	0.061964
C	0.2096000909568001 0.8462787943334866 0.6211619214556314	-0.172809
C	0.2140249957789654 0.7675222009614977 0.6221069594571418	0.086583
C	0.3505685284762472 0.7783130839577631 0.6246522872845406	-0.122994
C	0.3443739330129794 0.8547716850814540 0.6267649838535616	-0.135796
C	0.4081830741715227 0.2998721693718360 0.6860735520920915	0.107239
C	0.4852331855765687 0.3081091806807588 0.6856729309541342	-0.186349
C	0.5280605403981284 0.2676378699703283 0.6248338803387409	0.109602
C	0.4899355442042140 0.2211153330511186 0.5657031157409265	-0.185673
C	0.4125159542474109 0.2178404119942930 0.5686774008493858	0.101866
C	0.6100799087378947 0.2732730272256265 0.6236876532340084	0.061990
C	0.6537591337314165 0.2095845628855678 0.6209817836119438	-0.172911
C	0.7325041805675000 0.2140035318640716 0.6220856514817800	0.086166
C	0.7216485376376486 0.3505553160399075 0.6246040154570629	-0.123541
C	0.6451956932695364 0.3443511806370922 0.6265806600924938	-0.135943
C	0.0918465066808047 0.2000823778900812 0.6871247041440652	0.096488
C	0.0147334563645208 0.1918424706750644 0.6865047047220180	-0.187242
C	0.9719361111276629 0.2323700160466261 0.6255932594405931	0.106068
C	0.0100654616012902 0.2787992635042562 0.5663948502746545	-0.186925
C	0.0875035527076977 0.2819441910456107 0.5690406883106989	0.099759
C	0.8899118827805224 0.2266726608973467 0.6240537947975039	0.062365
C	0.8462359512160186 0.2903652322161614 0.6211461643366358	-0.172823
C	0.7674766913117080 0.2859934506949663 0.6220948777822215	0.086313
C	0.7783154254671103 0.1494428932404047 0.6246388666166133	-0.123481
C	0.8547762290677302 0.1556089698595483 0.6267560009260646	-0.136269
H	0.1722625330152964 0.1265320204906163 0.2349679575507397	0.098076
H	0.1559917288332797 0.9880496859079364 0.2342709190888828	0.111989
H	0.3108623575598198 0.9795583746256554 0.0164280040256779	0.112346
H	0.3157461034050747 0.1191962976086325 0.0218953868961894	0.096914
H	0.3452824055424150 0.8725687870476714 0.1204804826600722	0.106032
H	0.0946313344916101 0.7518674415131361 0.1253828519877754	0.107752
H	0.1056771873613893 0.8895179947235936 0.1285334153825677	0.097278
H	0.3280342827573316 0.3734000858665701 0.2361161118629728	0.103075
H	0.3445237719370095 0.5120188436993182 0.2346004865093987	0.111045
H	0.1894336787805094 0.5203380054022794 0.0167582127149740	0.113563
H	0.1859872348682529 0.3810583750914578 0.0205039812142750	0.104734
H	0.1547925466959550 0.6274043552730449 0.1205311853402013	0.106584
H	0.4053552812956180 0.7481912272417159 0.1253214291010398	0.104901
H	0.3943595631576042 0.6105200482629503 0.1286693004226276	0.098002
H	0.3731646106758336 0.1711289541367752 0.2345794699079238	0.099391
H	0.5120272242845689 0.1555222030382347 0.2344868425833251	0.111612
H	0.5203277899846168 0.3105070462133364 0.0167242960166942	0.114434
H	0.3809922816859106 0.3147056392070600 0.0214775993549674	0.100972
H	0.6273664434399471 0.3452667862802691 0.1205793223667835	0.107173
H	0.7481685841141114 0.0946039437090496 0.1252977603908687	0.105900
H	0.6105782633580287 0.1056487691355348 0.1285969934211704	0.098574
H	0.1262475182392760 0.3269101645927819 0.2358616457472564	0.106343
H	0.9880657856954482 0.3439622550957732 0.2341315407143233	0.114105
H	0.9795345922397499 0.1889485301960080 0.0162573804782385	0.112891
H	0.1192149521141501 0.1847040298551600 0.0205676019514060	0.103287
H	0.8726149091098967 0.1546794168600325 0.1204086463721433	0.105652
H	0.7517319272524563 0.4053225376335033 0.1254153709442221	0.106393
H	0.8894653021472015 0.3942153130688125 0.1285768980990491	0.096869
H	0.8288714098200844 0.6268353001675843 0.2654204979963455	0.099375
H	0.8444777732348916 0.4879719869088118 0.2655139408084403	0.111149
H	0.6894917303983743 0.4796712219853242 0.4832764530024315	0.114109
H	0.6852931610326787 0.6190074283043467 0.4785233566158544	0.100750
H	0.6547329950673830 0.3726334423629487 0.3794205416652515	0.107127
H	0.9053961748544772 0.2518314262222338 0.3747022108304532	0.105779
H	0.8943510934443679 0.3894224231253964 0.3714030963957712	0.098501
H	0.6730886101797551 0.8737522702859354 0.2641372362197042	0.106205
H	0.6560369335197263 0.0119348495922614 0.2658680521736649	0.113649
H	0.8110518568125442 0.0204654855772108 0.4837418231801308	0.112544
H	0.8152969177286028 0.8807846901973615 0.4794321139506620	0.103303
H	0.8453203463383664 0.1273850372413699 0.3795911196325887	0.105610
H	0.5946767083226097 0.2482686936433765 0.3745844756857868	0.106244
H	0.6057845267122003 0.1105346248959821 0.3714229180465650	0.096789
H	0.6265991457415915 0.6719649914215871 0.2638811734801972	0.104696
H	0.4879795714212872 0.6554750446863998 0.2653993659890409	0.111771
H	0.4796620724321196 0.8105666366158172 0.4832410682059027	0.114191
H	0.6189424484112017 0.8140141466131369 0.4794942051708187	0.106269
H	0.3725957601696597 0.8452066970129853 0.3794686346252625	0.106611
H	0.2518085120474829 0.5946443798990412 0.3746785078936807	0.105005
H	0.3894802745939212 0.6056401945817015 0.3713306889540349	0.098045
H	0.8734670060737643 0.8277384506495009 0.2650326971790063	0.099542
H	0.0119502125834460 0.8440088954618092 0.2657286201102377	0.112597
H	0.0204432197326466 0.6891368287326253 0.4835712971146576	0.112903
H	0.8808043193465032 0.6842534934069459 0.4781062590149243	0.098295
H	0.1274315119248042 0.6547175705086518 0.3795190628886571	0.106086
H	0.2481327869860233 0.9053689740143773 0.3746172425269231	0.107784
H	0.1104815656300800 0.8943222566792274 0.3714664443956769	0.097325
H	0.8280358004343090 0.8734001352260935 0.7638833643885975	0.104678
H	0.8445256027712253 0.0120184561539014 0.7654004398933463	0.111738
H	0.6894334383596575 0.0203379947068527 0.9832407832374110	0.114128
H	0.6859866248370670 0.8810580207603089 0.9794952437162586	0.106351
H	0.6547931744612856 0.1274040217851320 0.8794684706950286	0.106649
H	0.9053552971050391 0.2481912261404193 0.8746784223745071	0.104968
H	0.8943599361800127 0.1105199840270307 0.8713302787176632	0.098083
H	0.6722625941768320 0.6265316891305363 0.7650309714698320	0.099602
H	0.6559912811732420 0.4880489026875701 0.7657292563373284	0.112623
H	0.8108627257466967 0.4795577133232292 0.9835719044536493	0.112831
H	0.8157461960003454 0.6191957796977323 0.9781042982493657	0.098367
H	0.8452823246624576 0.3725686508967725 0.8795193398521090	0.106132
H	0.5946312332350592 0.2518670718095078 0.8746168408360210	0.107768
H	0.6056773931899563 0.3895178390096021 0.8714664171288573	0.097370
H	0.6262468747164747 0.8269102896817752 0.7641366340760565	0.106177
H	0.4880651250504456 0.8439626682988407 0.7658678555205833	0.113685
H	0.4795346641105830 0.6889483338674773 0.9837425487752197	0.112548
H	0.6192150383444275 0.6847030854672420 0.9794311844424377	0.103159
H	0.3726150190532810 0.6546796425311052 0.8795912618988787	0.105578
H	0.2517316920229596 0.9053226359949986 0.8745842430821015	0.106263
H	0.3894653693965222 0.8942153160878976 0.8714229211204875	0.096762
H	0.8731643150538335 0.6711286235604667 0.7654210568611043	0.099354
H	0.0120273137173526 0.6555229938261634 0.7655138943914600	0.111212
H	0.0203276855194472 0.8105075574154796 0.9832759273562002	0.114137
H	0.8809919181637852 0.8147057576511508 0.9785230562320480	0.100681
H	0.1273666657658599 0.8452670593034892 0.8794204694568662	0.107068
H	0.2481683066049002 0.5946040757406028 0.8747019321310234	0.105810
H	0.1105779690343869 0.6056492703091761 0.8714027530469320	0.098495
H	0.1730897156641379 0.3737517678919363 0.7358608554224576	0.106176
H	0.1560382137858001 0.5119333025663825 0.7341313690748302	0.113711
H	0.3110512436438608 0.5204648613070991 0.5162575988343473	0.112522
H	0.3152956910684043 0.3807845959829009 0.5205673257449568	0.103224
H	0.3453202032298114 0.6273849885109817 0.6204084938876980	0.105530
H	0.0946772509749838 0.7482676097658448 0.6254155173954176	0.106249
H	0.1057843576220168 0.6105345347296165 0.6285770804254941	0.096762
H	0.3288704803549440 0.1268348244473447 0.7345803063884438	0.099348
H	0.3444780004649401 0.9879726193439595 0.7344874716097941	0.111215
H	0.1894931745035949 0.9796722976490431 0.5167239518394098	0.114079
H	0.1852944822348890 0.1190074339030028 0.5214786946493311	0.100759
H	0.1547332022172687 0.8726336812727326 0.6205792766845992	0.107114
H	0.4053953636099290 0.7518309515992977 0.6252976876001960	0.105796
H	0.3943511265243081 0.8894209777592144 0.6285970594614003	0.098494
H	0.3734676762966395 0.3277371335616197 0.7349668379041502	0.099579
H	0.5119499730456750 0.3440077138316362 0.7342709786136539	0.112555
H	0.5204423411114737 0.1891372594554534 0.5164277642800472	0.112833
H	0.3808043312687273 0.1842544983187706 0.5218941984776957	0.098386
H	0.6274312459357047 0.1547176261115647 0.6204805076699983	0.106105
H	0.7481323676035835 0.4053682538697475 0.6253828248108806	0.107815
H	0.6104820042377100 0.3943224608374913 0.6285335339988862	0.097361
H	0.1265994039554325 0.1719663391569432 0.7361180414384958	0.104668
H	0.9879808887567486 0.1554765230000336 0.7346011566254560	0.111704
H	0.9796628973733286 0.3105655736316842 0.5167585174953098	0.114081
H	0.1189423613790011 0.3140128859848960 0.5205056665486895	0.106290
H	0.8725956527784382 0.3452069361935242 0.6205311775149737	0.106652
H	0.7518086905353296 0.0946448988514140 0.6253214332565674	0.104974
H	0.8894797895029833 0.1056403126707222 0.6286693854883385	0.098083
F	0.2565421464687215 0.1543833001722725 0.3782246765090866	-0.661592
F	0.1639873467956976 0.2958415297687041 0.3788866332512955	-0.652813
F	0.3304626042789515 0.3051730454703714 0.3788297824993955	-0.658279
F	0.6948254697247876 0.6695357807789406 0.1211737546496385	-0.658065
F	0.7041545025181940 0.8360139855909806 0.1211095758007080	-0.652544
F	0.8456172478295020 0.7434614896917686 0.1217818336517443	-0.661539
F	0.6639884679815485 0.7958539149469421 0.6211152100767787	-0.652619
F	0.7565333831247415 0.6543792543212062 0.6217725964528890	-0.661594
F	0.8304574772580662 0.8051804515780400 0.6211755800209353	-0.658118
F	0.1948231934404468 0.1695436539348097 0.8788301814352856	-0.658167
F	0.3456226702842965 0.2434548718621942 0.8782261437777827	-0.661921
F	0.2041716445004969 0.3360122339372668 0.8788803660437412	-0.652675
F	0.2491653128024674 0.2504049957073103 0.2584712628811038	-0.554656
F	0.2494938728026319 0.2497094556444205 0.4990056002819040	-0.544461
F	0.7495900703302320 0.7508444959620425 0.2415302929001084	-0.544556
F	0.7502881639397375 0.7505123580609350 0.0009946523124570	-0.544727
F	0.7491577799308659 0.7504031492133373 0.7415274907999563	-0.544676
F	0.7494811524125168 0.7497144731153448 0.5009942299260794	-0.544710
F	0.2495996789905939 0.2508334167617171 0.7584714229011984	-0.544340
F	0.2502931058647468 0.2505156794366715 0.9990090318343160	-0.554801
Fe	0.2498721514396333 0.2502409603732994 0.1287994173567794	0.666833
Fe	0.7497579445106705 0.7501293204896573 0.3712049748102309	0.603454
Fe	0.7498710834423066 0.7502416908881776 0.8712042592524581	0.603732
Fe	0.2497593120391566 0.2501280617404826 0.6287977009597876	0.603349
Al	0.2501271851660792 0.2511299695683756 0.3787848701086949	1.694182
Al	0.7488696868460423 0.7498747448407305 0.1212176400863315	1.695258
Al	0.7501230056746424 0.7511294470625508 0.6212119197305079	1.695555
Al	0.2488769021695078 0.2498730573206588 0.8787878712798252	1.694303
	  	
