#======================================================================

# CRYSTAL DATA

#----------------------------------------------------------------------

data_VESTA_phase_1


_pd_phase_name                         ALFFIVE_13_Fe_i
_cell_length_a                         15.30013
_cell_length_b                         15.35626
_cell_length_c                         7.77600
_cell_angle_alpha                      90.26537
_cell_angle_beta                       89.80273
_cell_angle_gamma                      89.74325
_symmetry_space_group_name_H-M         P 1
_symmetry_Int_Tables_number            1

loop_
_symmetry_equiv_pos_as_xyz
   x, y, z

loop_
   _atom_site_label
   _atom_site_fract_x
   _atom_site_fract_y
   _atom_site_fract_z
   _atom_site_charge
C	0.5415479938266938 0.6865559802843642 0.8692233387268193	0.109404
C	0.5449435473887854 0.7769249657856725 0.8670499137547655	-0.152345
C	0.4618004430371824 0.3166658864358869 0.8794526481843170	0.101455
C	0.4585138541582868 0.2263253637116117 0.8794537635950020	-0.142199
C	0.8197752142008778 0.9705798453633485 0.3617620896356551	0.102476
C	0.7289252108451494 0.9685363616871975 0.3589676825687552	-0.139103
C	0.3170969593694392 0.5434926852504488 0.8662576458369899	0.103785
C	0.2264075666496607 0.5471923764308340 0.8629699578515417	-0.151229
C	0.1828161833778144 0.9723990430517653 0.3578427414417996	0.087317
C	0.2737045562110205 0.9705322989021044 0.3557553534728805	-0.139415
C	0.6858343680442430 0.4622248861367575 0.8815103162817176	0.102692
C	0.7764134005700650 0.4589002861469890 0.8806730904016216	-0.140645
C	0.4553158535649309 0.6873525612711137 0.1158611395377420	0.103164
C	0.4518407002211227 0.7776486370864355 0.1183565315618261	-0.140001
C	0.5417667493304847 0.3188415129600840 0.1333658597188973	0.103803
C	0.5446242019470171 0.2284383276420913 0.1390019705430202	-0.153731
C	0.1805939193097878 0.0204144979033314 0.6419765115501852	0.105883
C	0.2713594999344345 0.0224324056666813 0.6479209927519326	-0.139117
C	0.6837586680130533 0.5447781095300642 0.1331589002597439	0.111343
C	0.7744205771838878 0.5482262061136102 0.1373619311763001	-0.152147
C	0.8192770160116366 0.0298447420861433 0.6377939924017474	0.100868
C	0.7284960812989346 0.0308656183790403 0.6434682106687676	-0.140328
C	0.3158604124122810 0.4585708232461403 0.1135813193580092	0.104108
C	0.2252596406641151 0.4557150421607998 0.1150557564762185	-0.143931
C	0.9654907955420321 0.8164678565253796 0.6362933982096812	0.102326
C	0.9638699069669102 0.7259122061359092 0.6405606258654885	-0.141639
C	0.9820609178001843 0.1817908066480042 0.6414037842458686	0.087103
C	0.9797051186615824 0.2722038331534853 0.6448387819180557	-0.139854
C	0.0237129344594273 0.8150576622620777 0.3594232942445977	0.100120
C	0.0254552219971561 0.7246914118860677 0.3550466759448449	-0.140555
C	0.0287351263494405 0.1804507154091779 0.3562727665789290	0.106456
C	0.0302935005021801 0.2709406874259488 0.3513629099745583	-0.139653
C	0.0040966373526588 0.3181793242140594 0.4973977690812898	0.048746
C	0.0019104049449117 0.4142981136621349 0.4974960218115083	0.254650
C	0.4986006160775955 0.8231990801683926 0.9931034809984228	0.057109
C	0.4996102599456282 0.9188067399131906 0.9984703523522047	0.249813
C	0.9953498573773686 0.6786584602874531 0.4985045624979170	0.046880
C	0.9974779606678854 0.5824009529902632 0.4986864011814787	0.245407
C	0.5014165725278953 0.1815133306824194 0.0107706080985464	0.055636
C	0.5009586596524945 0.0858217525844080 0.0110329575618638	0.251768
C	0.6817521395450361 0.9992510154516713 0.5018321093608098	0.045165
C	0.5850761990504386 0.9978749169280902 0.5036546858854839	0.245767
C	0.1800110258602501 0.5018137148254100 0.9886658783910688	0.056259
C	0.0842445146183462 0.5026705534671048 0.9920618544601197	0.251046
C	0.3194879080054836 0.9964250706480291 0.5028516800515253	0.047916
C	0.4161291002924454 0.9965264879891494 0.5043990861909092	0.256618
C	0.8212254488858252 0.5036078782216293 0.0098685022786958	0.054532
C	0.9170303512757129 0.5035910087600848 0.0070079513596570	0.252887
H	0.5731572937742158 0.6471650208386527 0.7699524757284548	0.103452
H	0.5818530808183819 0.8104490961400187 0.7675572333083115	0.123347
H	0.4330048113789651 0.3546793995189971 0.7754416744703940	0.110108
H	0.4260703894793488 0.1907274553987696 0.7766798691777153	0.117803
H	0.8580658096739904 0.9481289846291127 0.2514934087183175	0.110337
H	0.6955877523727103 0.9439317825264038 0.2454266758187557	0.120413
H	0.3569508695952263 0.5750768682618158 0.7681471172917820	0.105213
H	0.1926420907432910 0.5836313633188094 0.7632559235626503	0.125946
H	0.1462729649359767 0.9567419309643046 0.2417458648667611	0.109670
H	0.3077431828245940 0.9508272500142694 0.2386312623671090	0.116381
H	0.6476351831756962 0.4333119269950628 0.7779738781273035	0.111251
H	0.8122127810100456 0.4255504986733964 0.7784530594249938	0.118184
H	0.4249338567499683 0.6488121732855575 0.2170439501082631	0.110403
H	0.4171960174360649 0.8125692721299321 0.2199774003677657	0.116823
H	0.5717141849858562 0.3588587784842152 0.2332842630360637	0.104871
H	0.5786140676797779 0.1953849316184163 0.2429349238912753	0.124324
H	0.1415256830433051 0.0363499838344787 0.7547451267595527	0.107082
H	0.3037044402719288 0.0426084937733603 0.7658204826958801	0.118109
H	0.6437781472761446 0.5746561693278467 0.2335990049977453	0.103900
H	0.8076878321373586 0.5834861555626369 0.2396341659306841	0.124872
H	0.8575010917287587 0.0515559050904142 0.7474275324785535	0.099194
H	0.6949997869536155 0.0546569711207424 0.7581707618923946	0.120926
H	0.3544763851818067 0.4278334949538160 0.2145268689225936	0.110119
H	0.1897624587296779 0.4217666908395958 0.2158546163109747	0.118192
H	0.9432249486097812 0.8552043365535559 0.7460750883252366	0.109177
H	0.9396241016999596 0.6930632443762482 0.7548005719535180	0.120646
H	0.9669445088307422 0.1447368108371689 0.7568977517542208	0.106675
H	0.9601198799455093 0.3058034752650836 0.7623672837455673	0.118521
H	0.0447228558848667 0.8530043252776369 0.2491648160153755	0.097457
H	0.0493247582310913 0.6909604467757907 0.2407748676721360	0.118123
H	0.0446529038889794 0.1416337011177587 0.2431184361328541	0.106306
H	0.0497279083466273 0.3037466651083507 0.2336062928386987	0.118206
N	0.9430792672210209 0.5407085121131011 0.6073250526517040	-0.156070
N	0.4222383650610180 0.0463502134753190 0.0097202995070216	-0.154831
N	0.5434412408275630 0.0529844415372815 0.6124921703803068	-0.153347
N	0.9573564836930157 0.4252085678480106 0.0020739390783169	-0.147709
N	0.0542381030296302 0.5428194675705427 0.3900037141191642	-0.155776
N	0.5789579369053126 0.0444383011470955 0.0116755520511951	-0.155901
N	0.9575040940259743 0.5814752825255969 0.0046760985700635	-0.151497
N	0.5450113808286923 0.9409910480703094 0.3973519826331876	-0.150688
N	0.0568308169689363 0.4560296710731683 0.3902344786588804	-0.151615
N	0.5782905764680614 0.9582799839434474 0.0007472096004927	-0.153484
N	0.4578489662138300 0.9405543580118643 0.3976403792504620	-0.143985
N	0.0438545126155450 0.5809727833307672 0.9926820473578135	-0.153647
N	0.9450853625373957 0.4538970324016515 0.6058052850960871	-0.149047
N	0.4216304121903570 0.9601283736959473 0.0077885494106607	-0.148181
N	0.0437997310051381 0.4247575210564062 0.9986610924475107	-0.152356
N	0.4562471737025301 0.0521063972420765 0.6129819585326712	-0.148769
N	0.0047971586360528 0.1366159753833682 0.4987644583638983	-0.197959
N	0.4986315431021187 0.6427401362016572 0.9925555239558244	-0.205125
N	0.9954750147336766 0.8602544658987972 0.4980612209003930	-0.193967
N	0.5018317397403776 0.3618853819439388 0.0051802166990459	-0.203148
N	0.8644905642463133 0.0006242416377674 0.4993997869220597	-0.187800
N	0.3606269174030853 0.5008953934383138 0.9904488190119877	-0.202052
N	0.1367389147048149 0.9961721338758983 0.4991680669440339	-0.189930
N	0.6405523742240125 0.5034622354464399 0.0066885711625833	-0.206153
Fe	0.0002191001943748 0.9984178618238437 0.4986670121514277	0.673766
Fe	0.5005112153235999 0.5023463096769583 0.9991113453274550	0.661846
Al	0.9959662750515936 0.9937638091825137 0.9989769232193582	1.663399
Al	0.4972159025203866 0.4995335777300961 0.4991609420491582	1.679692
F	-0.0003567235163665 0.9968378383137773 0.2342609267632545	-0.564805
F	0.5057457850076792 0.4965952154461563 0.7392681809772438	-0.555496
F	0.9976847570245800 0.9961177424893248 0.7635460493645476	-0.565572
F	0.4926655715939907 0.5066478190905108 0.2590130593201874	-0.556449
F	0.9156582990796698 0.9152362203770981 0.0007195497304570	-0.624865
F	0.4196724294111327 0.4182641510187525 0.5004311275626646	-0.644769
F	0.9646420527031969 0.1022458497364528 0.9994804529310469	-0.620991
F	0.4625211569949478 0.6065925348387458 0.5138503393950083	-0.647512
F	0.1041041989928861 0.9600770186855927 0.9972192866469947	-0.620824
F	0.6060354372097617 0.4695964236371782 0.4838779562641081	-0.647024
	  	
