#======================================================================

# CRYSTAL DATA

#----------------------------------------------------------------------

data_VESTA_phase_1


_pd_phase_name                         ALFFIVE_1_Zn
_cell_length_a                         11.38133
_cell_length_b                         11.38125
_cell_length_c                         7.78950
_cell_angle_alpha                      90.03417
_cell_angle_beta                       89.96211
_cell_angle_gamma                      89.98214
_symmetry_space_group_name_H-M         P 1
_symmetry_Int_Tables_number            1

loop_
_symmetry_equiv_pos_as_xyz
   x, y, z

loop_
   _atom_site_label
   _atom_site_fract_x
   _atom_site_fract_y
   _atom_site_fract_z
   _atom_site_charge
C	0.2509995270349895 0.4572211707925631 0.3638167737431373	0.101452
C	0.1287756779514301 0.4567142948207404 0.3588852094329752	-0.178020
C	0.7503365503063748 0.5414580153790329 0.3638872885417699	0.104275
C	0.8724531425680169 0.5426553666005794 0.3588888735299617	-0.177003
C	0.5423440191029334 0.2508143496437748 0.3651671204981022	0.104736
C	0.5430596076924765 0.1286595832657671 0.3596610262866508	-0.177775
C	0.4583154847961655 0.7501135190204903 0.3641011765013424	0.097387
C	0.4573622332633972 0.8722881531535971 0.3593546899034611	-0.176107
C	0.7501121501622336 0.4583110935962639 0.6359066303634757	0.097426
C	0.8722863414905921 0.4573585353543594 0.6406467834597195	-0.176149
C	0.2508067988503890 0.5423393447441107 0.6348246073723918	0.104755
C	0.1286527609923303 0.5430587762882451 0.6403298993237257	-0.177838
C	0.4572223436296717 0.2509930244879907 0.6361812262938455	0.101525
C	0.4567130152684221 0.1287686622103394 0.6411128170022606	-0.178114
C	0.5414603214472220 0.7503315724125051 0.6361143598414771	0.104255
C	0.5426575334432139 0.8724485354465837 0.6411064160283204	-0.176888
C	0.0653365906292237 0.4998858484207139 0.4996108954411857	0.102097
C	0.9357643240814986 0.4999263017189910 0.4997664528381428	0.099396
C	0.4998853202192362 0.0653364010603288 0.5003826848724930	0.102112
C	0.4999281032239132 0.9357634213000293 0.5002296732263587	0.099400
H	0.3032860029552241 0.4238256221130561 0.2565941415761739	0.104488
H	0.0832420356819176 0.4207542529119171 0.2476296932267756	0.120203
H	0.6979814110277779 0.5721771476938233 0.2558637102662787	0.099818
H	0.9179628938181059 0.5782965896555148 0.2473452873217528	0.117335
H	0.5760227645884436 0.3035189607419534 0.2589993504954763	0.097572
H	0.5790632829972149 0.0829921066691557 0.2483706916591067	0.117870
H	0.4280731592094647 0.6981723668804872 0.2549193615047595	0.107118
H	0.4219072306777870 0.9175167025940205 0.2475660027506892	0.119617
H	0.6981697390259378 0.4280643066568500 0.7450922537383282	0.107248
H	0.9175116020275654 0.4219013594039520 0.7524368651690557	0.119582
H	0.3035071214769463 0.5760140966042256 0.7409902896820597	0.097624
H	0.0829825361487081 0.5790618866067039 0.7516200763361274	0.117928
H	0.4238221985348818 0.3032775839073119 0.7434010647007975	0.104475
H	0.4207515593894529 0.0832284247573290 0.7523694640011590	0.120195
H	0.5721769214552844 0.6979758718458180 0.7441391086001280	0.099790
H	0.5782975781980895 0.9179564765736932 0.7526431544261856	0.117245
Zn	0.5007802812518002 0.5007801849313519 0.5000118421016179	0.737212
Al	0.4982330864013673 0.4982348516094008 0.0000105865671463	1.678701
F	0.5014949861363106 0.4980830805845643 0.7644994445133487	-0.583773
F	0.4980752979175654 0.5015111807507927 0.2355117733983025	-0.583793
F	0.3900787118094727 0.3901610527290511 0.0000181576683482	-0.640874
F	0.6452908029497711 0.4563199930516552 0.0039551496124292	-0.640760
F	0.4564170345231927 0.6453387322788366 0.9960324120637757	-0.640742
N	0.3108238449061869 0.4998328882235705 0.4994223744216967	-0.222773
N	0.6902672297383807 0.4998786838350965 0.4997229755557216	-0.224829
N	0.4998382228834654 0.3108236147924179 0.5005753393464013	-0.222738
N	0.4998806361159380 0.6902660728804340 0.5002849847955595	-0.224663
	  	
