#======================================================================

# CRYSTAL DATA

#----------------------------------------------------------------------

data_VESTA_phase_1


_pd_phase_name                         ALFFIVE_3_Co
_cell_length_a                         14.23041
_cell_length_b                         14.22805
_cell_length_c                         7.79825
_cell_angle_alpha                      90.00235
_cell_angle_beta                       90.03667
_cell_angle_gamma                      90.51778
_symmetry_space_group_name_H-M         P 1
_symmetry_Int_Tables_number            1

loop_
_symmetry_equiv_pos_as_xyz
   x, y, z

loop_
   _atom_site_label
   _atom_site_fract_x
   _atom_site_fract_y
   _atom_site_fract_z
   _atom_site_charge
C	0.2623938071366022 0.4526115985635133 0.6446523737784604	0.057279
C	0.2365729372851793 0.0503390056910717 0.6446011144971936	0.061786
C	0.2329809739350046 0.4527028552750242 0.3547710207547560	0.050683
C	0.2675957283403310 0.0501982929741512 0.3557793225725399	0.063584
C	0.0502810246819741 0.2654971473431355 0.3557223901239278	0.064003
C	0.4526161780783334 0.2350112161818130 0.3548337272894707	0.050422
C	0.4527511618154254 0.2646048381247519 0.6446520978883273	0.058467
C	0.0506431104759340 0.2346387279011038 0.6446756923520999	0.062100
C	0.9527543419333891 0.2349909651390825 0.6453988829655608	0.051047
C	0.5505968580845474 0.2654862126077881 0.6444188506044684	0.063382
C	0.5505152543555931 0.2347117100593499 0.3553984559977368	0.062748
C	0.9524697211350813 0.2646898940813946 0.3556137526889996	0.056591
C	0.7358569617062128 0.0505769298836830 0.3551185720807790	0.062104
C	0.7633522861810281 0.4523838791374362 0.3550150087812806	0.056830
C	0.7663163525584658 0.0505039291125929 0.6442536939246747	0.063821
C	0.7340864981398278 0.4524620240365733 0.6449422989649228	0.051631
C	0.4522019845461446 0.7365365068807289 0.6465214332042273	0.049021
C	0.0502962752752760 0.7632027465774048 0.6439783917929611	0.063552
C	0.0506136516973632 0.7327632117861747 0.3547674368334944	0.060822
C	0.4523762039264119 0.7663237640439694 0.3566860846642597	0.056219
C	0.2319237166405860 0.5506395121372361 0.3557448067445130	0.062226
C	0.2674920013449122 0.9523544734860134 0.3558543468950787	0.058220
C	0.2621631928792276 0.5504343529849807 0.6450374719617307	0.064074
C	0.2374904697190258 0.9524162007976695 0.6455529969857381	0.051311
C	0.7660462539028832 0.9526419278713842 0.6443095732103744	0.054299
C	0.7329337234687334 0.5503861388788602 0.6439109680085033	0.061917
C	0.7368221205679658 0.9526957401016138 0.3543014519275829	0.050356
C	0.7633192387038160 0.5502106025089101 0.3547794635814837	0.064065
C	0.5502101617246160 0.7655055321411087 0.3567648023570583	0.065429
C	0.9527023538743676 0.7343472894722473 0.3532440350745460	0.051830
C	0.9524550729505893 0.7640296074087281 0.6430263436324338	0.056288
C	0.5501205006078216 0.7348742234086245 0.6458366521632178	0.065068
H	0.2710399961435390 0.4136825705615156 0.7636326932422318	0.112519
H	0.2226729164117894 0.0893397359177120 0.7620011620582846	0.109896
H	0.2220939374152787 0.4142048477822319 0.2352969504333608	0.116745
H	0.2785579968806571 0.0895466030117822 0.2378380100201098	0.106239
H	0.0895981023595432 0.2767538284442312 0.2377999357173105	0.106712
H	0.4139522967536926 0.2236789839464506 0.2355039955505451	0.116642
H	0.4139009927580795 0.2727879899056935 0.7638358436890661	0.112627
H	0.0897539308870328 0.2209222422776120 0.7622247869811708	0.110039
H	0.9142195326906024 0.2237119297625919 0.7647564984952815	0.117026
H	0.5900694881104980 0.2766710347429577 0.7622938307830630	0.106591
H	0.5894848585824053 0.2210036655530890 0.2378194541531540	0.110047
H	0.9134320649909876 0.2730445092160775 0.2365724014639916	0.112714
H	0.7219385951458549 0.0895532692286735 0.2375409294636979	0.109629
H	0.7717843592489970 0.4134140881679073 0.2360352214553170	0.112497
H	0.7771106267683870 0.0899496699235754 0.7622234797883625	0.106354
H	0.7233678367826026 0.4138946446271330 0.7644306789370708	0.116137
H	0.4134453645358678 0.7254017068739745 0.7656530301353608	0.116608
H	0.0895726938523459 0.7736339971050006 0.7622766172009231	0.106582
H	0.0897843610158451 0.7190588278748934 0.2374358049678466	0.109701
H	0.4134793729661854 0.7751266908552805 0.2376041160914219	0.112625
H	0.2183891320674061 0.5897201129470180 0.2381469322241273	0.110058
H	0.2760277688886967 0.9133410881675089 0.2369540986980575	0.112052
H	0.2726657992041610 0.5898078803405696 0.7631592361296328	0.106286
H	0.2261848492922250 0.9138235038408675 0.7648478663588301	0.116436
H	0.7738538183648028 0.9137260124062623 0.7635642112809383	0.116095
H	0.7195535879820537 0.5894584022557349 0.7615363039096084	0.110035
H	0.7256365449667005 0.9140948220881603 0.2348814873830575	0.116253
H	0.7744377033826956 0.5894986011421905 0.2367903280374974	0.106124
H	0.5896288375847368 0.7761484872654839 0.2388422780356879	0.105507
H	0.9143172869128503 0.7232335136007376 0.2336632228771210	0.117258
H	0.9133223867609264 0.7727662607063940 0.7616881392323118	0.112631
H	0.5888924246239624 0.7210077596445823 0.7636074504159034	0.109192
Co	0.2512906233392628 0.2511367119099931 0.4987943681705254	0.835176
Co	0.7512290265658755 0.2511741300197898 0.5009902911286773	0.834550
Co	0.2509921852637439 0.7510951767259126 0.5017537841622184	0.834900
Co	0.7509158022962152 0.7510417605533655 0.4982248619878328	0.835036
Al	0.2481149507022771 0.2480683587048420 -0.0015643626620271	1.661808
Al	0.7480590167528821 0.2479571280063609 0.0014263411818888	1.662381
Al	0.2483631556926294 0.7486359868594201 0.0022514148033488	1.660550
Al	0.7480972111452819 0.7480560633587703 -0.0019502966542908	1.662665
F	0.2510692771685707 0.2512358034093931 0.7588937640892222	-0.586267
F	0.2498409297059480 0.2496145395355190 0.2380445129322309	-0.587386
F	0.1623042811372471 0.1625631593332546 -0.0048501324605223	-0.614677
F	0.2138988357936500 0.3641155482241996 0.9986547667768484	-0.604938
F	0.3642230757321651 0.2140678541700466 -0.0014432007286692	-0.604936
F	0.7498728236409744 0.2499109282450360 0.7617431284594953	-0.587990
F	0.7508498676995523 0.2508062674368255 0.2409107115380403	-0.586760
F	0.6621472829353479 0.1623870926504414 0.0042199555881737	-0.614947
F	0.7140928557744818 0.3641198905839631 0.0012592627534501	-0.604930
F	0.8640390389334330 0.2138047070435110 0.0013274224651080	-0.605407
F	0.2504494673639556 0.7507465928136762 0.7628058828796006	-0.587324
F	0.2511908893781097 0.7511505694642217 0.2415821296286091	-0.586236
F	0.1626345879490377 0.6625166333487573 0.0043109032801840	-0.613883
F	0.2143022251332226 0.8647196805024558 0.0024824967526891	-0.605366
F	0.3646233099121914 0.7147485188900445 0.0025928547176791	-0.605093
F	0.7506624509289190 0.7512070869803164 0.7585230987507758	-0.587367
F	0.7506484322275780 0.7505925242322729 0.2375692500279315	-0.588298
F	0.6621600687223936 0.6623973846689796 -0.0037566500459146	-0.615651
F	0.7145663309984007 0.8642911557378055 0.9982733341303591	-0.605898
F	0.8637484440416406 0.7127212393479838 0.9972290961042521	-0.606131
N	0.4034907329876674 0.2500567178291285 0.4995462992590329	-0.215915
N	0.0997136713186467 0.2505866477699570 0.4999690346280665	-0.212592
N	0.2484777325680867 0.4034073437856184 0.4993198801838135	-0.215650
N	0.2522888982727531 0.0995724691837648 0.4999305776449765	-0.212255
N	0.9034082668563133 0.2499645380849555 0.5007811789854005	-0.214613
N	0.5997510925744175 0.2507725442710258 0.4999323889918109	-0.212096
N	0.7491752268429142 0.4032679133162460 0.5002905948244772	-0.215474
N	0.7515970055408751 0.0997525801064642 0.4997926861552731	-0.213266
N	0.4031281201228357 0.7521568418916534 0.5017592471951096	-0.213974
N	0.0997016658008735 0.7481719750304159 0.4997714084176588	-0.212680
N	0.2530169656921323 0.9031819690815819 0.5010164524027274	-0.214968
N	0.2472954087130585 0.5997585290462302 0.5006180736939272	-0.213523
N	0.9033446575253732 0.7506032375896079 0.4974132203531095	-0.215335
N	0.5994374345751442 0.7496685091965009 0.5010268595046564	-0.214833
N	0.7522949589362954 0.9034752328437984 0.4989072289858567	-0.214270
N	0.7479725257336090 0.5995424634339331 0.4989854975037277	-0.213171
	  	
