#======================================================================

# CRYSTAL DATA

#----------------------------------------------------------------------

data_VESTA_phase_1


_pd_phase_name                         ALFFIVE_16_Fe_i
_cell_length_a                         25.22701
_cell_length_b                         25.22700
_cell_length_c                         7.62649
_cell_angle_alpha                      90.00262
_cell_angle_beta                       89.99738
_cell_angle_gamma                      90.00790
_symmetry_space_group_name_H-M         P 1
_symmetry_Int_Tables_number            1

loop_
_symmetry_equiv_pos_as_xyz
   x, y, z

loop_
   _atom_site_label
   _atom_site_fract_x
   _atom_site_fract_y
   _atom_site_fract_z
   _atom_site_charge
C	0.4777389990410554 0.3860195265671009 0.3674384027675991	0.097761
C	0.4768237698035426 0.3309687147236806 0.3625410133797327	-0.174808
C	0.9550099727878756 0.6128047669249759 0.9434964762538630	-0.126136
C	0.9551512388497491 0.5577481447444771 0.9442880266370727	-0.124105
C	0.5223586017695635 0.6143827373837647 0.3658672102883820	0.105703
C	0.5233710037833381 0.6693833151414755 0.3607060556268992	-0.174743
C	0.0450050589537242 0.3873815833817723 0.9434466565452790	-0.126453
C	0.0448474487330651 0.4424349226346954 0.9442059218948448	-0.125208
C	0.6142689693181332 0.4777114096005532 0.3684333176392088	0.097816
C	0.6692845938358719 0.4767469537072287 0.3632527599812848	-0.173724
C	0.3873675964522538 0.9549985849309393 0.9434830086233460	-0.126388
C	0.4424192151889544 0.9551365445417036 0.9442966781787876	-0.125002
C	0.3860238996858671 0.5223148421782922 0.3664964438626189	0.102094
C	0.3310018756586250 0.5232589220506114 0.3610861012392897	-0.175004
C	0.6128097123364713 0.0449943677525788 0.9434641326025998	-0.126234
C	0.5577516614925399 0.0448403726395212 0.9442287195612465	-0.124256
C	0.5223152298894143 0.3860244405671442 0.6335002894920325	0.102239
C	0.5232589935092125 0.3310020862205348 0.6389127185868195	-0.175080
C	0.0449947054231499 0.6128096907487507 0.0565382690826584	-0.126086
C	0.0448406287883170 0.5577515432076372 0.0557737450802926	-0.124300
C	0.4777109996362666 0.6142686869322483 0.6315645305934815	0.097937
C	0.4767470589785714 0.6692843059282463 0.6367472182048739	-0.173766
C	0.9549987530033091 0.3873676439346411 0.0565177859379430	-0.126325
C	0.9551366764608207 0.4424193143062764 0.0557049983710669	-0.125097
C	0.3860202220986954 0.4777383693309992 0.6325572729797992	0.097659
C	0.3309693775078774 0.4768237038866467 0.6374575055224526	-0.174739
C	0.6128049424882264 0.9550095340062815 0.0565025787903823	-0.126084
C	0.5577483037470228 0.9551509429557912 0.0557131335150878	-0.124102
C	0.6143822522134292 0.5223592570985446 0.6341306691331302	0.105659
C	0.6693829416957436 0.5233709980293280 0.6392948158515327	-0.174822
C	0.3873816868390708 0.0450050621877508 0.0565545783943883	-0.126508
C	0.4424350463261750 0.0448473999505558 0.0557943308409868	-0.125212
C	0.5450026353149554 0.8873754096608300 0.5565531620020329	-0.126986
C	0.5448355217157996 0.9424307585491023 0.5557746784684005	-0.124785
C	0.0223280356043055 0.1143858877288005 0.1341035662160042	0.105234
C	0.0233717405547181 0.1693853289185383 0.1392733098298160	-0.174501
C	0.4550095437561377 0.1128092829290610 0.5565108137858440	-0.126112
C	0.4551631700882749 0.0577493550419130 0.5556988686822492	-0.124215
C	0.9777535790203349 0.8860060435364719 0.1325688350452790	0.097686
C	0.9768274456191883 0.8309581161614248 0.1374939589388231	-0.174786
C	0.1128133400870540 0.5449948017529680 0.5565341601186342	-0.126155
C	0.0577513152379318 0.5448269611426514 0.5557506325625553	-0.124511
C	0.8860087587297922 0.0223003644539163 0.1334859619380635	0.102003
C	0.8309872245919705 0.0232585390000639 0.1389063855364600	-0.175587
C	0.8873608601516271 0.4549987480417056 0.5565213770159073	-0.126644
C	0.9424143790833605 0.4551473194615837 0.5556895925447467	-0.125014
C	0.1142800528646207 0.9777371244596543 0.1316189405246591	0.097826
C	0.1692956698463600 0.9767470306707371 0.1367860611152884	-0.173882
C	0.4549987250316196 0.8873608248308327 0.4434808283859880	-0.126574
C	0.4551472928527504 0.9424143705291511 0.4443127479273013	-0.125040
C	0.9777372477409007 0.1142803563783214 0.8683823909347437	0.097886
C	0.9767471556961220 0.1692962646408525 0.8632148505402101	-0.173905
C	0.5449947393228357 0.1128131685433787 0.4434670142392351	-0.126061
C	0.5448269920124247 0.0577511064841353 0.4442511847605494	-0.124548
C	0.0223003475139606 0.8860085276379424 0.8665152553540162	0.102053
C	0.0232584745226636 0.8309871972403948 0.8610955111145849	-0.175549
C	0.8873753525670417 0.5450024551090092 0.4434483824648777	-0.126958
C	0.9424306858012254 0.5448353475441625 0.4442270206298780	-0.124793
C	0.1143860170428513 0.0223276900898795 0.8658974373554550	0.105258
C	0.1693853827098785 0.0233711682442172 0.8607266826918659	-0.174498
C	0.1128093445628560 0.4550095537775690 0.4434901873710189	-0.126156
C	0.0577494597455590 0.4551631335442917 0.4443024207953345	-0.124248
C	0.8860059082712795 0.9777534153180367 0.8674323729437535	0.097682
C	0.8309579863598016 0.9768272936446415 0.8625076232775223	-0.174782
C	0.4999978510490691 0.3021134944898733 0.5007966555505002	0.172455
C	0.5000111545436914 0.2458833207919907 0.5007277488646517	-0.117861
C	0.5000200049908041 0.1975092148869956 0.5002988123784508	-0.095786
C	0.5000098502775310 0.1413023571046670 0.5000414764651484	0.123089
C	0.4999938402596464 0.0292508848893214 0.4999884371503971	0.068371
C	0.0000017695123881 0.8020963339974239 -0.0007775024260769	0.172730
C	0.0000123459118866 0.7458685988160314 -0.0006994596571421	-0.117989
C	0.0000213092728735 0.6974972351919194 -0.0002893436031622	-0.096022
C	0.0000105324333767 0.6412947678212174 -0.0000345925261446	0.123302
C	-0.0000060442930851 0.5292609378627409 0.0000152077359755	0.068125
C	0.5000103277596699 0.6981553602504430 0.4987616772220647	0.169680
C	0.5000187249256588 0.7543651111726065 0.4990323570460937	-0.114283
C	0.5000270739240064 0.8027049142903211 0.4995861874955190	-0.100080
C	0.5000099460317312 0.8589146051709557 0.4999362528152599	0.124907
C	0.4999927683793974 0.9709176545934730 0.5000305310243387	0.068131
C	0.0000066987830201 0.1981709273130022 0.0012303695433467	0.169492
C	0.0000156448255907 0.2543775071094446 0.0009588163941971	-0.114415
C	0.0000287697765872 0.3027147255627459 0.0004130578611691	-0.099757
C	0.0000124521601578 0.3589179039060917 0.0000633117113899	0.124518
C	-0.0000077504994817 0.4709127584965902 -0.0000283287738255	0.068262
C	0.6981550557502239 0.5000102889786989 0.5012398042026911	0.169738
C	0.7543661458407073 0.5000187750641732 0.5009705249149357	-0.114316
C	0.8027038909268486 0.5000270701536234 0.5004161948427668	-0.100036
C	0.8589144826745064 0.5000098676244116 0.5000657642738381	0.124967
C	0.9709177596274595 0.4999927189559653 0.4999714588281609	0.068162
C	0.1981707177409128 0.0000062714945624 -0.0012285192314602	0.169512
C	0.2543770807026887 0.0000152469144917 -0.0009562849377662	-0.114412
C	0.3027146826891173 0.0000286918241256 -0.0004116142700844	-0.099802
C	0.3589178526084648 0.0000124258952345 -0.0000622320667491	0.124599
C	0.4709125398934070 -0.0000075833530718 0.0000301252612358	0.068235
C	0.3021137374430244 0.4999976425323442 0.4992028342265846	0.172481
C	0.2458831094964525 0.5000110453864082 0.4992724701017585	-0.118021
C	0.1975097825715636 0.5000200622476951 0.4997011757345226	-0.095617
C	0.1413025074310560 0.5000098895492896 0.4999594277227980	0.123069
C	0.0292509800847087 0.4999937774295595 0.5000135367771916	0.068398
C	0.8020962294907255 0.0000012679998987 0.0007787177858679	0.172756
C	0.7458685490458704 0.0000120493488966 0.0007019791647105	-0.118018
C	0.6974972836315487 0.0000209973142789 0.0002915571227483	-0.096010
C	0.6412949335158517 0.0000102000258909 0.0000364360725185	0.123377
C	0.5292609201764994 -0.0000063957226820 -0.0000131571292391	0.068160
H	0.4607760455929919 0.4094813043355318 0.2607339165012008	0.103435
H	0.4584814001205342 0.3104773155758275 0.2524325101689142	0.124202
H	0.9203012717200221 0.6345110696848347 0.8979083461094819	0.111264
H	0.9204741013330221 0.5362816352669333 0.8965552213148581	0.105786
H	0.5390527723783490 0.5908403555824269 0.2596383037950875	0.096844
H	0.5418215538103106 0.6898863011556824 0.2510061852073445	0.122742
H	0.0797041504695090 0.3656546326807272 0.8978982170670416	0.111415
H	0.0795273863927962 0.4639076420919909 0.8965068102776383	0.105771
H	0.5908740865364658 0.4615680771449981 0.2606341091310336	0.104789
H	0.6896883105134861 0.4584681410589468 0.2529186475544250	0.124302
H	0.3656198113793158 0.9203104038575752 0.8979247305079012	0.111707
H	0.4638731412193520 0.9204530252568132 0.8965671705625449	0.106051
H	0.4097485878974572 0.5397651383513697 0.2614690043454851	0.096461
H	0.3105087038458714 0.5417078708890348 0.2513142956877146	0.122682
H	0.6345113731849436 0.0797141730270087 0.8978863237760248	0.110917
H	0.5362823456741250 0.0795151295440540 0.8965282713622077	0.105677
H	0.5397655629716913 0.4097493590943605 0.7385269583349164	0.096398
H	0.5417076131248894 0.3105092807068954 0.7486856012219691	0.122709
H	0.0797144928580034 0.6345113455887504 0.1021167157392136	0.110894
H	0.0795152956496398 0.5362824314337312 0.1034749938212251	0.105692
H	0.4615681814394197 0.5908737781969308 0.7393638535651721	0.104789
H	0.4584681453579575 0.6896878509496904 0.7470814356499683	0.124304
H	0.9203103787951842 0.3656200624374468 0.1020751423858226	0.111708
H	0.9204531253361560 0.4638731703640451 0.1034343038158957	0.106082
H	0.4094823259562139 0.4607755388659189 0.7392616702483253	0.103413
H	0.3104782966275544 0.4584816408983643 0.7475668399619070	0.124223
H	0.6345111513164199 0.9203008736489136 0.1020924729260196	0.111228
H	0.5362816712507738 0.9204737333923975 0.1034454926208229	0.105769
H	0.5908398097292906 0.5390526071300981 0.7403603633649761	0.096863
H	0.6898857965349940 0.5418214174272810 0.7489950135241352	0.122781
H	0.3656547193879321 0.0797042830420695 0.1021026849716110	0.111447
H	0.4639077392254751 0.0795273049825987 0.1034949956303333	0.105772
H	0.5797037172315754 0.8656431550167436 0.6021086256978676	0.111558
H	0.5795180176331529 0.9638967524755259 0.6034777569018337	0.105727
H	0.0390120882294772 0.0908357185814830 0.2402753305316661	0.096933
H	0.0418065180965547 0.1899085156861978 0.2490117873347995	0.122748
H	0.4202924465851742 0.1345202544991187 0.6021076635745164	0.111183
H	0.4204847500923829 0.0362907532387777 0.6034238461017473	0.105806
H	0.9608046602770208 0.9094841561421790 0.2391998867274359	0.103222
H	0.9584909787622321 0.8104592458404336 0.2476132488675513	0.124083
H	0.1345190854198409 0.5797219480901588 0.6021223924304312	0.110864
H	0.0362904106882951 0.5795035608644201 0.6034486575826272	0.105736
H	0.9097373105569625 0.0397347746536904 0.2384616250117261	0.096419
H	0.8104801772470941 0.0416989113859144 0.2487116045828847	0.122840
H	0.8656070396614676 0.4203074820588227 0.6020854579635673	0.111849
H	0.9638609399599358 0.4204624371841736 0.6034163810220190	0.106105
H	0.0908705789925665 0.9616029699591558 0.2393448940747023	0.104699
H	0.1897145321919723 0.9584830743582385 0.2471341201482466	0.124376
H	0.4203074237386826 0.8656069960008388 0.3979166086722604	0.111835
H	0.4204623113352547 0.9638607961474256 0.3965863823854924	0.106112
H	0.9616026915134877 0.0908712037596811 0.7606556546495596	0.104716
H	0.9584829901310996 0.1897151306207246 0.7528669048882348	0.124353
H	0.5797218574888635 0.1345188261850388 0.3978786233958326	0.110861
H	0.5795035215325721 0.0362901660882082 0.3965528661104251	0.105744
H	0.0397343287902756 0.9097370908909237 0.7615392267822775	0.096405
H	0.0416987391481059 0.8104800962228722 0.7512907610009356	0.122800
H	0.8656430729626726 0.5797034950107688 0.3978926987987589	0.111502
H	0.9638966612403269 0.5795178166866798 0.3965238504542725	0.105689
H	0.0908356394801426 0.0390119749587036 0.7597244768322315	0.096910
H	0.1899084521589733 0.0418060453901718 0.7509896442265149	0.122712
H	0.1345202779132955 0.4202924416608407 0.3978930798539199	0.111202
H	0.0362908503207046 0.4204847893274062 0.3965764077951348	0.105817
H	0.9094838546209482 0.9608048159309878 0.7608015598724011	0.103222
H	0.8104590146455829 0.9584908002538549 0.7523880803822198	0.124082
Fe	0.5001712499803067 0.5001709324244026 0.4999865508957325	0.799965
Fe	0.0001647361771617 0.0001651442080729 -0.0000007210228854	0.799925
Al	0.4987145846761158 0.4987153021644214 -0.0000177085771990	1.679703
Al	-0.0013177695067236 -0.0013173340626942 0.5000014148983145	1.677870
F	0.5013602319440245 0.4980872159579537 0.2396265381476474	-0.553051
F	-0.0019595656987613 0.0012739278723587 0.7399118292012337	-0.552742
F	0.4980893817971536 0.5013589662661170 0.7603607167235193	-0.553139
F	0.0012744274694625 -0.0019527093904131 0.2600906654238134	-0.552718
F	0.4501337786219583 0.4501355009374646 0.0000066562640979	-0.638441
F	0.9500698894725368 0.9500679280463871 0.5000064231001861	-0.637801
F	0.4793937379884483 0.5646388234282899 0.0079953422873034	-0.641950
F	0.9793997951919671 0.0646532760497672 0.4921545121654422	-0.641389
F	0.5646403032361210 0.4793977201040510 0.9919698074475201	-0.641946
F	0.0646526400478457 0.9794014128381724 0.5078457397636319	-0.641384
N	0.5000305646269831 0.4132553849690347 0.5006128089347155	-0.242355
N	0.0000279607939610 0.9132278389154347 -0.0005983089182172	-0.241654
N	0.5000363562633939 0.5870636839381281 0.4984368896440007	-0.247032
N	0.0000323954988416 0.0870823715082788 0.0015025778422267	-0.246755
N	0.5870638532592256 0.5000373454761526 0.5015593440415603	-0.246931
N	0.0870823054442279 0.0000321402080007 -0.0015022879220628	-0.246687
N	0.4132554790800622 0.5000294626964803 0.4993812987243093	-0.242198
N	0.9132279236765699 0.0000279359681155 0.0005997708905149	-0.241632
	  	
