#======================================================================

# CRYSTAL DATA

#----------------------------------------------------------------------

data_VESTA_phase_1


_pd_phase_name                         ALFFIVE_2_Fe
_cell_length_a                         14.05837
_cell_length_b                         14.05847
_cell_length_c                         7.71277
_cell_angle_alpha                      89.81828
_cell_angle_beta                       90.18188
_cell_angle_gamma                      89.96305
_symmetry_space_group_name_H-M         P 1
_symmetry_Int_Tables_number            1

loop_
_symmetry_equiv_pos_as_xyz
   x, y, z

loop_
   _atom_site_label
   _atom_site_fract_x
   _atom_site_fract_y
   _atom_site_fract_z
   _atom_site_charge
C	0.5313438013516525 0.7058565564193694 0.1400822873016848	0.103818
C	0.5324492376678790 0.8045093234013325 0.1455781643853795	-0.171607
C	0.4677527748590401 0.2951363108694802 0.1382547197630810	0.095544
C	0.4670012623645803 0.1964106410308049 0.1440810763644589	-0.169812
C	0.2954445220710217 0.5321308873552854 0.1381424267694785	0.100927
C	0.1967816500406450 0.5328656090964096 0.1441766055889012	-0.170571
C	0.7060734853787846 0.4689454666137962 0.1382930973949270	0.092651
C	0.8047841131604686 0.4677571781176710 0.1440862973577385	-0.172104
C	0.4689474479431453 0.7060691614046385 0.8617083204001893	0.092523
C	0.4677602651528176 0.8047789960944605 0.8559146131473769	-0.172170
C	0.5321352271501179 0.2954425836326667 0.8618615401987247	0.100949
C	0.5328691157906360 0.1967798491419566 0.8558241642093226	-0.170680
C	0.7058594559189342 0.5313369054693806 0.8599186969304431	0.103612
C	0.8045132887849252 0.5324439812384522 0.8544223096668144	-0.171399
C	0.2951397241911515 0.4677522634306874 0.8617462760029377	0.095550
C	0.1964140929070073 0.4670015296727570 0.8559159755060157	-0.169925
C	0.4999231327016536 0.1446896667723575 0.0000398628564267	0.166418
C	0.4999886685738222 0.0440216085975170 0.0000649882313319	-0.099000
C	0.5000324318613573 0.8565601228028091 0.0005745511013964	0.166967
C	0.5000110428887011 0.9572244448052691 0.0003828228800516	-0.095386
C	0.8565644993681306 0.5000290685041414 -0.0005745185167678	0.166889
C	0.9572283827786016 0.5000077202614697 -0.0003819431603462	-0.095701
C	0.1446931536109475 0.4999207389085617 -0.0000424106381678	0.166356
C	0.0440255747739241 0.4999845141808509 -0.0000692002512311	-0.098685
H	0.5542692153154325 0.6639061434387744 0.2514701693152716	0.096435
H	0.5584147286087234 0.8408945231737276 0.2607901221200128	0.124330
H	0.4422106165296907 0.3368826116692880 0.2479474725281758	0.101589
H	0.4405522065796568 0.1598129070361301 0.2587098520396016	0.125102
H	0.3377842960869062 0.5577085466628190 0.2471038382055554	0.094653
H	0.1602622726834064 0.5591801848226087 0.2587444607043914	0.124578
H	0.6646150547901367 0.4460274778150375 0.2502850072204202	0.104733
H	0.8411300731721236 0.4417088111261647 0.2595967173832489	0.125833
H	0.4460270734314892 0.6646091823548708 0.7497200899035144	0.104763
H	0.4417145357132113 0.8411245791369493 0.7404009078056559	0.125888
H	0.5577135815356815 0.3377821166687728 0.7529015322181862	0.094674
H	0.5591843946537263 0.1602591262225798 0.7412579682778923	0.124578
H	0.6639108673019171 0.5542614815061149 0.7485271480634023	0.096476
H	0.8408968696412691 0.5584062795802913 0.7392078277813462	0.124282
H	0.3368838028551540 0.4422107128164833 0.7520525577837398	0.101657
H	0.1598179626392116 0.4405491905875417 0.7412869656808155	0.125114
Fe	0.5004697247371181 0.5004702148134509 0.0000073578406001	0.819846
Al	0.4974487739344820 0.4974622785175266 0.4999988564445709	1.671074
F	0.4973307865138162 0.5013858415409053 0.7400601963882908	-0.554779
F	0.5013529633312030 0.4973568937035669 0.2599508962968503	-0.554815
F	0.4630764084313422 0.6155092512497898 0.4936981806535885	-0.630201
F	0.4106244517660956 0.4106696926784389 0.5000126344449873	-0.631134
F	0.6154997133778892 0.4631053312038888 0.5062625941633643	-0.630161
N	0.5000597127402839 0.3444164304277563 -0.0000616807068575	-0.242189
N	0.5001902206324828 0.6567320411536499 0.0011806475454367	-0.247648
N	0.6567349279373581 0.5001861235462782 -0.0011773835113167	-0.247670
N	0.3444184797702322 0.5000569297244521 0.0000644299191028	-0.242171
	  	
