#======================================================================

# CRYSTAL DATA

#----------------------------------------------------------------------

data_VESTA_phase_1


_pd_phase_name                         ALFFIVE_6_Cu_i
_cell_length_a                         17.56961
_cell_length_b                         17.56897
_cell_length_c                         15.67521
_cell_angle_alpha                      90.08392
_cell_angle_beta                       90.08476
_cell_angle_gamma                      89.96152
_symmetry_space_group_name_H-M         P 1
_symmetry_Int_Tables_number            1

loop_
_symmetry_equiv_pos_as_xyz
   x, y, z

loop_
   _atom_site_label
   _atom_site_fract_x
   _atom_site_fract_y
   _atom_site_fract_z
   _atom_site_charge
N	0.2432903728913797 0.1344140799064714 0.1284528008471130	-0.229560
N	0.2579781721850873 0.3659026031939842 0.1286418712472926	-0.227670
N	0.3653868426125131 0.2419856607418818 0.1292157261922667	-0.228841
N	0.1343952372910880 0.2568856370897522 0.1267162619017216	-0.226997
N	0.7580463737521290 0.6343663641221218 0.3706957681166990	-0.228567
N	0.7429900916339347 0.8660691778315384 0.3735362158023136	-0.228100
N	0.6341649696149421 0.7421136515809121 0.3712907922339280	-0.228430
N	0.8654042070503570 0.7569215605966765 0.3717599821608369	-0.227009
N	0.7579737750193888 0.8660245212391446 0.8713552141102944	-0.227481
N	0.7430398311084496 0.6343064382565120 0.8718087652397291	-0.227682
N	0.6342006812490534 0.7570217092414592 0.8735443597981971	-0.228701
N	0.8654405260313335 0.7419312029307641 0.8707216054813759	-0.227833
N	0.2420602852200831 0.3655877895350701 0.6263068164116429	-0.227297
N	0.2588538261680035 0.1349066039760327 0.6290413593912598	-0.225830
N	0.3654665783151232 0.2581521766775423 0.6278413224477248	-0.229941
N	0.1336895982080309 0.2410546921245699 0.6284518025406610	-0.229484
C	0.2055977581494426 0.0977256803617355 0.1906330313433818	0.107812
C	0.1968393118773007 0.0191422595604646 0.1898275479615691	-0.180469
C	0.2309030547253689 0.9761988925954405 0.1247710323682115	0.111782
C	0.2716348995321019 0.0153987184888283 0.0617251434353730	-0.180306
C	0.2753725253484899 0.0943190163820186 0.0648153331358934	0.105811
C	0.2252682473860959 0.8924285843391762 0.1235730352993113	0.061989
C	0.2906490844305497 0.8484727228329088 0.1206944535578598	-0.173270
C	0.2868312961251832 0.7681247845012319 0.1226439443805904	0.082606
C	0.1471725111395442 0.7782545345421503 0.1253539874928835	-0.124080
C	0.1528778833191187 0.8563681658080714 0.1271497358214273	-0.137131
C	0.2952481694328135 0.4021925022055210 0.1918549776507735	0.098960
C	0.3037008108404320 0.4808516867690154 0.1919991999494403	-0.182726
C	0.2698870543157463 0.5241430388616340 0.1270334118009714	0.108676
C	0.2301738261197779 0.4852018208334655 0.0628348862012114	-0.181994
C	0.2266106484679569 0.4061998560536397 0.0646685783167836	0.097632
C	0.2752972111653748 0.6079226845525916 0.1260165960046093	0.063800
C	0.2098290464891841 0.6517402064049203 0.1222783933881229	-0.175601
C	0.2135495199280429 0.7321263372183565 0.1229033570046643	0.085757
C	0.3532339797619562 0.7221343875624304 0.1261302000358685	-0.123193
C	0.3476425131013273 0.6440746459390675 0.1292819211969707	-0.136648
C	0.4016818140860093 0.2039919980275856 0.1916712567804188	0.103102
C	0.4803333687997374 0.1954120091179263 0.1920777547160368	-0.182540
C	0.5237551935201291 0.2298553920167676 0.1277095418012719	0.110558
C	0.4848313700252729 0.2699861201338647 0.0638825191855025	-0.176136
C	0.4058512946871337 0.2736222454056901 0.0657617280532356	0.107480
C	0.6075840172990422 0.2243620532513168 0.1265436608892866	0.062721
C	0.6514125617803365 0.2897858080584808 0.1227738347259030	-0.175007
C	0.7318315331440656 0.2859881929916436 0.1228763185509796	0.085497
C	0.7219491527873559 0.1464051384886650 0.1256260336606749	-0.123604
C	0.6438719103122146 0.1520052728414422 0.1293446452540231	-0.137156
C	0.0975888960593042 0.2941424092700803 0.1893865272121133	0.098799
C	0.0189446560263537 0.3025782501574788 0.1886505754492984	-0.181889
C	0.9760979339719996 0.2687644598673476 0.1232782157856835	0.108901
C	0.0155411149803053 0.2287768781803779 0.0596570624938755	-0.181150
C	0.0945529904524422 0.2251633078611951 0.0624547751115050	0.099857
C	0.8922846086968692 0.2742090001178071 0.1224414521599830	0.064470
C	0.8483342186488891 0.2088534241238216 0.1195685488948278	-0.175555
C	0.7679665136480311 0.2127358656217702 0.1220948993886582	0.084856
C	0.7779514383211228 0.3522950699871434 0.1252581724116220	-0.124513
C	0.8560922206780973 0.3465567726503497 0.1265772552365403	-0.138160
C	0.7960483075008757 0.5981045266022140 0.3082575625232521	0.102239
C	0.8045639268020450 0.5194672650507612 0.3077765572924724	-0.182572
C	0.7701181853884044 0.4761024861643379 0.3721058113252868	0.110934
C	0.7298054309290173 0.5149099205625699 0.4358364486249991	-0.176811
C	0.7262694550320599 0.5938610720292298 0.4340291911434726	0.107912
C	0.7757142917862723 0.3923567018135664 0.3733402473447939	0.062126
C	0.7102281829428374 0.3486615133445861 0.3771533431312374	-0.174733
C	0.7139964176306119 0.2682947859169758 0.3771824581982395	0.084683
C	0.8536889412858403 0.2780811155111187 0.3744022689542758	-0.123595
C	0.8480891903920750 0.3561331206422462 0.3705833082554479	-0.135858
C	0.7058979209455898 0.9029915362127636 0.3108252471024746	0.098900
C	0.6975426331903998 0.9816252408636781 0.3116139057487138	-0.181640
C	0.7312380566684580 0.0242948134585241 0.3771331896517972	0.108178
C	0.7712230545432204 0.9848547996148089 0.4407231518123552	-0.182038
C	0.7747238198313900 0.9058488490581921 0.4378434521424311	0.101643
C	0.7257228445033918 0.1080530681464643 0.3779395603129667	0.064207
C	0.7911423839503187 0.1518807354703692 0.3807484062919871	-0.172978
C	0.7872920972933121 0.2321930842984879 0.3780531003510555	0.084008
C	0.6476121987902824 0.2223014390073861 0.3747823998966777	-0.125571
C	0.6533455105186885 0.1441822127382616 0.3736298168442558	-0.138590
C	0.5978583654159008 0.7047792559996170 0.3081507099879930	0.099841
C	0.5191907714919420 0.6964111655085317 0.3079538341814758	-0.183507
C	0.4758793878828744 0.7302668344963195 0.3728426351491161	0.109089
C	0.5148190925311674 0.7699514666259251 0.4370602777669426	-0.180552
C	0.5938114768340693 0.7735064717360117 0.4352218905050569	0.097231
C	0.3920838017113764 0.7248052460537850 0.3738773177520711	0.062984
C	0.3481808497104327 0.7902221444329818 0.3776873316870717	-0.175846
C	0.2677890257714483 0.7864225532359203 0.3771933698915153	0.085856
C	0.2778978530890057 0.6467921283057662 0.3739771947787551	-0.124305
C	0.3559607348929663 0.6524315572346556 0.3706448532818744	-0.135547
C	0.9021575266480163 0.7947466623531880 0.3097596261181307	0.107051
C	0.9807543504880186 0.8033103242714921 0.3105611637077483	-0.180045
C	0.0236457246634154 0.7690177454590903 0.3755032427354001	0.111996
C	0.9843622525695108 0.7283240873478363 0.4384770572648247	-0.180585
C	0.9054471860095261 0.7247180998807964 0.4353528270877401	0.105856
C	0.1074133728489927 0.7745777649234334 0.3766748257400797	0.061873
C	0.1514480288285953 0.7092269911334749 0.3795559837562439	-0.173944
C	0.2318107323940311 0.7131304618795351 0.3775260131366319	0.083777
C	0.2215747384100460 0.8527276890118052 0.3748165069438238	-0.124404
C	0.1434486063862533 0.8469730841424169 0.3730647977285562	-0.136923
C	0.7951003969504903 0.9021851615890116 0.8081693976986996	0.098480
C	0.8034851171495538 0.9808584439326817 0.8080198978033050	-0.183350
C	0.7698058760508268 0.0242771587980771 0.8729538564230553	0.108612
C	0.7301955058903626 0.9855347842014772 0.9371105546583599	-0.180524
C	0.7266997053102036 0.9065216825691065 0.9352836143530220	0.096725
C	0.7752866193790988 0.1080179664960745 0.8739265489102793	0.063916
C	0.7098354608958329 0.1518492474232673 0.8776248918600896	-0.176460
C	0.7135940476934269 0.2322047266628162 0.8769670480707383	0.085927
C	0.8532653332437907 0.2221581842858686 0.8737450672167493	-0.124253
C	0.8476637211594836 0.1440872775551485 0.8706125104983734	-0.137116
C	0.7052881813730631 0.5974151991686028 0.8095725703415717	0.107568
C	0.6966958903057114 0.5188189614377279 0.8103055473372534	-0.181135
C	0.7309636739667642 0.4761014109007747 0.8753663935786947	0.112593
C	0.7717574648599518 0.5154486511031953 0.9384649748512163	-0.180597
C	0.7753207910097498 0.5943738388510846 0.9354234432160530	0.105631
C	0.7253414306471280 0.3923954888420282 0.8764678666918797	0.061925
C	0.7907530017302162 0.3484879619887533 0.8792791841012364	-0.173924
C	0.7868889237871299 0.2681635057541452 0.8772458051696974	0.084003
C	0.6472245949027960 0.2783150046837350 0.8745875089676972	-0.123572
C	0.6529157217779455 0.3564218792770233 0.8728426150452681	-0.137118
C	0.5971979432425936 0.7940950543321522 0.8108712284491408	0.099948
C	0.5185617582069566 0.8024446360412826 0.8115801098970055	-0.182686
C	0.4759161778288817 0.7687874822794392 0.8769408051660874	0.109000
C	0.5155055986515171 0.7288688344051608 0.9404781746949989	-0.180928
C	0.5945253247873961 0.7253753367042812 0.9377467084458917	0.100862
C	0.3921074943161811 0.7742536456035395 0.8776607189829938	0.064023
C	0.3482020315282242 0.7088864416735272 0.8805098380539483	-0.175470
C	0.2678407972077467 0.7127453114097434 0.8778416857972283	0.085152
C	0.2777623756444207 0.8523601490213214 0.8746070498181956	-0.125671
C	0.3558909030625864 0.8465875838615349 0.8734047280302757	-0.137299
C	0.9015425164173873 0.7038009810165416 0.8082593831356346	0.102294
C	0.9801880937965152 0.6953152283210011 0.8077779937401087	-0.182502
C	0.0237431334252102 0.7299106066270781 0.8721190498623380	0.111200
C	0.9850518784457045 0.7702625566822512 0.9359348653923925	-0.176793
C	0.9060851817737076 0.7738221734879842 0.9341151311639494	0.108035
C	0.1075344900312701 0.7243529626122583 0.8732678701851870	0.062180
C	0.1513130488932417 0.7898041124666432 0.8770133078545757	-0.174439
C	0.2317160577707264 0.7860246128784684 0.8769748923256573	0.084793
C	0.2218716475310585 0.6463742146642011 0.8743328713580377	-0.123284
C	0.1438057085845686 0.6519901920685932 0.8705547492435143	-0.137101
C	0.2051775471617932 0.4027544314845070 0.6889909394421133	0.099219
C	0.1973687605701345 0.4814943467408090 0.6883837463275827	-0.182235
C	0.2311214393879088 0.5240617453637404 0.6229548341477644	0.108965
C	0.2708539084986103 0.4842193288387530 0.5594378047616743	-0.180623
C	0.2739962835711079 0.4051751544912398 0.5622142465069259	0.100057
C	0.2258122757321192 0.6078737293356324 0.6221166991152028	0.063891
C	0.2911834998649290 0.6517910255624664 0.6193417815997154	-0.173932
C	0.2874449934325649 0.7321854881199007 0.6220693320424666	0.084408
C	0.1479316812809961 0.7222795829866141 0.6253082329481493	-0.123006
C	0.1534878238142817 0.6441379386214714 0.6262816418859875	-0.137307
C	0.2971201860970771 0.0988004026726698 0.6914231405829139	0.099771
C	0.3053502391429472 0.0200704571061909 0.6921262811451085	-0.181780
C	0.2705571408805735 0.9763798279448828 0.6279463177800166	0.111269
C	0.2300454978696695 0.0151675187695528 0.5642704686198489	-0.176915
C	0.2266123172974714 0.0941752450452302 0.5659509124537577	0.106967
C	0.2760186913081480 0.8925837118570369 0.6267342950693452	0.061640
C	0.2105568960384635 0.8487937474559339 0.6229932440055459	-0.173799
C	0.2142448412631078 0.7683684585522614 0.6229665484852774	0.083195
C	0.3537939008025631 0.7781764613029816 0.6256896072504980	-0.123924
C	0.3483519780861252 0.8562715457829100 0.6293896018311508	-0.136512
C	0.4024986134218230 0.2960362928532265 0.6898784108082617	0.108792
C	0.4811735240388986 0.3041165572920745 0.6893094274812618	-0.181161
C	0.5237719622801060 0.2694153639697957 0.6244063897472765	0.112070
C	0.4842927175081920 0.2285493662280436 0.5614343451984581	-0.179518
C	0.4053415490002737 0.2253813641046625 0.5644480449416106	0.104638
C	0.6075177036941286 0.2748314921951959 0.6232928339372866	0.062755
C	0.6512464060751210 0.2093335754746948 0.6205794790963411	-0.175107
C	0.7315440328273450 0.2130504347469963 0.6227463900880279	0.083612
C	0.7217139700121056 0.3527824368646589 0.6253957037594384	-0.124040
C	0.6436226988013292 0.3472029296036058 0.6269195984593513	-0.137122
C	0.0974916964620394 0.2039035475076208 0.6916090785531430	0.099710
C	0.0187609475171659 0.1958558968237949 0.6920043393735761	-0.182769
C	0.9753599350739677 0.2297876266367790 0.6271993703134662	0.107293
C	0.0140986263396221 0.2694933118911635 0.5630799614035827	-0.180086
C	0.0931299057017001 0.2727153254220548 0.5647686072130447	0.097777
C	0.8915863604404247 0.2243757869321246 0.6261681179008289	0.063789
C	0.8479224203202459 0.2898934804674765 0.6224262816004354	-0.176026
C	0.7676102651945700 0.2862858180212606 0.6229963682161338	0.086683
C	0.7773421573739907 0.1465594951677337 0.6264214301272870	-0.125079
C	0.8554154788730678 0.1520631244698999 0.6294855731959492	-0.135805
H	0.1846176496522647 0.1329352756297484 0.2428198409714162	0.106670
H	0.1658857361144727 0.9912507262772214 0.2412117279980208	0.115184
H	0.2985464313641088 0.9844704059351931 0.0095351757528113	0.113869
H	0.3034456349617250 0.1276335627004317 0.0154215780087374	0.103140
H	0.3464399147398761 0.8758317792627560 0.1195391847843260	0.107684
H	0.0914906971516547 0.7507048357563760 0.1265650225294918	0.107885
H	0.1018077266558654 0.8917742497769792 0.1294053967355097	0.099886
H	0.3170334644447696 0.3667598200122720 0.2436669455082484	0.108353
H	0.3346777792593190 0.5083734211787779 0.2438290388050860	0.113998
H	0.2039866518121719 0.5161515057505969 0.0101974773012157	0.114939
H	0.2004340608391804 0.3738537991060031 0.0128082681260814	0.110975
H	0.1541073737128308 0.6242389006855301 0.1212068171483699	0.109051
H	0.4088503168894121 0.7498225782034845 0.1270483220838762	0.104662
H	0.3987381150531190 0.6087381075709999 0.1323383401762913	0.101337
H	0.3656056711552685 0.1810876074741467 0.2420609512291435	0.102920
H	0.5078360754402320 0.1638453903576215 0.2433900984282734	0.114274
H	0.5158674022646689 0.2961651466381925 0.0114210291383298	0.114931
H	0.3731107236045409 0.2997653595367566 0.0144952187737719	0.107471
H	0.6238645740274544 0.3455312844025162 0.1220181419168343	0.108950
H	0.7496112089297323 0.0907485802548700 0.1259660661652147	0.106640
H	0.6087822087645932 0.1008272712146141 0.1323123606262965	0.102627
H	0.1323557416552330 0.3149919794956163 0.2422459566057740	0.110496
H	0.9911478091585615 0.3331305060431660 0.2405572581876164	0.114957
H	0.9848241107978930 0.2020864699394823 0.0070729623432873	0.113264
H	0.1276165981139765 0.1975535645563469 0.0121751485456359	0.107847
H	0.8757855667268445 0.1530802806330275 0.1179154267195048	0.107791
H	0.7502797334243591 0.4079474146531828 0.1268010181824470	0.105393
H	0.8914604392312134 0.3976073408559501 0.1290841833974920	0.099658
H	0.8190378378080685 0.6341733314233042 0.2579043748324218	0.103212
H	0.8360511190839032 0.4918521469886495 0.2564723223698612	0.114083
H	0.7034495130972176 0.4837508794406414 0.4881077156658473	0.114936
H	0.7000681868759273 0.6265131199000116 0.4853275897391873	0.106846
H	0.6545056691578673 0.3762667692650524 0.3777827937443455	0.109091
H	0.9093422479482087 0.2503563916747466 0.3740443384702729	0.106452
H	0.8992367559845829 0.3912709547963593 0.3675540310554928	0.102411
H	0.6851381507824534 0.8683545690169585 0.2578289631828046	0.110671
H	0.6671847860234900 0.0096115720375589 0.2596927522221167	0.114520
H	0.7980325861239033 0.0156098842588063 0.4932120923427351	0.113679
H	0.8022773289383269 0.8727750999187390 0.4881553772229696	0.107188
H	0.8468927396332372 0.1243662621596232 0.3823677640514191	0.106899
H	0.5919808534881921 0.2500272382914548 0.3730270270067164	0.106295
H	0.6023315027485965 0.1087626433592836 0.3711142719374906	0.100142
H	0.6333344311896241 0.6828539260165615 0.2564244818589926	0.108308
H	0.4917172910751734 0.6654624564724391 0.2560903418965620	0.114433
H	0.4838327949564039 0.7961802506629464 0.4896440542535107	0.114546
H	0.6261128179495974 0.7997162825089866 0.4871075426565239	0.110957
H	0.3756482757860374 0.8459537448381668 0.3787172821955916	0.109049
H	0.2502440829022236 0.5911431564978131 0.3732267045367832	0.104908
H	0.3912584048664576 0.6013453677514700 0.3674821992577484	0.100956
H	0.8669248105891648 0.8159907876311510 0.2577299931232990	0.105840
H	0.0086750418737622 0.8342839969407064 0.2592105192422420	0.114745
H	0.0152347863394152 0.7012838324811631 0.4906408334714523	0.113994
H	0.8721188594075038 0.6965602740840823 0.4846608894431789	0.102874
H	0.1241315673405987 0.6534187280578985 0.3807657751457781	0.107801
H	0.2490841757922402 0.9084466790728244 0.3736605706689932	0.107953
H	0.1080427434236681 0.8980326732228520 0.3707473644825869	0.099890
H	0.8168905507095695 0.8666694156974424 0.7563691987918274	0.108578
H	0.8342241177677973 0.0083342824769830 0.7561663090720866	0.114515
H	0.7040604046715579 0.0166867649259022 0.9896660548166740	0.114754
H	0.7006442196278135 0.8743564655714198 0.9871799242086218	0.110529
H	0.6541105942736546 0.1243524474263148 0.8787291837780054	0.109215
H	0.9088640071632461 0.2498721791864351 0.8729095755054251	0.105370
H	0.8987416173032543 0.1087562940705566 0.8675811963575963	0.101873
H	0.6840214592583302 0.6324845761178680 0.7574493149829445	0.105795
H	0.6657899661544830 0.4906566198264307 0.7588439029456540	0.114831
H	0.7989044419302747 0.4846079551244155 0.9906077045820437	0.114111
H	0.8034529986853651 0.6278038552484039 0.9848757979978522	0.103110
H	0.8465391865990406 0.3758685044986195 0.8804822040445414	0.107909
H	0.5915601887850207 0.2507312170182634 0.8734497068443178	0.107563
H	0.6018688067449883 0.3918542657598231 0.8705760325123434	0.100019
H	0.6317887473691240 0.8148549237098432 0.7580100786530750	0.110677
H	0.4905488072151767 0.8327979746174591 0.7597132173920474	0.114740
H	0.4849285786662262 0.7021805998373589 0.9929485703780762	0.113492
H	0.6276652348678129 0.6978587608952710 0.9880468923018378	0.107292
H	0.3756571700502253 0.6531281652811096 0.8822495277262996	0.107739
H	0.2500758538689146 0.9080276546125305 0.8730241897661913	0.106303
H	0.3912718360361163 0.8976200003194604 0.8709287563615347	0.099591
H	0.8653438918964733 0.6807473947748761 0.7578706560440519	0.103327
H	0.0076191637700114 0.6637303104971021 0.7564333550986195	0.114241
H	0.0163015564270609 0.7966648182380965 0.9882675494288196	0.115332
H	0.8735081907002548 0.8001617492524198 0.9853623890810899	0.106508
H	0.1237533805521351 0.8455307288030012 0.8777083850937367	0.109065
H	0.2495529500558990 0.5906962132990526 0.8741178837850118	0.106429
H	0.1086769060512995 0.6008199874425838 0.8676476073540395	0.102656
H	0.1841479232926466 0.3682529539668241 0.7418315402495698	0.110798
H	0.1673890388655002 0.5095740491854420 0.7405652623416761	0.114565
H	0.2977969744804610 0.5145547945473822 0.5068926885670192	0.113570
H	0.3014863524992298 0.3719276350531989 0.5119749700512789	0.107037
H	0.3469335854851689 0.6243106222663724 0.6176164009101647	0.107053
H	0.0923856926316681 0.7500788771364553 0.6272088309984892	0.104968
H	0.1023194665251260 0.6089129738047300 0.6285940842313863	0.099914
H	0.3204916122176529 0.1350880998313668 0.7415858608112539	0.104248
H	0.3368824538737087 0.9927709095003507 0.7437038047751962	0.114647
H	0.2032021777767565 0.9840122214703174 0.5120652168504671	0.114776
H	0.1999938393086203 0.1267114189967701 0.5148246015450862	0.107101
H	0.1548275059671987 0.8763655281255978 0.6223229933803517	0.108864
H	0.4093668749384622 0.7503971442793169 0.6262117599491923	0.106599
H	0.3996549167760251 0.8912494020435013 0.6322535351661400	0.102937
H	0.3674963288494123 0.3180141268272418 0.7416881655064064	0.105793
H	0.5095445754907402 0.3348044871748990 0.7407931834728947	0.114902
H	0.5149871945312220 0.2009857636816285 0.5094560118105946	0.114389
H	0.3717883201554683 0.1972272750921815 0.5151252026454083	0.103657
H	0.6237138648515985 0.1536248028633078 0.6195061172596363	0.108339
H	0.7494088007419689 0.4083938767445824 0.6267866394129619	0.107935
H	0.6082108290897362 0.3982455925743205 0.6290530153501644	0.099973
H	0.1329913933019689 0.1817812567510020 0.7432514444885083	0.108677
H	0.9911751725783926 0.1654214498044301 0.7440137667384308	0.114210
H	0.9829343805558660 0.2959906707979318 0.5107554488649970	0.113897
H	0.1252982282423232 0.2989280663973645 0.5129740315367582	0.110483
H	0.8755423128700563 0.3455394139541191 0.6214337512919437	0.108719
H	0.7495152696084555 0.0910054433933040 0.6275551818295360	0.105909
H	0.8907451300120367 0.1009996078080797 0.6325646657841681	0.101195
F	0.2580183736055760 0.1542210518028119 0.3749369430005989	-0.660600
F	0.1589078774167743 0.2986445414011317 0.3801939997337465	-0.646334
F	0.3283877396408723 0.3140143335390358 0.3794537186196125	-0.654094
F	0.6858130012532084 0.6719049285836698 0.1209236238734668	-0.653921
F	0.7020071873402823 0.8412625115806820 0.1201638542576315	-0.646154
F	0.8458547614938035 0.7414018161358557 0.1241157771639993	-0.660618
F	0.6590662524990212 0.7981387817377241 0.6200541068590776	-0.646351
F	0.7582457485437599 0.6539980172804272 0.6232364931133590	-0.660262
F	0.8284470988583711 0.8139679434527368 0.6217433202788354	-0.653617
F	0.1858360200880624 0.1713598603734272 0.8780929694600925	-0.653990
F	0.3454913649607468 0.2417920012276941 0.8768259012742321	-0.661075
F	0.2010798453135797 0.3411632712889124 0.8796311130638218	-0.646305
F	0.2474329693596675 0.2544665458124175 0.2639595632202629	-0.629374
F	0.2489933535421155 0.2489855026129352 0.4924060988325257	-0.630202
F	0.7463267039892676 0.7525227321833907 0.2360423046751886	-0.629691
F	0.7505188854324372 0.7509189532228229 0.0072579767652370	-0.629529
F	0.7476307182627911 0.7530778704295070 0.7360159294799572	-0.629596
F	0.7495538424157369 0.7501616213685796 0.5071746866663771	-0.629649
F	0.2464160193525625 0.2526642990322204 0.7639179542546291	-0.630479
F	0.2489728816248100 0.2509785600427162 0.9925479591291623	-0.629642
Cu	0.2499392340966212 0.2501975950299511 0.1287174968337369	0.743203
Cu	0.7497413873224266 0.7501846774795141 0.3712667684823842	0.744028
Cu	0.7498437768514040 0.7502330382574722 0.8713615739049233	0.743178
Cu	0.2495573550987444 0.2502319075004540 0.6285717223495955	0.744558
Al	0.2485275445592557 0.2539686162291647 0.3781774000663305	1.695808
Al	0.7462190653282481 0.7514066421512806 0.1216014728999079	1.695168
Al	0.7488542309508803 0.7537583415740567 0.6216835054465950	1.694072
Al	0.2456942642289692 0.2513451574440068 0.8780987483188072	1.693963
	  	
