#======================================================================

# CRYSTAL DATA

#----------------------------------------------------------------------

data_VESTA_phase_1


_pd_phase_name                         ALFFIVE_18_Ni
_cell_length_a                         13.93350
_cell_length_b                         13.99079
_cell_length_c                         7.79132
_cell_angle_alpha                      89.87278
_cell_angle_beta                       95.33565
_cell_angle_gamma                      90.00900
_symmetry_space_group_name_H-M         P 1
_symmetry_Int_Tables_number            1

loop_
_symmetry_equiv_pos_as_xyz
   x, y, z

loop_
   _atom_site_label
   _atom_site_fract_x
   _atom_site_fract_y
   _atom_site_fract_z
   _atom_site_charge
F	0.5044950735821890 0.3509670454824081 0.5018947553286758	-0.610233
F	0.5188339786233737 0.4874762172917041 0.7355569167104351	-0.591432
F	0.3833014819551421 0.5202980466430800 0.5114534694305458	-0.579435
F	0.0044063798902523 0.8510005391148133 0.5021874926146582	-0.610649
F	0.0187872307893426 0.9875826505856945 0.7350195490321146	-0.591907
F	0.8832258167183916 0.0204406403467242 0.5112052274669165	-0.580046
F	0.6156039322373668 0.5251112865577140 0.4922036082583841	-0.577169
F	0.4816467820257955 0.4873930370083917 0.2675569394816251	-0.592720
F	0.1154021975099660 0.0252424585708480 0.4921504900959113	-0.577323
F	0.9815692178834355 0.9874020405515603 0.2679171240165367	-0.592495
C	0.6855862212063568 0.1640999660476458 0.6512214187358212	-0.422022
C	0.7578097995193054 0.1541188549154782 0.8028415670921712	0.201233
C	0.7632178825787131 0.1987090998645902 0.9639711528365129	-0.153380
C	0.6928132374244332 0.2642958229842574 0.0259024826555284	-0.146850
C	0.6761779201408938 0.3614336617432224 0.9794754988480099	0.217766
C	0.7312197377726499 0.4220146329869496 0.8650672794548869	-0.427782
C	0.8901952171232853 0.1922672860487188 0.2306784368167591	-0.433810
C	0.8495843124836101 0.1647058644853793 0.0542215767042857	0.217785
C	0.6249218069639911 0.2424373441916060 0.1419936512859784	0.206888
C	0.6013449001950396 0.1504474185461728 0.2246571382534565	-0.427503
C	0.1855896698167813 0.6640864752316820 0.6512759409067437	-0.421874
C	0.2578216682357897 0.6541247524150812 0.8029023165058389	0.200791
C	0.2632492774833198 0.6987215355573262 0.9641002985704381	-0.153228
C	0.1928178359017114 0.7643098093319397 0.0259591761638636	-0.146607
C	0.1761802805403214 0.8614520181020664 0.9794829480319546	0.217946
C	0.2311466979412170 0.9220293857814621 0.8650646015577597	-0.428141
C	0.3901413263966454 0.6921837925645029 0.2307651885241217	-0.434030
C	0.3495951490979498 0.6646703057410355 0.0542977484349426	0.217913
C	0.1249087569457591 0.7424501877678691 0.1420129880374100	0.206688
C	0.1013042194034989 0.6504411564610258 0.2247071319685939	-0.427496
C	0.3116391768027096 0.1668329762505037 0.3504910238210009	-0.421720
C	0.2406354819872261 0.1559648014649632 0.1972115365917271	0.200365
C	0.2367224699655575 0.1985682638730407 0.0339059084089052	-0.153255
C	0.3083764742360796 0.2629364491239695 0.9718246282027401	-0.144694
C	0.3251803102643902 0.3599385179990903 0.0181036542857088	0.217227
C	0.2686527057820754 0.4205858360792517 0.1292756579156444	-0.427076
C	0.1083594358879730 0.1931337349229673 0.7683494141454075	-0.437005
C	0.1497954412211745 0.1654353269488422 0.9445311809518551	0.219025
C	0.3778576747133137 0.2404755502739176 0.8592947249628614	0.204547
C	0.4011922160369823 0.1487950419358189 0.7760361931987098	-0.427073
C	0.8116483770199174 0.6668081179366815 0.3504443480506811	-0.421336
C	0.7406527716839781 0.6559499736319316 0.1972045229834846	0.200579
C	0.7367074583041038 0.6985254270463864 0.0339080782655069	-0.153894
C	0.8083567287731460 0.7629138522001231 0.9718252323159560	-0.144391
C	0.8251541215937447 0.8599307728600356 0.0180618654865278	0.217208
C	0.7686373259746372 0.9205754871087710 0.1291761252421558	-0.427795
C	0.6083370776312639 0.6931504757713639 0.7684221198653781	-0.436440
C	0.6497447458303308 0.6654201869091797 0.9446124224660040	0.219299
C	0.8778408761844246 0.7404775116656428 0.8592466896969556	0.204629
C	0.9011880723375522 0.6487799811886343 0.7759067349591855	-0.427107
H	0.7196672121877457 0.1876978431858692 0.5368479241823455	0.144094
H	0.6313143147686868 0.2175293951269300 0.6775877967757959	0.139468
H	0.6489100490456194 0.0959569657127798 0.6188805926661880	0.133732
H	0.6844472452735817 0.4531197493573021 0.7583449998834119	0.149473
H	0.7872980486199346 0.3789939075824185 0.8121009888725262	0.131843
H	0.7661218910590287 0.4816408846180409 0.9385731523947922	0.130962
H	0.8577467130883056 0.0580775962533045 0.7014106994874362	0.280075
H	0.8737579226349544 0.1385705415356767 0.3267230000281298	0.143174
H	0.8590827212656166 0.2609212544814974 0.2654059438347685	0.128911
H	0.9689249689849327 0.1993185744259761 0.2370748041615466	0.141241
H	0.5625729240967854 0.1626243862500369 0.3387724904326748	0.141731
H	0.6666949888423132 0.1089075254961590 0.2620706670618515	0.149230
H	0.5549593878781488 0.1063339166132098 0.1341963315915281	0.132785
H	0.5253263995440806 0.3369366540568041 0.2469075628663686	0.274313
H	0.2196369401020442 0.6877272288128718 0.5368838629534299	0.144073
H	0.1313283903938021 0.7174825045852505 0.6777772065888773	0.139432
H	0.1489462551272090 0.5959285016127160 0.6189216682968789	0.133713
H	0.1844221522211736 0.9530838771604458 0.7583168708464650	0.149785
H	0.2872352291568638 0.8790594356571977 0.8121911960675799	0.131872
H	0.2660265650445793 0.9816393170373525 0.9385186819785398	0.130982
H	0.3577822352738899 0.5580782014308574 0.7014529384286062	0.280275
H	0.3737774996357424 0.6384635464136289 0.3268575452283627	0.143375
H	0.3590522789377372 0.7608678553240243 0.2654746628978223	0.128899
H	0.4688585825022696 0.6993182065444208 0.2370886101676782	0.141255
H	0.0625175506973575 0.6626948098002058 0.3388229110060622	0.141807
H	0.1666984707072642 0.6089003018753960 0.2621385650025146	0.149210
H	0.0549104385817340 0.6063340803684711 0.1341567030369975	0.132930
H	0.0253553066931520 0.8369395607822590 0.2468195978789988	0.274229
H	0.2753958536923850 0.1860851028810267 0.4648655566128296	0.144442
H	0.3634158108162108 0.2235492756800292 0.3281773152351276	0.141252
H	0.3516907776684459 0.1001556693345347 0.3805708403011722	0.132408
H	0.3150637501032848 0.4563048073139027 0.2310379531439457	0.149479
H	0.2157856415924656 0.3761449167123547 0.1884889369453236	0.131623
H	0.2293458734005231 0.4765028319687314 0.0518580516610216	0.130777
H	0.1393208836113846 0.0623351458118161 0.3011236057620972	0.279566
H	0.1240187911567378 0.1397000551504658 0.6718541282310352	0.145511
H	0.1389219059973296 0.2619930184054677 0.7327481557999737	0.128612
H	0.0296699890120770 0.1998979115665572 0.7640701047031323	0.141372
H	0.4422458779599514 0.1613324926480942 0.6646692289172876	0.141029
H	0.3354610245949329 0.1090555595321590 0.7336730819092890	0.149264
H	0.4450103537765453 0.1026210017401568 0.8672515377944273	0.133059
H	0.4806323047338786 0.3342001098145873 0.7600291344966233	0.273947
H	0.7754487742098749 0.6860147714590019 0.4649096050259418	0.144077
H	0.8634259027704393 0.7235081714589647 0.3281454972125397	0.141188
H	0.8516948036344978 0.6001263484906216 0.3804858512594707	0.132453
H	0.8150167831230346 0.9563210732666469 0.2308918009176121	0.149695
H	0.7158033361895029 0.8761412348065255 0.1883888790750401	0.131830
H	0.7292776532510413 0.9764487489664724 0.0518160893631747	0.130825
H	0.6393769481209030 0.5622851305338671 0.3012061917719436	0.279825
H	0.6239412548623747 0.6396685480647477 0.6719466085476340	0.145148
H	0.6389039842157143 0.7620211931638344 0.7327747481359659	0.128573
H	0.5296567168404619 0.6999875109820880 0.7642491792531358	0.141130
H	0.9422192692172272 0.6613995224656208 0.6645033366127248	0.141085
H	0.8354041462659019 0.6090518148184498 0.7335956186997655	0.149254
H	0.9450234340382702 0.6026326472116857 0.8671959467564330	0.133156
H	0.9805152692466745 0.8341963460131815 0.7599826474123369	0.273969
N	0.8357121594429474 0.0968973780897662 0.8040100170947240	-0.153945
N	0.6026839760302000 0.3958809869147387 0.0615733394094583	-0.258606
N	0.8924717082249679 0.1022453747026769 0.9546573230234565	-0.252922
N	0.5737767223763606 0.3230533066652594 0.1593688672370358	-0.147614
N	0.3356959384266193 0.5969081368504295 0.8040189177598321	-0.153995
N	0.1026152993615743 0.8958997924133784 0.0614289755038510	-0.258316
N	0.3924954538646288 0.6022986208067852 0.9545911547738123	-0.253196
N	0.0737620350336782 0.8230889201072610 0.1593091327154308	-0.147921
N	0.1617358022037067 0.1002257087601281 0.1974602586625767	-0.154387
N	0.4003099619085702 0.3937771841333692 0.9399065649235410	-0.256467
N	0.1055761226866308 0.1048026977564191 0.0461834943623138	-0.254972
N	0.4302338178915831 0.3207036440777662 0.8442245071065522	-0.146762
N	0.6617627132482635 0.6001988444562302 0.1975328531451542	-0.154434
N	0.9002653525475479 0.8938181069387139 0.9398449704379880	-0.256185
N	0.6055569320482321 0.6047756028628289 0.0462860762290851	-0.255462
N	0.9301306767361840 0.8207597746881271 0.8441136770468537	-0.146946
Al	0.5004053603796454 0.4754117196296130 0.5018194704829915	1.660458
Al	0.0003336430428570 0.9754909945927395 0.5016090130881825	1.661260
Ni	0.5000946989938760 0.5029763312521442 0.0007493468962134	0.810779
Ni	0.0000752014682295 0.0030179028268777 0.0007988302884921	0.810245
	  	
