#======================================================================

# CRYSTAL DATA

#----------------------------------------------------------------------

data_VESTA_phase_1


_pd_phase_name                         ALFFIVE_18_Cu
_cell_length_a                         13.52711
_cell_length_b                         13.93705
_cell_length_c                         8.22302
_cell_angle_alpha                      90.33945
_cell_angle_beta                       94.44606
_cell_angle_gamma                      90.05806
_symmetry_space_group_name_H-M         P 1
_symmetry_Int_Tables_number            1

loop_
_symmetry_equiv_pos_as_xyz
   x, y, z

loop_
   _atom_site_label
   _atom_site_fract_x
   _atom_site_fract_y
   _atom_site_fract_z
   _atom_site_charge
F	0.4947049813688439 0.3416749792880205 0.4716306663788385	-0.619669
F	0.5251024809700175 0.4611946435790593 0.7102725634989200	-0.622029
F	0.3871727164642146 0.5257839187789711 0.5225214528042265	-0.586602
F	0.9946071457929976 0.8416094961884466 0.4712812305499264	-0.619521
F	0.0250767577466468 0.9608637239460368 0.7102801588211010	-0.621689
F	0.8870493365166303 0.0256610637789721 0.5223557639674176	-0.586334
F	0.6172542029220356 0.5214601616898112 0.4798380518044299	-0.588551
F	0.4759991712690187 0.4836375772835105 0.2766189055684452	-0.624073
F	0.1172071077377565 0.0216723742326237 0.4797550924167701	-0.588258
F	0.9761765532973948 0.9836338477488590 0.2767203850306164	-0.624240
C	0.6920426398792138 0.1711279548860279 0.6572806177130608	-0.422379
C	0.7622094213450106 0.1578989902981680 0.8039585077866918	0.205730
C	0.7644403446674531 0.1992980320870700 0.9599140976164655	-0.149814
C	0.6922021091362351 0.2650169853950105 0.0217978084665658	-0.147440
C	0.6752728353521361 0.3622537804171302 0.9787944780583600	0.221248
C	0.7323216284652965 0.4221979756154120 0.8691074786388168	-0.434414
C	0.8888433256756965 0.1868615040024945 0.2166526349523165	-0.437919
C	0.8505809660696988 0.1625599098332098 0.0467749449982662	0.217630
C	0.6244540186747559 0.2441193912956731 0.1375197421440127	0.213522
C	0.6055915181927405 0.1543327670028453 0.2274604579117144	-0.429487
C	0.1920137712017015 0.6712024707498166 0.6573857514550194	-0.422906
C	0.2622304335325019 0.6579760015309998 0.8040276439416836	0.206292
C	0.2644945219003781 0.6993589480704584 0.9600075015185339	-0.150767
C	0.1922013766192446 0.7650017818910051 0.0218555076514438	-0.147187
C	0.1753210467566825 0.8622532274658055 0.9788948559289615	0.220735
C	0.2323187297182248 0.9222715344158436 0.8692291108748863	-0.434067
C	0.3888846568706559 0.6868633657516677 0.2166541095954490	-0.438422
C	0.3506244652809892 0.6625464085830399 0.0467824001417460	0.217960
C	0.1244332040963399 0.7440995034649716 0.1375662717448548	0.213682
C	0.1055758681423916 0.6543199690589641 0.2274918132269028	-0.429970
C	0.3077096232688603 0.1740117984218455 0.3429111664452669	-0.428674
C	0.2376298720832838 0.1586667416237741 0.1964298251563636	0.206733
C	0.2357133951211470 0.1974317519109799 0.0391882847284284	-0.148849
C	0.3074252517533987 0.2635755684630850 0.9776751294823931	-0.146102
C	0.3239414097454749 0.3603681032089775 0.0260270209864903	0.220608
C	0.2672157089656711 0.4184257493478072 0.1395676939603522	-0.433656
C	0.1103335863548503 0.1800998208818031 0.7831197460940754	-0.439654
C	0.1493999967581166 0.1595116941342839 0.9534981410447402	0.213690
C	0.3756193043863034 0.2444022060314663 0.8612324977055652	0.213651
C	0.3962189713530648 0.1554335545462427 0.7683759832734923	-0.428457
C	0.8077279780834169 0.6739065042613972 0.3429346140122785	-0.427697
C	0.7376450957863188 0.6586732428229124 0.1963518942987078	0.206101
C	0.7356980828911607 0.6974408093737408 0.0391203448820871	-0.149197
C	0.8074961552933827 0.7635126957911333 0.9776816290205022	-0.146053
C	0.8239657514645472 0.8603127544288799 0.0260796045424095	0.220705
C	0.7672622000515145 0.9184435694432422 0.1395737204898087	-0.433574
C	0.6103981790354266 0.6801211999829413 0.7830709550773145	-0.439060
C	0.6493957849707460 0.6594795810359345 0.9534531908864600	0.213410
C	0.8756832785261210 0.7443456979304433 0.8612182039727928	0.213555
C	0.8962833493756136 0.6554270622862622 0.7682394648186465	-0.428119
H	0.7319908227180434 0.1887640055270270 0.5500665332477462	0.146932
H	0.6399821391097691 0.2294743519683807 0.6772518399352107	0.145125
H	0.6490526339899974 0.1054226179542832 0.6276337197407612	0.135441
H	0.6852830727971810 0.4482317049911386 0.7638304127823894	0.155610
H	0.7935600151603269 0.3800502183489188 0.8254391980086984	0.132694
H	0.7636725028132334 0.4852883171849919 0.9356269559566150	0.131590
H	0.8652626369113730 0.0616403338131147 0.7041869614636662	0.285727
H	0.8740791212344617 0.1296280533559660 0.3027855738521869	0.147865
H	0.8534590163616840 0.2531665174603907 0.2554449878821606	0.131912
H	0.9694150395212640 0.1975308612856471 0.2241039821173012	0.143442
H	0.5659025274016951 0.1702511125821489 0.3357325768383045	0.146636
H	0.6751980779933996 0.1177710909864613 0.2660641953411517	0.149366
H	0.5602268218660659 0.1038520120841946 0.1497910919462165	0.135380
H	0.5232559902393985 0.3391090762970893 0.2433696816341450	0.278147
H	0.2319425002191415 0.6887948896668088 0.5500693712819539	0.147075
H	0.1399786092747060 0.7295671216900026 0.6774725241121976	0.145268
H	0.1490503702848126 0.6054507321809476 0.6277791875719395	0.135345
H	0.1852832232097560 0.9482510575816796 0.7639080836921159	0.155222
H	0.2935417776318523 0.8801845344876676 0.8255213079987170	0.132755
H	0.2636699692716742 0.9853842959277009 0.9356327334567620	0.131454
H	0.3652328445904058 0.5616967686713028 0.7042164156992252	0.285860
H	0.3742331598309825 0.6296101804451266 0.3028236598540218	0.148166
H	0.3534822442929967 0.7531621994675221 0.2555398125626748	0.131900
H	0.4694413372803535 0.6975285137968958 0.2240700147984152	0.143378
H	0.0658194022341595 0.6702426012921551 0.3357361867001884	0.147000
H	0.1752597528114001 0.6178377826800063 0.2660247215829817	0.149423
H	0.0603055940200613 0.6038534456354268 0.1496496267505033	0.135453
H	0.0233038901298916 0.8391459033442613 0.2433473868071746	0.278255
H	0.2671782008151514 0.1825535473896117 0.4526853094128676	0.146542
H	0.3532746493915492 0.2382237806128214 0.3298554309844424	0.149214
H	0.3577806729282421 0.1124010969566417 0.3635483998736022	0.135370
H	0.3160752722136521 0.4502021858415908 0.2381225367405307	0.152775
H	0.2116455866718947 0.3732544834986348 0.1924574585546071	0.134554
H	0.2285066503416842 0.4774858512226838 0.0733935393066218	0.132559
H	0.1351702581970371 0.0623582452183843 0.2968666217379405	0.284730
H	0.1207279201782298 0.1191471338734053 0.7008756345436858	0.146754
H	0.1489860938467697 0.2427770267141222 0.7380408008175277	0.132944
H	0.0305049175898779 0.1954234382181267 0.7776165022643549	0.142316
H	0.4337908488307702 0.1726088909343923 0.6586296742980237	0.145512
H	0.3274004967112809 0.1166805363566423 0.7315692585827845	0.151004
H	0.4441144538001736 0.1061092097625302 0.8430991878909840	0.135767
H	0.4782145595691709 0.3455283565172672 0.7659190314945787	0.281952
H	0.7671877659633144 0.6824774100726287 0.4527491372832345	0.146457
H	0.8533948496614162 0.7380707288944346 0.3299405022256123	0.149027
H	0.8578050231618900 0.6122290608247306 0.3635747127510660	0.134980
H	0.8161147374226325 0.9502368824969831 0.2381301907366183	0.152617
H	0.7117005620529295 0.8733104326707228 0.1924938154491756	0.134487
H	0.7284912803885932 0.9774765973558224 0.0734626858347205	0.132559
H	0.6351667337614326 0.5624025296288887 0.2967711243433377	0.284552
H	0.6206647765736476 0.6191380885241187 0.7007521689565028	0.146880
H	0.6491076192587086 0.7427850094438736 0.7379859120545044	0.132749
H	0.5305950753291224 0.6955793310790334 0.7777102403443900	0.142095
H	0.9338262609414255 0.6727015909717302 0.6584983546457875	0.145599
H	0.8274618545369554 0.6166589605981918 0.7315509744955928	0.150927
H	0.9441990909712855 0.6061740574785587 0.8429960003566077	0.135790
H	0.9781939570314536 0.8456405319385764 0.7660129049030387	0.282048
N	0.8416437380622965 0.0993796164902406 0.8040834542680666	-0.154059
N	0.6005026044297385 0.3970651318840279 0.0610030342990956	-0.241585
N	0.8961923654664403 0.1014855007593149 0.9494414208121562	-0.239805
N	0.5713627175004453 0.3246652751995481 0.1556902146886465	-0.147736
N	0.3415902711284731 0.5993885661102031 0.8041371020227133	-0.153966
N	0.1006064076769561 0.8970876931260524 0.0611305858239144	-0.241311
N	0.3961951020092412 0.6014623532610007 0.9494205950548027	-0.239958
N	0.0714480526833975 0.8246937989762989 0.1557768718742155	-0.147896
N	0.1579910785481055 0.1004207047859733 0.1976678539842086	-0.151114
N	0.3982816698902322 0.3968045686179739 0.9455037888257621	-0.241969
N	0.1036803817960510 0.1002131072684154 0.0523147156342401	-0.237379
N	0.4278877751057158 0.3258811136924455 0.8471918881536997	-0.150619
N	0.6579942702191612 0.6004195050770891 0.1976155110856049	-0.150980
N	0.8982660470366655 0.8967507987121366 0.9455301343246777	-0.242434
N	0.6036519097089358 0.6001955451237573 0.0522901315506991	-0.236900
N	0.9278826778124504 0.8258583345062387 0.8471925900147750	-0.150581
Al	0.5000625603924596 0.4671412997156771 0.4928762213617075	1.658382
Al	-0.0000067851525659 0.9671012385460889 0.4928749179550644	1.657968
Cu	0.4988808324167900 0.5016002732346841 0.0048132918544759	0.743157
Cu	-0.0011189260026530 0.0016881138533584 0.0047302778286946	0.743177
	  	
