#======================================================================

# CRYSTAL DATA

#----------------------------------------------------------------------

data_VESTA_phase_1


_pd_phase_name                         ALFFIVE_15_Zn_i
_cell_length_a                         29.89514
_cell_length_b                         29.08559
_cell_length_c                         7.94796
_cell_angle_alpha                      89.99979
_cell_angle_beta                       90.00053
_cell_angle_gamma                      89.99995
_symmetry_space_group_name_H-M         P 1
_symmetry_Int_Tables_number            1

loop_
_symmetry_equiv_pos_as_xyz
   x, y, z

loop_
   _atom_site_label
   _atom_site_fract_x
   _atom_site_fract_y
   _atom_site_fract_z
   _atom_site_charge
C	0.9328737847455910 0.1022092998969178 0.8962464376194004	0.093559
C	0.9008018749774848 0.0677141558119387 0.9019874384592752	-0.167549
C	0.7699493965573017 0.9362674783911571 0.9036037316223533	-0.116168
C	0.7357957292177356 0.9040919364031792 0.9033644514061145	-0.116675
C	0.5685788990488214 0.7421198979724877 0.8961310753644453	0.090956
C	0.6021271932543670 0.7750955492279209 0.9016377235675459	-0.171208
C	0.4334566785433668 0.6021519785735256 0.8959698348713426	0.101524
C	0.4012604391475492 0.5677753222083678 0.9020048940040600	-0.168676
C	0.2699320185300716 0.4362836934356684 0.9034771933419650	-0.114806
C	0.2357832874060355 0.4040942074323945 0.9032396328058735	-0.116605
C	0.0686163749845805 0.2415419694103629 0.8958520834893272	0.100839
C	0.1020643280002153 0.2746171003976398 0.9016383133945017	-0.172080
C	0.0670591748006970 0.8973335021820925 0.3959710467449920	0.105121
C	0.0988255255813569 0.9321256059285936 0.4020059122296590	-0.169613
C	0.2301073833716263 0.0636620843480249 0.4034601857271775	-0.114357
C	0.2642727147291333 0.0958346654693788 0.4032263828433276	-0.116259
C	0.4318701238460753 0.2579701452439370 0.3958564840532872	0.100650
C	0.3980445288235169 0.2253038476113639 0.4016404158949983	-0.171106
C	0.5670117111829771 0.3979141446970033 0.3962618087128303	0.093065
C	0.5988679950340260 0.4326228919275441 0.4020019162035742	-0.167143
C	0.7301133771200502 0.5636506671904326 0.4036051789022825	-0.115850
C	0.7642858335590065 0.5958004660881656 0.4033731325880271	-0.116702
C	0.9312612733841593 0.7580355842298694 0.3961391667276772	0.089592
C	0.8975320821938461 0.7252513182627213 0.4016494320966513	-0.171312
C	0.0670115935230065 0.1027029687341260 0.6040016480739565	0.104568
C	0.0987621831397966 0.0679155245719286 0.5979494895972857	-0.170157
C	0.2299078508774123 0.9364669852033332 0.5964479840991297	-0.115026
C	0.2640474121879978 0.9042815828947167 0.5967150855582475	-0.116608
C	0.4313786571691494 0.7421559482370200 0.6039114263819112	0.090832
C	0.3978263548327092 0.7751586241242128 0.5984013704785019	-0.170931
C	0.5665070880291958 0.6021989947020149 0.6040009984564878	0.101875
C	0.5986929141310234 0.5678376879814089 0.5979589463081399	-0.169349
C	0.7299051811987144 0.4364633495214688 0.5964223105909345	-0.114985
C	0.7640788263552452 0.4043170980675752 0.5966975127327030	-0.116031
C	0.9312216411660842 0.2420009362534169 0.6038912361096694	0.090321
C	0.8974741692113080 0.2747868124315027 0.5983918881757571	-0.171681
C	0.9328284359442202 0.8978295424453389 0.1037907455226009	0.093743
C	0.9007380807380999 0.9323318725908656 0.0980636788741733	-0.167509
C	0.7697432580515728 0.0638689152568348 0.0964783501109851	-0.115411
C	0.7355677383292802 0.0960214758837336 0.0966952852016025	-0.116068
C	0.5680880128167266 0.2580222605062407 0.1040982243702930	0.101088
C	0.6019059115806821 0.2253688041793780 0.0983170597843938	-0.171756
C	0.4329438445987169 0.3979496766700943 0.1037828847343573	0.093635
C	0.4010848839297780 0.4326787446224339 0.0980459626533994	-0.166583
C	0.2697193452188148 0.5638319147030865 0.0964873001603937	-0.116107
C	0.2355799666696884 0.5960211722768520 0.0966987794638866	-0.115703
C	0.0685658842388079 0.7585006619039675 0.1041133033544690	0.100616
C	0.1019981745359909 0.7254270264022682 0.0983131392460176	-0.171445
C	0.0670589129656789 0.8973328627400107 0.1040291657760571	0.105168
C	0.0988251819622748 0.9321251543603729 0.0979932860162604	-0.169673
C	0.2301071461502563 0.0636618244598570 0.0965375485609067	-0.114226
C	0.2642724634866705 0.0958344121024969 0.0967720189079971	-0.116227
C	0.4318699573893087 0.2579701967078115 0.1041429520330441	0.100530
C	0.3980443446487855 0.2253039775411383 0.0983568641146435	-0.171044
C	0.5670116403450206 0.3979138095230027 0.1037402445302686	0.093053
C	0.5988679961263944 0.4326224859153053 0.0980009772427717	-0.167214
C	0.7301130344326678 0.5636502634805116 0.0963940001445075	-0.115709
C	0.7642853556275917 0.5958001817748955 0.0966258903703440	-0.116834
C	0.9312619263601166 0.7580353158726164 0.1038646012242562	0.090077
C	0.8975322058484345 0.7252513144912132 0.0983518217092196	-0.171354
C	0.9328734167098488 0.1022086789208129 0.6037483603969709	0.093522
C	0.9008013760411231 0.0677136745120120 0.5980098902298123	-0.167595
C	0.7699496544204808 0.9362669797346438 0.5963955807619610	-0.116116
C	0.7357958677898569 0.9040919201636446 0.5966336177530680	-0.116758
C	0.5685784597502227 0.7421199466015580 0.6038735523874968	0.090972
C	0.6021267561084325 0.7750955357998888 0.5983666910144870	-0.171252
C	0.4334564701915061 0.6021518822367549 0.6040265360672492	0.101584
C	0.4012602238762339 0.5677752049973619 0.5979910526469411	-0.168681
C	0.2699317732889762 0.4362839388426302 0.5965239247302067	-0.114760
C	0.2357829203264156 0.4040942463316847 0.5967616905897231	-0.116628
C	0.0686165519893635 0.2415416858222250 0.6041456910416475	0.100771
C	0.1020643786180108 0.2746169786780763 0.5983613255406471	-0.171992
C	0.9328289390384791 0.8978293809802593 0.3962159357543564	0.093691
C	0.9007384978314522 0.9323316654913408 0.4019404281721544	-0.167448
C	0.7697436075163097 0.0638685626236477 0.4035208165410337	-0.115449
C	0.7355681666878046 0.0960212270087787 0.4033026535900922	-0.116135
C	0.5680885273147614 0.2580216334107848 0.3959006397893458	0.101203
C	0.6019063829026740 0.2253682503742712 0.4016822211597082	-0.171877
C	0.4329443622980423 0.3979496379766180 0.3962184122732765	0.093531
C	0.4010853146834217 0.4326787346279098 0.4019525252683303	-0.166581
C	0.2697198295876577 0.5638314966805196 0.4035099558258586	-0.115992
C	0.2355804440459943 0.5960207096100508 0.4032979865562324	-0.115959
C	0.0685664677546921 0.7585000745508853 0.3958883928622338	0.100598
C	0.1019987688578467 0.7254264938615799 0.4016902033271890	-0.171407
C	0.0670114648021554 0.1027025694288894 0.8959939903701516	0.104499
C	0.0987622158489328 0.0679153207598604 0.9020491402322516	-0.170255
C	0.2299081787095072 0.9364666432021911 0.9035494912428603	-0.115136
C	0.2640477425738976 0.9042812528395814 0.9032841263002722	-0.116620
C	0.4313788065432919 0.7421555399662900 0.8960893968103446	0.090855
C	0.3978260678821051 0.7751580930578175 0.9015988970461067	-0.170835
C	0.5665072763318978 0.6021985219894291 0.8959977386282143	0.101940
C	0.5986932056098416 0.5678372654393047 0.9020411192475665	-0.169488
C	0.7299055761392705 0.4364629488742149 0.9035750558256934	-0.115083
C	0.7640792251974722 0.4043166965908640 0.9033013154229685	-0.116037
C	0.9312218507641736 0.2420000339740911 0.8960998006259655	0.090517
C	0.8974743586194369 0.2747858144005801 0.9016011056157948	-0.171721
C	0.6539931421111542 0.8257333386331972 0.7500014486701323	-0.102960
C	0.8840461525752528 0.0498387302167355 0.7499989907277451	0.159761
C	0.8217691285905759 0.9859353830014369 0.7500001584061307	-0.102490
C	0.6197308489368519 0.7923342718536938 0.7500021804780644	0.166551
C	0.7874333183152126 0.9527614175640587 0.7500004698400029	0.126928
C	0.7182414886063785 0.8874689150925794 0.7499986010457089	0.138324
C	0.6837092692677277 0.8544755578703492 0.7499992371142180	-0.104968
C	0.8509631987096870 0.0152359393869536 0.7500000782526948	-0.103123
C	0.1537832269368314 0.3256141868513733 0.7500005736938965	-0.106550
C	0.3843137589582968 0.5499948970930620 0.7499978494128635	0.160994
C	0.3217925195057493 0.4862023020201567 0.7500008415666971	-0.099165
C	0.1196002026858714 0.2920380477371181 0.7500001257678381	0.170766
C	0.2874545915606046 0.4528877621515168 0.7500005165018087	0.128396
C	0.2181316357083311 0.3874225372634465 0.7500004542640080	0.138601
C	0.1835004798774080 0.3543969746709970 0.7499993389940894	-0.100444
C	0.3510207598193705 0.5155091741352615 0.7499982156886286	-0.103705
C	0.3458494452967976 0.1748073716839475 0.2499981006104670	-0.104453
C	0.1154602542502553 0.9502171938842788 0.2499989632769734	0.162187
C	0.1779412043103111 0.0140591472416353 0.2499990233745387	-0.099705
C	0.3802212464589082 0.2081879724352359 0.2499980919522761	0.168450
C	0.2125069804694507 0.0471307049607508 0.2499988138205063	0.126553
C	0.2818741745590991 0.1125737661775393 0.2499992263439363	0.138564
C	0.3163079564052024 0.1458287342620666 0.2499988464389194	-0.100575
C	0.1485416185105116 0.9849224460385783 0.2499992898772352	-0.104945
C	0.8457290932038168 0.6745519561402697 0.2499993418007529	-0.102801
C	0.6155482957940097 0.4505656268222569 0.2500012509906726	0.158787
C	0.6781024519743279 0.5141883421664968 0.2499999518043417	-0.103128
C	0.8798970559452014 0.7080526624889582 0.2499988980057903	0.167105
C	0.7126056991810321 0.5471851008467247 0.2499996354211164	0.127085
C	0.7818336592048770 0.6124265051897821 0.2499993445851282	0.140095
C	0.8162359560683998 0.6455652900660395 0.2499993321077769	-0.105023
C	0.6486914652053769 0.4851141922344578 0.2500014769456237	-0.104860
C	0.3459106163814244 0.8258233957265907 0.7499979972317863	-0.099764
C	0.1153794939674133 0.0498443882238117 0.7499997542918172	0.162872
C	0.1778568878391555 0.9860502942720722 0.7499986216207116	-0.099079
C	0.3802053535172394 0.7924129904349215 0.7499989475434838	0.164734
C	0.2123658311333741 0.9529793357379944 0.7499984731678704	0.125525
C	0.2816322108291554 0.8876013967541082 0.7499999303849225	0.141068
C	0.3161684575914480 0.8545616322433096 0.7500003098581336	-0.107320
C	0.1484467233745316 0.0151568008750338 0.7500006804841023	-0.107920
C	0.8456280050946857 0.3255253765150288 0.7499979258776516	-0.102404
C	0.6156176281308615 0.5500650821329710 0.7500002897488640	0.162570
C	0.6780619750380811 0.4862513065641663 0.7499985636917441	-0.097769
C	0.8798136807373119 0.2920054917911875 0.7499963496200458	0.166626
C	0.7124047575666917 0.4530005754454336 0.7499985031086671	0.127261
C	0.7816776504122117 0.3876624973191262 0.7499996005858877	0.139178
C	0.8161307137697914 0.3545260844727974 0.7499995582618543	-0.105362
C	0.6488651606042484 0.5155757326173827 0.7500001907477920	-0.105934
C	0.6540523144745918 0.1749066994271557 0.2499987253846969	-0.107361
C	0.8839617274514331 0.9502263618092593 0.2500012007881845	0.160233
C	0.8216773906626044 0.0141829842875808 0.2500003748373278	-0.102422
C	0.6197054837428209 0.2082685504639289 0.2499993180387212	0.170169
C	0.7872834267212602 0.0473542626300933 0.2499998889130660	0.126813
C	0.7179981552469523 0.1127092202599609 0.2499986503766599	0.136466
C	0.6835675288035912 0.1459184594807939 0.2499979619378769	-0.099372
C	0.8508592220291445 0.9848488853193224 0.2499998828091422	-0.101205
C	0.1536792042924412 0.6744704725893534 0.2500003434340858	-0.107266
C	0.3843850625923534 0.4506400425796991 0.2499993588605145	0.157562
C	0.3217576578639977 0.5142510071345144 0.2499995494999750	-0.103013
C	0.1195104738638662 0.7080274772896858 0.2500009432942443	0.169423
C	0.2872520501964736 0.5473048295805557 0.2499987705110351	0.127042
C	0.2179801831409570 0.6126729854147325 0.2499983267259904	0.138536
C	0.1833980650873792 0.6457070949533955 0.2499986781632976	-0.098930
C	0.3512051230526511 0.4851958808474137 0.2499990369225078	-0.103598
H	0.9468606393858597 0.1162539815581122 0.0119127163780475	0.103400
H	0.8889386811458431 0.0545005251089791 0.0222126179442573	0.119028
H	0.7837280646068577 0.9492647162838702 0.0213364881692530	0.106207
H	0.7220211794989806 0.8911824831504400 0.0210879094941801	0.114868
H	0.5549473120877273 0.7277562971739675 0.0118290792936006	0.103443
H	0.6148645904499013 0.7872007030815694 0.0220053656936886	0.123984
H	0.4476940281641849 0.6164065154174148 0.0107769196422746	0.099212
H	0.3893566421085739 0.5546841696880317 0.0223719377783376	0.119779
H	0.2836749733389801 0.4492052615815621 0.0213355189395259	0.106485
H	0.2220890371194115 0.3912162569622583 0.0210962550605920	0.114966
H	0.0547577283668362 0.2269300237631250 0.0106790118128145	0.097008
H	0.1147172423228860 0.2867341206973066 0.0221522728489653	0.124331
H	0.0538963953371754 0.8819892565481696 0.5107074465637722	0.098201
H	0.1108795340912665 0.9450585494697197 0.5223866113030760	0.119494
H	0.2163433661211058 0.0507805061838889 0.5213378768940585	0.106271
H	0.2779336200844452 0.1087410785645396 0.5210927892394845	0.115147
H	0.4467658892353828 0.2714875375382245 0.5106630517648502	0.097070
H	0.3855638332700842 0.2129920847461499 0.5221417402753141	0.124316
H	0.5540997127924447 0.3827838579956689 0.5118815268846875	0.104009
H	0.6110215046594467 0.4455509345568596 0.5222319604135547	0.118438
H	0.7162803016207032 0.5507242699926207 0.5213425508021221	0.105928
H	0.7780017458972632 0.6087763581592704 0.5210868881652539	0.115001
H	0.9459478088944534 0.7712912181613690 0.5118099956781740	0.104156
H	0.8850804639624422 0.7128099672348696 0.5219908674565101	0.124225
H	0.0538524531382480 0.1180366376561554 0.4892652488776716	0.098558
H	0.1108424673854830 0.0549488391583839 0.4776523342608752	0.119351
H	0.2161524594223771 0.9494152843667302 0.4786249929110288	0.105820
H	0.2777562105668475 0.8913437439420909 0.4789342561198439	0.115753
H	0.4450177018905926 0.7277896566106195 0.4882222618378746	0.103545
H	0.3851179944387069 0.7872259659179719 0.4779412930077264	0.124062
H	0.5522884217134807 0.6164629092785665 0.4891919331527013	0.098692
H	0.6106245929054424 0.5547107446604067 0.4776795048295002	0.119944
H	0.7160997534288787 0.4493723158587417 0.4786255512185900	0.106341
H	0.7778113419049080 0.3913998703909514 0.4789266365227151	0.115117
H	0.9459143147860291 0.2287393797719822 0.4882170022860489	0.104072
H	0.8850533835658871 0.2872038209016025 0.4779690628029885	0.124062
H	0.9468212407714101 0.8837741381648184 0.9881191357909106	0.103721
H	0.8889038719845813 0.9455122488149038 0.9777521479939596	0.119151
H	0.7835392206359577 0.0509302669546984 0.9787019275228123	0.106941
H	0.7218405442452797 0.1089041881259910 0.9788766303628719	0.114141
H	0.5532052440423366 0.2715379384228149 0.9892950801747269	0.096893
H	0.6144167321751633 0.2130252149437198 0.9779074615745122	0.124393
H	0.4458652705469003 0.3828173128146677 0.9881665898617055	0.104129
H	0.3889586978323584 0.4455751617597508 0.9777279106423155	0.118276
H	0.2834996220348108 0.5508887140754641 0.9786935470473784	0.106248
H	0.2218989084341492 0.6089600161410212 0.9788918825388215	0.114345
H	0.0547130236261387 0.7731056037005910 0.9892930294431812	0.096781
H	0.1146833433063543 0.7132859334857464 0.9778838205111924	0.124415
H	0.0538965135808719 0.8819874380662037 0.9892933660835995	0.098243
H	0.1108785494953219 0.9450576810439075 0.9776113434021985	0.119505
H	0.2163430217592121 0.0507801159340588 0.9786595469988821	0.106221
H	0.2779332797059547 0.1087407259747216 0.9789060537263932	0.115087
H	0.4467667912897351 0.2714870846389878 0.9893374995460799	0.097104
H	0.3855638403957547 0.2129923475603231 0.9778544546345355	0.124327
H	0.5540994170413766 0.3827832596286294 0.9881212124529974	0.104030
H	0.6110214608276340 0.4455500737458309 0.9777701501241263	0.118480
H	0.7162795685382203 0.5507238856357412 0.9786566247660743	0.105907
H	0.7780008850579161 0.6087760618097553 0.9789121215623297	0.115030
H	0.9459485154575634 0.7712911262157823 0.9881963215983801	0.103887
H	0.8850810574539801 0.7128094449583082 0.9780089521383696	0.124203
H	0.9468596625535507 0.1162532014464039 0.4880817942757936	0.103456
H	0.8889376427862624 0.0544995231118753 0.4777848868690892	0.119053
H	0.7837278849547091 0.9492644014255986 0.4786626974212307	0.106203
H	0.7220209466712326 0.8911822513694329 0.4789099862560161	0.114861
H	0.5549463450281252 0.7277562504998577 0.4881750293487932	0.103471
H	0.6148635877660993 0.7872006201802952 0.4779994889209098	0.124013
H	0.4476938736550624 0.6164059803327199 0.4892194003428464	0.099182
H	0.3893563081168053 0.5546838684741271 0.4776240475913731	0.119753
H	0.2836745944677116 0.4492051228026779 0.4786662776116516	0.106447
H	0.2220889686715065 0.3912164049682321 0.4789038762856712	0.114974
H	0.0547578816984307 0.2269296592528109 0.4893181101581496	0.096977
H	0.1147174478846223 0.2867342421478525 0.4778485071906624	0.124327
H	0.9468220187524665 0.8837744324313643 0.5118904735487450	0.103659
H	0.8889041794324427 0.9455118670871914 0.5222498624533686	0.119123
H	0.7835398122966483 0.0509296762945255 0.5212975741200628	0.106981
H	0.7218414596445654 0.1089037759955867 0.5211210405124236	0.114206
H	0.5532073553048483 0.2715377822004339 0.5107049235398580	0.096866
H	0.6144180750472412 0.2130239955095709 0.5220913065196890	0.124424
H	0.4458653181390458 0.3828174985871330 0.5118368272681544	0.104164
H	0.3889593340293386 0.4455750939404081 0.5222699933061836	0.118310
H	0.2835005166350023 0.5508879860131946 0.5213037614444276	0.106234
H	0.2218997738171512 0.6089591719974737 0.5211048000413311	0.114437
H	0.0547132927047944 0.7731039593420579 0.5107085231602763	0.096763
H	0.1146843062662706 0.7132847680975922 0.5221187762975584	0.124392
H	0.0538525914003196 0.1180361631100678 0.0107296782798308	0.098545
H	0.1108426828303066 0.0549489172653944 0.0223474776423986	0.119406
H	0.2161530157638747 0.9494146933380185 0.0213719364161948	0.105808
H	0.2777567929579251 0.8913431718545521 0.0210654457256585	0.115787
H	0.4450183721849636 0.7277890104495927 0.0117778996855238	0.103536
H	0.3851185656068390 0.7872256118176096 0.0220582936826796	0.124035
H	0.5522889066843095 0.6164624185538107 0.0108059876703326	0.098668
H	0.6106251672595254 0.5547100959152996 0.0223210480178983	0.119994
H	0.7161004116969567 0.4493716495685928 0.0213713898373727	0.106381
H	0.7778119942883525 0.3913992205084618 0.0210726827642387	0.115133
H	0.9459151181580188 0.2287380445595357 0.0117740982877555	0.103949
H	0.8850546587722242 0.2872022192142238 0.0220239781473902	0.124060
Zn	0.5000147720647476 0.6736001028547947 0.7499996779931971	0.739638
Zn	-0.0005639737110437 0.1729859700031107 0.7499914867013676	0.739789
Zn	0.5000197749086168 0.3275924204050183 0.2499901751915616	0.738954
Zn	-0.0005598460802756 0.8270193714862690 0.2499934214360734	0.739762
Al	0.4999453997194468 0.6717770937465420 0.2500040249525467	1.667465
Al	0.0014606359677065 0.1731190970706566 0.2499942478201606	1.664730
Al	0.4999551547877756 0.3256068900446075 0.7499937569849211	1.665481
Al	0.0014467811087783 0.8269197509470946 0.7500076859156413	1.664223
F	0.4997582926250560 0.6122999024313978 0.2500235170975431	-0.631443
F	0.9739804853461502 0.2256728515269640 0.2499959262457771	-0.618070
F	0.9741824759070132 0.1204730424902347 0.2500107124517919	-0.615545
F	0.4999575203515336 0.2660836392786782 0.7500332941369273	-0.633990
F	0.9739930139426496 0.7743489314589690 0.7500036918209854	-0.617759
F	0.9741554282651094 0.8795557265372423 0.7500194153125732	-0.615426
F	0.5512701607008327 0.6996798753980001 0.2499851141503318	-0.617933
F	0.0593564381659352 0.1730465487082071 0.2499716457995562	-0.633540
F	0.4487970486795006 0.3538134482815901 0.7499773814771152	-0.617604
F	0.4486728066972999 0.6997934641167097 0.2499941645074321	-0.618223
F	0.5511105588424743 0.3537878923800424 0.7500053234275679	-0.617042
F	0.0593409458376107 0.8270158059700039 0.7500808988156331	-0.633345
F	0.4999459273469407 0.6732308426678784 0.4832206235877143	-0.583078
F	0.0000961088238416 0.1731159664038161 0.4832788336190814	-0.582559
F	0.4999253161162427 0.3270627280631648 0.9832771198163288	-0.582646
F	0.0000635690311446 0.8269480730131697 0.9832822158443875	-0.582437
F	0.4999444472101377 0.6732325492133517 0.0167886545627471	-0.583021
F	0.0000990667294954 0.1731187635484996 0.0167151667507002	-0.582557
F	0.4999276291247343 0.3270581113268763 0.5167235393428403	-0.582712
F	0.0000824309154294 0.8269536217007284 0.5167370290352548	-0.582484
N	0.5519297805339657 0.7258086686210390 0.7500022298996419	-0.225972
N	0.9486449513668623 0.1193599612114162 0.7499972430014317	-0.225433
N	0.0518938491939244 0.2252207875606836 0.7499985761955368	-0.221048
N	0.4492295766553917 0.6193825872239509 0.7499983433686618	-0.220348
N	0.4485213329534343 0.2743655825368191 0.2499999878129905	-0.221032
N	0.0512222152514716 0.8801734951338793 0.2500006219150084	-0.222099
N	0.9479042002460693 0.7743544088270441 0.2500030238786028	-0.224605
N	0.5512405210342693 0.3807658924403753 0.2500012563527092	-0.222697
N	0.4480228812249853 0.7258280292400103 0.7500008213506957	-0.224552
N	0.0511920719353296 0.1198606494428261 0.7499974952924447	-0.221913
N	0.9478795975584431 0.2256793637638976 0.7499955908526186	-0.224494
N	0.5507294573040513 0.6194136475265267 0.7499991981347340	-0.221450
N	0.5514394819673335 0.2743971194215927 0.2499996196767200	-0.222207
N	0.9486193904219266 0.8806737058870550 0.2500043088469502	-0.225408
N	0.0518619100387211 0.7748165877325511 0.2500018782871426	-0.220609
N	0.4487170302918496 0.3807871997353838 0.2500004663808026	-0.222644
	  	
