#======================================================================

# CRYSTAL DATA

#----------------------------------------------------------------------

data_VESTA_phase_1


_pd_phase_name                         ALFFIVE_1_Cu
_cell_length_a                         11.13469
_cell_length_b                         11.13466
_cell_length_c                         7.99752
_cell_angle_alpha                      90.15714
_cell_angle_beta                       89.84105
_cell_angle_gamma                      89.98820
_symmetry_space_group_name_H-M         P 1
_symmetry_Int_Tables_number            1

loop_
_symmetry_equiv_pos_as_xyz
   x, y, z

loop_
   _atom_site_label
   _atom_site_fract_x
   _atom_site_fract_y
   _atom_site_fract_z
   _atom_site_charge
C	0.2565618912384585 0.4583909417702173 0.3646429500729604	0.102336
C	0.1317615000874650 0.4577643290654979 0.3606759093201590	-0.171491
C	0.7450377743636494 0.5390677146326780 0.3657773042351272	0.103373
C	0.8698050919775833 0.5407191082546099 0.3611968516378838	-0.173095
C	0.5409923762648989 0.2563627587027508 0.3675208765845890	0.101887
C	0.5418973199364586 0.1315943398756055 0.3622549497885372	-0.172191
C	0.4607891596274096 0.7447897555727061 0.3646341424681859	0.098002
C	0.4593287885269707 0.8695869947461127 0.3610545953673364	-0.172644
C	0.7447851536268754 0.4607907670575321 0.6353656015369586	0.098165
C	0.8695808149585136 0.4593297986794549 0.6389445090039360	-0.172806
C	0.2563534747565134 0.5409923963320392 0.6324687755378166	0.101984
C	0.1315842553238367 0.5418961211919412 0.6377356014557839	-0.172371
C	0.4583908397107217 0.2565604410769977 0.6353531483403473	0.102260
C	0.4577620062087066 0.1317609712494182 0.6393175349692168	-0.171504
C	0.5390618355494440 0.7450373615924266 0.6342207914140991	0.103352
C	0.5407171185453435 0.8698062757297546 0.6387990556150870	-0.173220
C	0.0668981042835738 0.4998551388430716 0.4993761295964368	0.099124
C	0.9345422369792783 0.4999490112767164 0.4998975662700921	0.101032
C	0.4998557783600572 0.0669019394862878 0.5006182223294621	0.098885
C	0.4999489085742453 0.9345453736734843 0.5000962833408126	0.101022
H	0.3102535841955633 0.4266363373348673 0.2588953718211811	0.108692
H	0.0858351318406401 0.4224743724310102 0.2509244597088278	0.122709
H	0.6912491506434246 0.5665381167007820 0.2589361497983474	0.106334
H	0.9157672057600774 0.5750755394402725 0.2508431522993261	0.120288
H	0.5726657242774783 0.3106389962010049 0.2629132358572834	0.104752
H	0.5770963421013363 0.0854707746146548 0.2521883225918682	0.121713
H	0.4332771341634447 0.6916012229356835 0.2565696252793321	0.111643
H	0.4249378949180193 0.9151692002603344 0.2508053539218223	0.122795
H	0.6915949449232026 0.4332734687706510 0.7434310244758224	0.111635
H	0.9151594720555007 0.4249365580864334 0.7491940441894144	0.122843
H	0.3106277703521924 0.5726679115067722 0.7370716308762163	0.104763
H	0.0854585775776092 0.5770992278376089 0.7477986522743778	0.121737
H	0.4266379206886586 0.3102477185923830 0.7411051624696348	0.108779
H	0.4224727072087663 0.0858298785166380 0.7490729799229271	0.122772
H	0.5665292756033219 0.6912473872640985 0.7410615587012663	0.106439
H	0.5750735771988075 0.9157666646360244 0.7491497269690810	0.120384
Cu	0.5004679406636067 0.5004688647144671 0.4999989643604070	0.726947
Al	0.4980288797373097 0.4980007872091892 0.0000084391698206	1.685510
F	0.5017113218722774 0.4984488634916500 0.7733493979484688	-0.627665
F	0.4984150993355707 0.5016981111051162 0.2266673632717511	-0.626901
F	0.3870105388314281 0.3869802369033645 -0.0000040164287716	-0.646344
F	0.6492665192336755 0.4541048680018645 0.0034284199054741	-0.645991
F	0.4541826011400233 0.6492865978744475 0.9966448060037506	-0.646030
N	0.3172476238479296 0.4997500301885687 0.4984598208772666	-0.220172
N	0.6841235712057336 0.4999192603163334 0.5006066899111039	-0.224846
N	0.4997503718658838 0.3172520569657791 0.5015346076402019	-0.220080
N	0.4999147078584968 0.6841254702906868 0.4993944172989704	-0.224808
	  	
