#======================================================================

# CRYSTAL DATA

#----------------------------------------------------------------------

data_VESTA_phase_1


_pd_phase_name                         ALFFIVE_2_Ni
_cell_length_a                         13.84946
_cell_length_b                         13.84921
_cell_length_c                         7.68550
_cell_angle_alpha                      89.47694
_cell_angle_beta                       90.52452
_cell_angle_gamma                      89.99222
_symmetry_space_group_name_H-M         P 1
_symmetry_Int_Tables_number            1

loop_
_symmetry_equiv_pos_as_xyz
   x, y, z

loop_
   _atom_site_label
   _atom_site_fract_x
   _atom_site_fract_y
   _atom_site_fract_z
   _atom_site_charge
C	0.5324925340949498 0.7012560712802400 0.1411734835438039	0.104686
C	0.5333885212123463 0.8014120717378321 0.1466631562222527	-0.169718
C	0.4666496218823632 0.2995447117774285 0.1372301393367947	0.097397
C	0.4656433742851341 0.1992885860887667 0.1431670234497421	-0.167805
C	0.3005206158334889 0.5334860530645416 0.1385913414331472	0.103073
C	0.2003302057890444 0.5340921484715253 0.1442017226434804	-0.169575
C	0.7022136219424197 0.4682432990380201 0.1384805200833888	0.092659
C	0.8024550319314687 0.4669363568571447 0.1442931171977820	-0.170052
C	0.4682415271080281 0.7022078590148728 0.8615101875305137	0.092535
C	0.4669329039527378 0.8024511791685249 0.8557017613350907	-0.170012
C	0.5334815672083436 0.3005208454904543 0.8613995916762531	0.103068
C	0.5340859509963176 0.2003287231849174 0.8557897970131420	-0.169417
C	0.7012586700798757 0.5324948409479776 0.8588251545865093	0.104744
C	0.8014124261149794 0.5333903975573476 0.8533391937851558	-0.169728
C	0.2995376223742410 0.4666462615393622 0.8627637685455708	0.097564
C	0.1992853929185122 0.4656454265690218 0.8568224135279542	-0.168138
C	0.4997647287598129 0.1472204084149381 -0.0003256518138669	0.168675
C	0.4997590974815477 0.0449307203821213 0.0001159357339153	-0.097556
C	0.4999739815233920 0.8545569022673676 0.0010155553228671	0.168202
C	0.4998233995843572 0.9568517023898211 0.0005921589698352	-0.093309
C	0.8545597963352490 0.4999771479324343 -0.0010173574255508	0.168286
C	0.9568573717744846 0.4998252608468288 -0.0005918211740830	-0.093457
C	0.1472227828981052 0.4997697113913150 0.0003179080089248	0.168839
C	0.0449305658689897 0.4997632912713871 -0.0001162303364188	-0.097424
H	0.5557742988689391 0.6581907453667886 0.2528075389308284	0.098419
H	0.5596429384047525 0.8379143862879471 0.2626661803877960	0.124562
H	0.4405505971789284 0.3417667790723070 0.2465255051032705	0.103673
H	0.4382928085908857 0.1620671154061847 0.2579004753677436	0.125743
H	0.3439189378458992 0.5598807057639293 0.2471384044957471	0.097018
H	0.1637132662399310 0.5612341436977603 0.2585523530401818	0.125474
H	0.6602472908670022 0.4449990534440623 0.2507335689109836	0.107693
H	0.8395357845158705 0.4404561929454508 0.2607241304331946	0.125980
H	0.4449953609829158 0.6602443359289782 0.7492495310417121	0.107833
H	0.4404511529900149 0.8395362814011545 0.7392790712868008	0.125946
H	0.5598705031189751 0.3439156954969349 0.7528450538314718	0.097008
H	0.5612268260981619 0.1637028099966961 0.7414407819552730	0.125419
H	0.6581950172638974 0.5557757658053220 0.7471855230079009	0.098409
H	0.8379103546623345 0.5596483529779394 0.7373362606244782	0.124535
H	0.3417592183611259 0.4405394684792140 0.7534726199528557	0.103692
H	0.1620638647974663 0.4382922303474975 0.7420892225019615	0.125867
Ni	0.5005180120765603 0.5005205620379645 0.0000156220336044	0.766343
Al	0.4962226203589922 0.4962178079239487 0.5000179201586124	1.675123
F	0.4965245693705982 0.5025782286683932 0.7382674228418866	-0.586446
F	0.5025869466693144 0.4965417768644902 0.2617653170704186	-0.586399
F	0.4590818135862617 0.6162594052766945 0.4901790285651323	-0.629531
F	0.4077433633080516 0.4076548407547266 0.4999908823060218	-0.629667
F	0.6162909146033757 0.4591646148003347 0.5098845964479481	-0.629490
N	0.5002706079316825 0.3495180848039488 -0.0008706766291973	-0.230792
N	0.5004995914606732 0.6521017377381924 0.0016421368463309	-0.234547
N	0.6521064218822883 0.5005012425845825 -0.0016478911160423	-0.234608
N	0.3495156720148947 0.5002676904443470 0.0008666414068953	-0.230790
	  	
