#======================================================================

# CRYSTAL DATA

#----------------------------------------------------------------------

data_VESTA_phase_1


_pd_phase_name                         ALFFIVE_4_Fe_i
_cell_length_a                         23.63285
_cell_length_b                         21.07236
_cell_length_c                         9.83649
_cell_angle_alpha                      89.89929
_cell_angle_beta                       89.94317
_cell_angle_gamma                      89.98566
_symmetry_space_group_name_H-M         P 1
_symmetry_Int_Tables_number            1

loop_
_symmetry_equiv_pos_as_xyz
   x, y, z

loop_
   _atom_site_label
   _atom_site_fract_x
   _atom_site_fract_y
   _atom_site_fract_z
   _atom_site_charge
C	0.4134466516819097 0.5946130411147941 0.6312934528162643	0.102112
C	0.3706383160343499 0.5496240360992121 0.6307698363636156	-0.173321
C	0.2775536753927263 0.4503361246061317 0.6316128158275115	-0.119273
C	0.2327994099589695 0.4077538140567914 0.6302709525277652	-0.113940
C	0.1342378729585710 0.3211452312765702 0.6283139610144219	-0.173604
C	0.0883787374003744 0.2801049889903588 0.6308791782045444	0.098427
C	0.9133644071855221 0.0946927114231906 0.6320938697014418	0.103744
C	0.8705047047855117 0.0497497328678756 0.6315558484898455	-0.170862
C	0.7774950822895971 0.9504679738311881 0.6323562527225502	-0.117495
C	0.7327388372278294 0.9079111095135455 0.6307461231346938	-0.113650
C	0.6342385215948044 0.8212914370054673 0.6282952772309197	-0.172547
C	0.5883998504215389 0.7802272317679445 0.6305125028095803	0.097401
C	0.5860779915112253 0.4058154209364892 0.1325251740385833	0.102648
C	0.6288544593007102 0.4508370276018254 0.1306742856964942	-0.176738
C	0.7228899998680107 0.5497240056824886 0.1304777387031001	-0.118071
C	0.7677126855168420 0.5922518639390827 0.1293976120599437	-0.112356
C	0.8664545763147942 0.6797499098671267 0.1299426346453496	-0.171654
C	0.9123759219084481 0.7207852989783471 0.1351624441181421	0.094504
C	0.0854812019738798 0.9052568173970083 0.1346549981061943	0.101050
C	0.1283408073991474 0.9502830209157279 0.1305632272426204	-0.179883
C	0.2228789099697692 0.0495911310688249 0.1292505659713084	-0.117390
C	0.2676759490266825 0.0921200913502775 0.1284087592935699	-0.113959
C	0.3660910808153510 0.1788388468498287 0.1271441709591903	-0.172743
C	0.4119442838812130 0.2198865229435744 0.1299071668942692	0.097307
C	0.5861558517914462 0.5959287018215534 0.8643450881849396	0.101706
C	0.6290141933138980 0.5508819611378776 0.8690184282527442	-0.176894
C	0.7231333463725135 0.4504763675042180 0.8710525549149285	-0.118775
C	0.7680545166345364 0.4080372989098227 0.8715529551309292	-0.112666
C	0.8672015787100522 0.3212912574330993 0.8704646493402175	-0.174185
C	0.9131643230374326 0.2802797062539479 0.8652426329461421	0.094038
C	0.0860582101808757 0.0957310415173262 0.8654365805485316	0.100981
C	0.1288418410274214 0.0505810613780106 0.8698823526180229	-0.177919
C	0.2228943192510025 0.9501081419000894 0.8717141046958115	-0.118411
C	0.2678737953446771 0.9077317791518180 0.8721249914616382	-0.114563
C	0.3672413639171344 0.8211942524782062 0.8709283046533625	-0.173332
C	0.4132141051264506 0.7801912883563269 0.8654636860080598	0.092752
C	0.4144570198227613 0.4052584783799175 0.3650465299346146	0.100281
C	0.3714659008074144 0.4501470482014034 0.3687035906497367	-0.175412
C	0.2770337862248861 0.5493429261755179 0.3698461089034765	-0.116622
C	0.2324009347474296 0.5921118808489613 0.3708504322271497	-0.112788
C	0.1347482053902637 0.6797675855636044 0.3726264639266739	-0.173872
C	0.0889293024364538 0.7208705288617728 0.3703390180458373	0.098183
C	0.9140626941923961 0.9058360904577928 0.3673885821471900	0.102080
C	0.8710774670630139 0.9506013795963842 0.3686551752053070	-0.171907
C	0.7770597478277749 0.0491418338068262 0.3686154207743081	-0.116927
C	0.7323763635273940 0.0918684966651152 0.3699558459962864	-0.113091
C	0.6343702258865253 0.1802842509577940 0.3700934548983545	-0.175087
C	0.5884662970794259 0.2213927029609264 0.3653783945320626	0.094186
C	0.5858507091815375 0.4048735559062488 0.3652082019546434	0.101565
C	0.6287471546011711 0.4498607208882718 0.3688300071022537	-0.176794
C	0.7230794811783212 0.5491163632950933 0.3698258744239875	-0.114474
C	0.7677719291994906 0.5917537308890627 0.3708717005949108	-0.112219
C	0.8658103132460170 0.6787939085612241 0.3728020638575292	-0.172911
C	0.9116585888957366 0.7198495675469018 0.3705520822206064	0.097780
C	0.0861941543434953 0.9054870137109833 0.3673493729850223	0.103618
C	0.1290620242982973 0.9503717566156492 0.3686965124607455	-0.174484
C	0.2230645065638336 0.0489224586598613 0.3685803275874989	-0.116444
C	0.2678033803149946 0.0915369364979308 0.3699174266220951	-0.112565
C	0.3661783406138256 0.1793376772710395 0.3700286543055956	-0.171441
C	0.4121040457961170 0.2203966027215078 0.3652907262566272	0.092733
C	0.4139438433993674 0.5957588862370000 0.8640897846349789	0.100282
C	0.3710280749819073 0.5508057051851271 0.8687491053056976	-0.173770
C	0.2771295344542392 0.4502883980898695 0.8710070218143017	-0.118416
C	0.2323890340588919 0.4076352084380810 0.8717471569041435	-0.114123
C	0.1336512923997387 0.3202651419282166 0.8710882285096276	-0.174596
C	0.0877238066605673 0.2792114349070434 0.8660409161530183	0.094879
C	0.9141547797825533 0.0954873591631568 0.8649434960115756	0.100724
C	0.8713349485383159 0.0504154367223383 0.8695655512295245	-0.176105
C	0.7772554189675093 0.9499823006935377 0.8717792654679614	-0.119580
C	0.7324123602276654 0.9074360075851405 0.8722259611173705	-0.116051
C	0.6334595099217261 0.8202760101814841 0.8710543390916273	-0.173439
C	0.5875504001024207 0.7792115277045484 0.8655940194713675	0.093057
C	0.4142938960598822 0.4061580032723559 0.1322080756899015	0.102288
C	0.3714069015101518 0.4510673298105001 0.1305897134603110	-0.174096
C	0.2772151735949029 0.5496933662167032 0.1304729173567382	-0.118198
C	0.2324829055614831 0.5923749071709535 0.1293865222081045	-0.113929
C	0.1341894551586783 0.6805520293050190 0.1297901524160971	-0.173972
C	0.0882883509294349 0.7216456118470562 0.1350120624547799	0.094359
C	0.9148310927791112 0.9054838698653283 0.1345703506407132	0.098781
C	0.8718956916958627 0.9504404166149665 0.1305698716881075	-0.176338
C	0.7773659154755453 0.0497460558055943 0.1292619649875974	-0.119964
C	0.7326548757099887 0.0924202546929031 0.1284644067282307	-0.113857
C	0.6346513694839447 0.1797977554535652 0.1272336510275737	-0.173201
C	0.5888203070603291 0.2208967820366811 0.1300931753939835	0.097046
C	0.5868245539432694 0.5948089506538771 0.6316040579243577	0.102364
C	0.6295267236701616 0.5496712050392187 0.6309397422231507	-0.176175
C	0.7225737600546396 0.4503317204504059 0.6316672419999713	-0.120442
C	0.7675106162536681 0.4079807388347222 0.6300894665571567	-0.111309
C	0.8667413527979091 0.3222952474487387 0.6276273888834851	-0.172244
C	0.9126623233016875 0.2812864107193780 0.6299012254523333	0.096646
C	0.0868940210397267 0.0949708561463314 0.6326245484908751	0.103353
C	0.1296486397055459 0.0498859298507942 0.6317838561258469	-0.173791
C	0.2226886109443994 0.9504804310407127 0.6323107918120837	-0.117380
C	0.2675933145553850 0.9080906375021554 0.6306737139203815	-0.111890
C	0.3666998002039009 0.8222856034731265 0.6281281226069465	-0.171776
C	0.4126229992840701 0.7813054295102818 0.6302058135796645	0.097361
C	0.3471689625172491 0.5242860894872247 0.7507096535257871	0.110793
C	0.3012005796155884 0.4753870994561609 0.7514366180369643	0.067966
C	0.2077757649428366 0.3857691792125098 0.7508774927849033	0.063972
C	0.1587582763672518 0.3423450103778330 0.7502809406878398	0.102571
C	0.8472582499711218 0.0241492852299356 0.7515316114542085	0.109192
C	0.8012596305035566 0.9752693573994768 0.7522640878758816	0.067874
C	0.7077266945669004 0.8857949862653086 0.7512474455695166	0.065493
C	0.6586732482295949 0.8424234513374712 0.7504193741387761	0.101147
C	0.6526527681022116 0.4760954472987233 0.2501218270438934	0.111634
C	0.6989338649621959 0.5246053334111098 0.2501835554765491	0.065608
C	0.7924532576088034 0.6140483981816935 0.2501670848509989	0.066436
C	0.8413889374283706 0.6575969396253610 0.2507373869767286	0.095846
C	0.1526001200413943 0.9760245651633489 0.2490742999730044	0.112251
C	0.1989140679564318 0.0244701054019953 0.2488021404808009	0.064987
C	0.2924443941612925 0.1138750568872191 0.2492092028513359	0.067342
C	0.3413839268018433 0.1574329451291956 0.2489724859393524	0.096279
C	0.6529212869303038 0.5242785787571693 0.7509332830662118	0.108559
C	0.6989377313885183 0.4754139462074087 0.7515613775322977	0.065910
C	0.7927391651552461 0.3862904841683426 0.7505732145848049	0.066215
C	0.8420339184785793 0.3432192438954296 0.7497070442788657	0.100233
C	0.1528745188609982 0.0242107753355640 0.7516808235829944	0.107518
C	0.1988794410681931 0.9753191459012539 0.7522491741935694	0.065409
C	0.2927049955087317 0.8862048178961763 0.7511355021619303	0.067548
C	0.3420154596712687 0.8431574979416380 0.7502656049451341	0.098396
C	0.3474973067918163 0.4762246285458597 0.2500514714379433	0.113610
C	0.3011740448744746 0.5246976168919417 0.2501984538984568	0.068687
C	0.2078238315210808 0.6144421780415329 0.2501243436659850	0.063643
C	0.1590840638340903 0.6582640149209339 0.2506040246102144	0.099470
C	0.8475527921854205 0.9761479930459378 0.2490611684010858	0.113064
C	0.8012597700200360 0.0246258398152302 0.2488365810313065	0.069039
C	0.7078760288596188 0.1143139054773513 0.2492591842468033	0.063505
C	0.6591305928778386 0.1581484874844846 0.2490531899979781	0.100559
H	0.4309556041906089 0.6131225427315886 0.5362060884686213	0.109288
H	0.3569375369605219 0.5359527748500293 0.5308340378425906	0.100639
H	0.2936154792835733 0.4633099754360904 0.5330433518757753	0.085220
H	0.2175133535663336 0.3918795012490180 0.5315746362560241	0.103164
H	0.1503614960280866 0.3360272503403125 0.5296239086538800	0.115618
H	0.0688211089855659 0.2623480335638829 0.5376973704900674	0.107169
H	0.9308627718512019 0.1132784237274740 0.5370294040645958	0.108763
H	0.8565779742319106 0.0362595654497399 0.5316943657502381	0.100419
H	0.7935247648773843 0.9635896569576267 0.5338551977821283	0.085193
H	0.7174439286226982 0.8921280119385265 0.5319838504705281	0.103191
H	0.6503882016454215 0.8361910318942678 0.5296575663684385	0.115389
H	0.5689455879872662 0.7625739552404480 0.5371529142645696	0.107401
H	0.5682524016178319 0.3869359655708133 0.0384059573442681	0.108852
H	0.6424171689814161 0.4647926005220888 0.0305879236786239	0.099348
H	0.7071950078289697 0.5367772742254201 0.0317118106981436	0.084554
H	0.7833739596053494 0.6081906580196436 0.0308890883133344	0.103739
H	0.8509438346143442 0.6656809819808734 0.0302923077715645	0.115607
H	0.9321981208267782 0.7387250190235726 0.0424177530066027	0.094135
H	0.0674989659789054 0.8863107646093765 0.0408894392322520	0.096720
H	0.1414180368434457 0.9637175621434071 0.0297565888454858	0.099982
H	0.2072469518963557 0.0366936237201925 0.0304220771751471	0.085613
H	0.2832728831747263 0.1081345394988385 0.0299312668187023	0.104321
H	0.3502348105644342 0.1640545019311501 0.0283003113025383	0.117873
H	0.4315515078179865 0.2375093254910612 0.0364589965131445	0.108571
H	0.5684162703670568 0.6153780089016311 -0.0420015564668332	0.096112
H	0.6424110449860342 0.5383785318846352 -0.0299219056415327	0.101455
H	0.7075435527381058 0.4633842828874095 -0.0299988266171177	0.086100
H	0.7838462396994068 0.3921122746958113 -0.0301180380605810	0.104188
H	0.8516439545410053 0.3355312138588798 -0.0299811390974890	0.115888
H	0.9331392905765131 0.2625033096737671 -0.0420769390194245	0.095130
H	0.0683254265276307 0.1151299420404835 -0.0408158928570584	0.096274
H	0.1421100242544198 0.0378063623666590 -0.0291224622581107	0.101210
H	0.2071345737173634 0.9627721677015280 -0.0293259073948888	0.085774
H	0.2836122112222380 0.8917109112762466 -0.0295646802856276	0.103692
H	0.3517482349053887 0.8354032175309198 -0.0294219698526253	0.116280
H	0.4332198014770932 0.7623858639619624 -0.0419630336623752	0.095743
H	0.4324147454112708 0.3864396056050343 0.4591099917069779	0.096754
H	0.3581895161660908 0.4632612674765104 0.4694659072498742	0.100469
H	0.2925263523441867 0.5359650667057283 0.4686347434935615	0.084653
H	0.2167838748863685 0.6078655822753266 0.4694084288773677	0.102923
H	0.1509203551325954 0.6651231088933298 0.4713550291697738	0.116492
H	0.0696893903264967 0.7387974003922414 0.4638658986092197	0.108569
H	0.9319131777154203 0.8872853625793896 0.4619945366991434	0.109957
H	0.8574063365416966 0.9642018846603918 0.4687578132596228	0.100232
H	0.7925537542899083 0.0356053945160452 0.4672804274346279	0.084525
H	0.7166863811777554 0.1074847447510303 0.4685973403516799	0.103091
H	0.6502721274098937 0.1661280981563533 0.4694624960421341	0.116056
H	0.5689328989984894 0.2394376413750429 0.4582887516875542	0.095367
H	0.5680335065115151 0.3856852135638077 0.4591387186795129	0.096976
H	0.6421480443159335 0.4628769499858043 0.4694997852372444	0.099316
H	0.7076152387765490 0.5356385956733121 0.4686047253954656	0.083929
H	0.7833878357552372 0.6073922834044742 0.4694226970189310	0.103490
H	0.8497631927292195 0.6639454123404591 0.4715557271874057	0.117845
H	0.9309896498364768 0.7373457633155258 0.4642443834538313	0.108292
H	0.0684484210505668 0.8865391479239200 0.4617214828863596	0.108703
H	0.1427834019350089 0.9638979569725253 0.4687693110792109	0.099829
H	0.2075217740613816 0.0353936852811231 0.4672331884004027	0.084354
H	0.2834513392172950 0.1070991896059607 0.4685507219942782	0.103929
H	0.3504080886678599 0.1650450359824978 0.4694744603394504	0.116211
H	0.4317089833689316 0.2381090929111400 0.4582902187555160	0.094668
H	0.4317573664545760 0.6148636638162225 -0.0421155086273525	0.095285
H	0.3577318660627984 0.5382339626252035 -0.0301320426512777	0.102115
H	0.2927917069749963 0.4631476210259877 -0.0301266838123057	0.086622
H	0.2167149904070848 0.3916077295820323 -0.0298209875678386	0.103274
H	0.1493078792233756 0.3344175936663257 -0.0294711324047671	0.114928
H	0.0678409643030290 0.2611680230970770 -0.0413447427261995	0.094891
H	0.9320395755539600 0.1145684579597235 -0.0412912340425318	0.095291
H	0.8582447688798022 0.0375796745472495 -0.0293015965818141	0.102167
H	0.7929966488837294 0.9626431540118147 -0.0292902943862988	0.086489
H	0.7167138141873702 0.8913084368133055 -0.0294472895182616	0.103366
H	0.6490098952348480 0.8343637599764880 -0.0293383698599471	0.114627
H	0.5675824048455022 0.7611176791780965 -0.0419740839222595	0.095383
H	0.4323219000029591 0.3877163040016915 0.0377587725321067	0.109247
H	0.3580091727818784 0.4651059819770867 0.0304939981545385	0.099467
H	0.2928900250472323 0.5365736965143979 0.0317250662729700	0.084135
H	0.2168481854173260 0.6082371187564627 0.0308468800286542	0.103051
H	0.1499066890972744 0.6665292662816746 0.0302063964874193	0.115823
H	0.0685911085130456 0.7398094363962828 0.0423462938258885	0.094743
H	0.9329788854063366 0.8867913773079710 0.0406480409811991	0.096168
H	0.8589583865373037 0.9638845371032632 0.0297099605323460	0.101043
H	0.7930447070644214 0.0367620824074255 0.0304421771349629	0.085772
H	0.7171581153226981 0.1084634951212238 0.0299516356836550	0.103455
H	0.6507609752138972 0.1651922133165042 0.0284077457954471	0.116195
H	0.5694231275456295 0.2389925298191092 0.0368784138587980	0.108329
H	0.5695485157576434 0.6137536530056238 0.5367482119936935	0.110514
H	0.6434013744302154 0.5360254319132399 0.5310391586509122	0.100125
H	0.7064473310188811 0.4631746752632064 0.5331472201586098	0.085387
H	0.7828329455342092 0.3920892015397244 0.5313769334674510	0.103334
H	0.8508042795607114 0.3373906554290977 0.5289704144374957	0.115988
H	0.9324005434462319 0.2640001016831962 0.5363956549464303	0.109515
H	0.0696134104007229 0.1140679097803316 0.5378763739661233	0.110403
H	0.1436986707875456 0.0364493502173954 0.5318934204210095	0.099892
H	0.2066495076497113 0.9634684898828837 0.5338047295617562	0.084653
H	0.2830029487005845 0.8923110562951189 0.5319550664418686	0.103690
H	0.3507540806001287 0.8373683028338100 0.5294828185002518	0.116043
H	0.4322895158413490 0.7640960395685542 0.5365757500567900	0.108598
Fe	0.4999766680748604 0.6889164584500329 0.7233844670759384	0.779382
Fe	-0.0000336256523720 0.1888922821953626 0.7239341230147595	0.779273
Fe	0.4999215492445642 0.3110787133647111 0.2239713364467914	0.779665
Fe	-0.0000632406489911 0.8110677992078652 0.2760885345516495	0.779522
F	0.5000390046359563 0.6883390957382003 0.5313887070865930	-0.531515
F	0.0000686302963866 0.1881795469930575 0.5321908749793933	-0.531474
F	0.5000173177196697 0.3116606305365772 0.0319731451439351	-0.531243
F	-0.0011008513270974 0.8095922969133291 0.9672931722508695	-0.615792
F	0.4985909189319116 0.6865370070825163 0.0325137786738246	-0.615996
F	-0.0017807030387738 0.1863999178201857 0.0328280288577430	-0.616021
F	0.4983758569125740 0.3096610895858505 0.5328286770328907	-0.615663
F	-0.0001970410386435 0.8114831399717911 0.4680942797326983	-0.531644
F	0.4778631150575852 0.7596212413386582 0.2576577122587664	-0.639632
F	0.5643986423689229 0.6659528708404305 0.2574617473097033	-0.636479
F	0.9764999345088134 0.2594335770613903 0.2574269724710984	-0.638910
F	0.0644151020517432 0.1665591816994664 0.2573460451706858	-0.636124
F	0.5646470601401621 0.2908129830631965 0.7571841434428737	-0.637664
F	0.4760033600781149 0.3825484359550875 0.7573121726047725	-0.633860
F	0.0643386451797822 0.7875327867781848 0.7421271264156694	-0.638166
F	0.9796233868686730 0.8836437144395491 0.7423978943891305	-0.634802
F	0.4490640296668790 0.6296796509338132 0.2562994445192299	-0.632250
F	0.9494216964156686 0.1287708279187289 0.2567160247839914	-0.631806
F	0.4499544694877072 0.2518379308531219 0.7563517625238666	-0.636759
F	0.9482425535573886 0.7543615881467673 0.7433562358313727	-0.637036
N	0.4356371878568185 0.6178636180591389 0.7469514670678865	-0.240174
N	0.5652600537156071 0.7589939012326584 0.7474688327873127	-0.244831
N	0.9356775331882685 0.1177777656263067 0.7477748249399161	-0.241326
N	0.0653356463770308 0.2589543385764319 0.7480364411789135	-0.246671
N	0.5641152086830337 0.3825911020748162 0.2486419862678571	-0.240380
N	0.4347340858246251 0.2408555196253316 0.2473527444695327	-0.247513
N	0.0640114316433373 0.8826220349332514 0.2514403901814359	-0.240212
N	0.9347345781146371 0.7409852694283956 0.2533384958370335	-0.247588
N	0.5645149144290489 0.6179904566800293 0.7472467129737097	-0.239372
N	0.4355156836472784 0.7598679642430589 0.7472505294547342	-0.245409
N	0.0645066189575331 0.1179622723030943 0.7483810499370988	-0.240037
N	0.9354860641775925 0.2598965691525020 0.7470980259774702	-0.246003
N	0.4361330622655710 0.3828526799822825 0.2483507154640663	-0.241454
N	0.5657828319547242 0.2416467303154899 0.2475040156891490	-0.246733
N	0.9362242952338781 0.8828340674867065 0.2514120968654009	-0.240935
N	0.0657676479873394 0.7417474203954815 0.2531311470590274	-0.247504
Al	0.4974777595665979 0.6853689111303288 0.2112112741370867	1.656340
Al	-0.0028157157173138 0.1853401859084688 0.2116263890062226	1.655274
Al	0.4972762243686342 0.3087618815698631 0.7113388120860459	1.654334
Al	-0.0022347845095765 0.8087594406779012 0.7885601048980846	1.656854
	  	
