#======================================================================

# CRYSTAL DATA

#----------------------------------------------------------------------

data_VESTA_phase_1


_pd_phase_name                         ALFFIVE_15_Cd_i
_cell_length_a                         30.36989
_cell_length_b                         29.59684
_cell_length_c                         8.18098
_cell_angle_alpha                      90.00014
_cell_angle_beta                       90.00031
_cell_angle_gamma                      89.99889
_symmetry_space_group_name_H-M         P 1
_symmetry_Int_Tables_number            1

loop_
_symmetry_equiv_pos_as_xyz
   x, y, z

loop_
   _atom_site_label
   _atom_site_fract_x
   _atom_site_fract_y
   _atom_site_fract_z
   _atom_site_charge
C	0.9309489949162613 0.0988640223849370 0.8924254513719380	0.093874
C	0.8988269640434313 0.0654838440500817 0.8978251255917399	-0.166276
C	0.7696567385432033 0.9361192938120969 0.8990459093669138	-0.116774
C	0.7363021844481674 0.9041904924936320 0.8988176612636749	-0.115461
C	0.5719011964220808 0.7441939086563993 0.8922919401290664	0.092511
C	0.6045625624934891 0.7770122474383696 0.8974882194601149	-0.169656
C	0.4312588485600607 0.5986194781135740 0.8921330488951273	0.101383
C	0.3990770286028748 0.5653097392369694 0.8978991857683144	-0.167170
C	0.2696065822480655 0.4361635786348715 0.8990214928848752	-0.115037
C	0.2362554631585448 0.4042162476676418 0.8988016653588662	-0.114935
C	0.0721338284803348 0.2438053066172828 0.8920072579817908	0.099205
C	0.1047266889048258 0.2766787345280818 0.8975342761004564	-0.169981
C	0.0702422306573319 0.8998767103827081 0.3921189468720145	0.103060
C	0.1016105740306952 0.9339924889256548 0.3979027480290727	-0.166870
C	0.2302504732525876 0.0639498863742742 0.3990350305067946	-0.115484
C	0.2635976097085078 0.0958953877227200 0.3988143096634824	-0.113296
C	0.4292711411856854 0.2546146671561095 0.3920083068054945	0.100108
C	0.3959116236056519 0.2225592497136389 0.3975320917198525	-0.170952
C	0.5700047324831120 0.4001502207899958 0.3924188574411357	0.094481
C	0.6013905376061320 0.4342580610250376 0.3978437712771590	-0.164091
C	0.7302796743849839 0.5639226759254711 0.3990240381723207	-0.116604
C	0.7636368077672129 0.5958488342498145 0.3988090893157733	-0.114432
C	0.9289941430351327 0.7548487204612924 0.3923123562430175	0.092713
C	0.8956679099073337 0.7227424326851097 0.3975002384369633	-0.170478
C	0.0701126697134787 0.1003271418924246 0.6078809996857065	0.102825
C	0.1014438621950473 0.0661766413048682 0.6021095463772401	-0.167679
C	0.2300492153579269 0.9361742927889326 0.6009572362612677	-0.114796
C	0.2635149008613353 0.9043607914301892 0.6011826336764794	-0.116165
C	0.4278750837844268 0.7443244046758302 0.6077115387972509	0.092804
C	0.3952481776674472 0.7771830532790907 0.6025104698780416	-0.168976
C	0.5685552959243013 0.5987849944069457 0.6078713507846790	0.100036
C	0.6007340438182895 0.5654748050651175 0.6021015199348478	-0.166879
C	0.7302127737596886 0.4363460620551842 0.6009561319001703	-0.115164
C	0.7634382560822660 0.4042649250687739 0.6011916960587784	-0.116476
C	0.9288791985177202 0.2453376197619197 0.6076922013671981	0.091713
C	0.8955300144712535 0.2774247101775279 0.6025075703409903	-0.169793
C	0.9308016393610808 0.9013590483507415 0.1075668887589072	0.093579
C	0.8986555602028495 0.9347187159874581 0.1021593873744747	-0.165306
C	0.7694222898619368 0.0640414325289157 0.1009559729400271	-0.115984
C	0.7361839622670835 0.0961054984437114 0.1011815942176162	-0.115804
C	0.5705117169325290 0.2547795171230877 0.1079795087866950	0.099695
C	0.6038944610388033 0.2227618616479826 0.1024612710822319	-0.170877
C	0.4297729143909015 0.4002756606952318 0.1075865975883318	0.095126
C	0.3983849726756919 0.4343910068658949 0.1021644591632240	-0.166006
C	0.2695149919252483 0.5641206943301333 0.1009756255985627	-0.117116
C	0.2360390688350938 0.5959264389301047 0.1011995503835646	-0.114775
C	0.0720003395495199 0.7563930561879285 0.1079957764109411	0.098498
C	0.1045811207535987 0.7235050852545561 0.1024786772509364	-0.169842
C	0.0702417683796667 0.8998761552781016 0.1078820575502918	0.103013
C	0.1016098127635015 0.9339922713918583 0.1020972465501459	-0.166823
C	0.2302505210654330 0.0639499232007763 0.1009622658331943	-0.115434
C	0.2635976731979429 0.0958953764415729 0.1011844247299022	-0.113209
C	0.4292705124010816 0.2546146464781513 0.1080003479507976	0.100199
C	0.3959114989131538 0.2225589266517748 0.1024757114171558	-0.171029
C	0.5700059415979798 0.4001502686505890 0.1075708500110995	0.094386
C	0.6013912456300211 0.4342582865355148 0.1021493741710497	-0.163934
C	0.7302793464639156 0.5639219926056745 0.1009748850307461	-0.116651
C	0.7636363714035959 0.5958481365151671 0.1011913921616098	-0.114486
C	0.9289939941692057 0.7548490293585388 0.1076907519188693	0.092677
C	0.8956677214077743 0.7227427360887713 0.1025002454255103	-0.170490
C	0.9309493214404604 0.0988637230979894 0.6075751397615281	0.093896
C	0.8988268251426808 0.0654835869715819 0.6021743507441157	-0.166299
C	0.7696566203602899 0.9361188263910539 0.6009548016075185	-0.116741
C	0.7363019653421147 0.9041903049130438 0.6011812578799529	-0.115548
C	0.5719014777875617 0.7441938397395040 0.6077075785723017	0.092512
C	0.6045626984013663 0.7770123457520619 0.6025145462100051	-0.169550
C	0.4312588139524886 0.5986198563888998 0.6078791980761726	0.101589
C	0.3990772654262671 0.5653099943942362 0.6021087904579852	-0.167160
C	0.2696062065958831 0.4361636127022395 0.6009788046986820	-0.114919
C	0.2362551296670400 0.4042163039567188 0.6011979685410686	-0.114966
C	0.0721334769929125 0.2438051601720023 0.6079949096558616	0.099294
C	0.1047262813048453 0.2766786932341442 0.6024687946561392	-0.170008
C	0.9308019828181612 0.9013596209866734 0.3924344675398121	0.093582
C	0.8986553700042144 0.9347188938346761 0.3978418194743845	-0.165260
C	0.7694228368833853 0.0640408871234132 0.3990412285171540	-0.115969
C	0.7361845114082172 0.0961049836778388 0.3988174295091623	-0.115767
C	0.5705123630301673 0.2547806212290767 0.3920127960363377	0.099713
C	0.6038954159738137 0.2227624726307189 0.3975298215658151	-0.170926
C	0.4297732969347145 0.4002747402041591 0.3924044723338287	0.095022
C	0.3983845505316156 0.4343895371407490 0.3978259711380988	-0.165738
C	0.2695156094962782 0.5641199789777066 0.3990217262008947	-0.117181
C	0.2360396666769010 0.5959257316456325 0.3987993193282905	-0.114698
C	0.0720004537123772 0.7563924663438854 0.3920090576357295	0.098489
C	0.1045810014431247 0.7235043367985021 0.3975243669070518	-0.169893
C	0.0701131346952377 0.1003264034868782 0.8921190942101488	0.102703
C	0.1014443345769157 0.0661759981530175 0.8978888860165384	-0.167619
C	0.2300496621968101 0.9361739445842059 0.8990442816384703	-0.114773
C	0.2635153245355981 0.9043605227419557 0.8988189443289245	-0.116132
C	0.4278758610375468 0.7443245413992451 0.8922829552296480	0.092749
C	0.3952489644402686 0.7771824246519475 0.8974873304793084	-0.168869
C	0.5685556131549295 0.5987841445043836 0.8921393904348763	0.100020
C	0.6007346214735964 0.5654741436057759 0.8979049486337772	-0.166798
C	0.7302133935852472 0.4363456058769776 0.8990468541002922	-0.115118
C	0.7634389989852675 0.4042643717577332 0.8988099951804183	-0.116563
C	0.9288794458340824 0.2453376031713579 0.8923124444070031	0.091571
C	0.8955303330293484 0.2774250021423679 0.8974972838494780	-0.169774
C	0.6553742225427903 0.8272307344226004 0.7500024899925294	-0.102658
C	0.8819428153407248 0.0482457315807356 0.7499991646522537	0.160337
C	0.8202399405812465 0.9857043441063003 0.7499996316276086	-0.099214
C	0.6217156263397218 0.7942216965522586 0.7500017437700137	0.167094
C	0.7867461385497387 0.9526723601061028 0.7500002737444295	0.126868
C	0.7189461789081154 0.8877245040901969 0.7499991980476248	0.136593
C	0.6848184996996967 0.8553107841997419 0.7500002814104482	-0.102375
C	0.8489220861257600 0.0146034878345322 0.7499991451843675	-0.106722
C	0.1553963537812796 0.3270949687257910 0.7500027408684572	-0.106810
C	0.3821114097772421 0.5481493020371516 0.7500031994822037	0.162989
C	0.3202603257850112 0.4857308371312758 0.7500002325769710	-0.095475
C	0.1218176326130258 0.2939746957753742 0.7500017169902952	0.170216
C	0.2867103522612476 0.4527250949129457 0.7500002529869589	0.127176
C	0.2189027916068230 0.3877217619741737 0.7499998692242307	0.135839
C	0.1847976386566797 0.3552427676080177 0.7500004765824011	-0.097688
C	0.3489939767323875 0.5145872422728895 0.7500013601491906	-0.108187
C	0.3442296499655849 0.1732397568505816 0.2500030120552212	-0.104666
C	0.1180056590494987 0.9517125142542755 0.2499982330206506	0.161498
C	0.1794265193430575 0.0145775627043932 0.2499974468138196	-0.097719
C	0.3782843002654040 0.2058417012663648 0.2500023128743548	0.168332
C	0.2130914761216843 0.0474594234778668 0.2499980068067922	0.127240
C	0.2808732144565894 0.1124600120056154 0.2499998830739990	0.136382
C	0.3148601612766973 0.1450606241350613 0.2500018032676175	-0.099027
C	0.1506274939240796 0.9857883902021812 0.2499985013318536	-0.108657
C	0.8441444581546009 0.6732795819013667 0.2499990113695114	-0.101993
C	0.6178373102247349 0.4519360977758916 0.2499973321967452	0.159368
C	0.6793903561667942 0.5146483404288066 0.2500005214006805	-0.102450
C	0.8781118263907323 0.7059675508794906 0.2499988015957387	0.167140
C	0.7130985881054882 0.5474596998647431 0.2500008149393744	0.126842
C	0.7809036351013936 0.6124203220828399 0.2499995972703844	0.137280
C	0.8148405478378321 0.6450496746687736 0.2499984596404915	-0.102648
C	0.6505239898124880 0.4859289127830642 0.2499988207678007	-0.107014
C	0.3444587275710449 0.8274300078502560 0.7500009368734233	-0.100030
C	0.1178380927769849 0.0484319638660512 0.7499988696718972	0.160973
C	0.1791927752265808 0.9854989353701897 0.7500003180320952	-0.097637
C	0.3781096223190425 0.7943928511073242 0.7499992052944443	0.165671
C	0.2128652169393921 0.9526388476537220 0.7500007936336256	0.124919
C	0.2808847188418064 0.8879140291454966 0.7500011104072030	0.139786
C	0.3150234306638467 0.8555140074756562 0.7500009963793758	-0.104774
C	0.1504180350225947 0.0143282854199885 0.7499980970713562	-0.109622
C	0.8439349853711389 0.3268135079261878 0.7500015366299939	-0.102169
C	0.6176974332735859 0.5483040791869261 0.7500025599480196	0.161411
C	0.6795901011410149 0.4859328690391790 0.7500022324896674	-0.095576
C	0.8779553168813791 0.2941840555715854 0.7500027635830405	0.167533
C	0.7131381222893595 0.4529293909182834 0.7500017992881339	0.127170
C	0.7806771009179703 0.3876608997481650 0.7500006828040571	0.138327
C	0.8145968372681548 0.3550148774450275 0.7500003204520641	-0.103160
C	0.6508189870762947 0.5147496392692825 0.7500015008045740	-0.107834
C	0.6555745108041331 0.1734536258855897 0.2499947932909974	-0.110274
C	0.8817632783170651 0.9519427777366554 0.2500002807417441	0.159400
C	0.8199948927496896 0.0144263315003959 0.2499980287886451	-0.102407
C	0.6215289158621985 0.2060451698808540 0.2499961384560415	0.172587
C	0.7864966063466812 0.0474669059875240 0.2499980000216444	0.130223
C	0.7189333127093740 0.1126945773430686 0.2500000149261943	0.135763
C	0.6849640871034151 0.1452931804591739 0.2499993128338815	-0.095847
C	0.8487147934099329 0.9855699251244897 0.2499990523667816	-0.101671
C	0.1552029479902149 0.6730506682738491 0.2500007051058595	-0.108076
C	0.3819316507454638 0.4520605833891864 0.2499956175319357	0.158955
C	0.3204327676992474 0.5148373547853755 0.2499955506625156	-0.102311
C	0.1216644175959234 0.7062056988877264 0.2500006685492389	0.170532
C	0.2867189655836974 0.5476646955998895 0.2499978388103431	0.128766
C	0.2186641312777199 0.6123931921981013 0.2500002784451621	0.136388
C	0.1845438687794598 0.6448443900907020 0.2500019559243881	-0.097169
C	0.3492473692061807 0.4860646725051637 0.2499944244081519	-0.105489
H	0.9450525825740279 0.1126854524864713 0.0047795469645171	0.107053
H	0.8869956542144042 0.0528474817560354 0.0148918387756272	0.119146
H	0.7830193409515427 0.9488271749375616 0.0138815355514377	0.106854
H	0.7230606217983991 0.8914417593198969 0.0136178783441998	0.114435
H	0.5583995180495345 0.7297946883235009 0.0047012731214799	0.105527
H	0.6168029947866628 0.7890161252280931 0.0147032130617518	0.123818
H	0.4457396311313562 0.6125589878480421 0.0034501704779548	0.102386
H	0.3872151114675073 0.5526275383958235 0.0148473561644660	0.118848
H	0.2829600770144487 0.4488646726119535 0.0138692716435283	0.107616
H	0.2230304286625734 0.3914853421385624 0.0136488869465167	0.114112
H	0.0584953130970051 0.2290297088996496 0.0033775978767435	0.100796
H	0.1170172085571008 0.2887138665072323 0.0146238019653651	0.123495
H	0.0570465005174838 0.8846416285551332 0.5033957529849422	0.101905
H	0.1134776835098901 0.9466763841415183 0.5148364536006580	0.118698
H	0.2169336867508871 0.0512084916885116 0.5138798941262384	0.107173
H	0.2768594809100235 0.1085937805009587 0.5136460129115820	0.114024
H	0.4441648947523552 0.2680594845541061 0.5033585800215240	0.101035
H	0.3836385391428487 0.2104886263382194 0.5145923239490214	0.124430
H	0.5570205505522663 0.3852002720156351 0.5047340715199550	0.106301
H	0.6132024188009814 0.4469043325142956 0.5149307582395184	0.118170
H	0.7169605697550420 0.5511716356212489 0.5138717860210749	0.106349
H	0.7769166900224656 0.6085438402786552 0.5136252667037740	0.114376
H	0.9435653835629542 0.7681409619299052 0.5046815702479284	0.105659
H	0.8834053712505356 0.7107318861689844 0.5146774011438453	0.124440
H	0.0569167278852445 0.1155651158936429 0.4966224682775479	0.101883
H	0.1132870003962898 0.0534927785464979 0.4851443183407291	0.118361
H	0.2166726548943143 0.9488394537404785 0.4860976690788547	0.106351
H	0.2768214995984543 0.8916782982840273 0.4863895435479390	0.115165
H	0.4413751860319327 0.7299286961556821 0.4952882033517381	0.106152
H	0.3830069231945679 0.7892148486709609 0.4853245128565333	0.123747
H	0.5540945818766225 0.6127459635659431 0.4965590416122652	0.102312
H	0.6125979572681393 0.5528050198573095 0.4851484529076923	0.119655
H	0.7169295603700947 0.4491173996966804 0.4861049966254905	0.107371
H	0.7766457143798665 0.3914806235848870 0.4863820341327590	0.115082
H	0.9434467786195532 0.2320492104528864 0.4953128987421676	0.105777
H	0.8832633226607604 0.2894363024423157 0.4853304783607730	0.124357
H	0.9449009701136935 0.8875291345965681 0.9952186789225349	0.107438
H	0.8868055774391036 0.9473418035021065 0.9850948293495264	0.118991
H	0.7827160594061674 0.0512446290355080 0.9861337317141515	0.107381
H	0.7229722104117788 0.1088526931678509 0.9863372837101650	0.114203
H	0.5556267697858031 0.2682365234855179 0.9966373439541015	0.100384
H	0.6161842757347060 0.2107119301523599 0.9853918298233222	0.123784
H	0.4427847698525552 0.3853582887631996 0.9952477984883343	0.106899
H	0.3865879976363682 0.4470512172290883 0.9850789123111415	0.118714
H	0.2829074929356787 0.5514546493558860 0.9861311491618739	0.106916
H	0.2227360158341214 0.6085703684968430 0.9863565942773085	0.114277
H	0.0583581946916008 0.7711585258885739 0.9966146884675726	0.101183
H	0.1168753747179920 0.7114682530518855 0.9854005292031327	0.123748
H	0.0570456722209543 0.8846401643405717 0.9966062484831049	0.101920
H	0.1134767824088398 0.9466754921569507 0.9851634924617517	0.118680
H	0.2169336801397296 0.0512083338462788 0.9861166558992646	0.107143
H	0.2768594816542357 0.1085936604119879 0.9863530151179000	0.114021
H	0.4441640586272426 0.2680604411890600 0.9966538940345857	0.101001
H	0.3836385221338167 0.2104880495254167 0.9854132001682682	0.124454
H	0.5570223743275149 0.3852011439209482 0.9952533871272220	0.106368
H	0.6132037029508169 0.4469047270694661 0.9850626329493279	0.118085
H	0.7169604015394094 0.5511709561042242 0.9861297213034307	0.106400
H	0.7769162002492034 0.6085435830333220 0.9863731910149426	0.114381
H	0.9435654306172681 0.7681415174954437 0.9953224226535631	0.105671
H	0.8834054543806479 0.7107328103056727 0.9853219413753768	0.124429
H	0.9450531424901283 0.1126843695697402 0.4952206658967903	0.107061
H	0.8869953068330688 0.0528472017297760 0.4851075630399190	0.119177
H	0.7830192505909424 0.9488263896656111 0.4861178560132281	0.106856
H	0.7230603590312835 0.8914409198479278 0.4863820865344663	0.114459
H	0.5584007176156972 0.7297944066064512 0.4952963756277364	0.105531
H	0.6168030765067956 0.7890165321891357 0.4853002039702616	0.123726
H	0.4457392019621637 0.6125606201993565 0.4965643928872066	0.102318
H	0.3872156928520888 0.5526283015225978 0.4851585116651347	0.118829
H	0.2829592399929034 0.4488644294754614 0.4861318146272863	0.107555
H	0.2230294842603744 0.3914850630531991 0.4863510412598496	0.114094
H	0.0584943248742115 0.2290293637426543 0.4966259995217195	0.100802
H	0.1170165482510892 0.2887133659896635 0.4853796127659311	0.123481
H	0.9449014787550145 0.8875298636986809 0.5047859496974286	0.107424
H	0.8868058821112451 0.9473421466226265 0.5149042103788690	0.118995
H	0.7827169946341612 0.0512437486967949 0.5138627769293450	0.107349
H	0.7229731588396497 0.1088518338168266 0.5136624948012460	0.114166
H	0.5556274911798096 0.2682373740629270 0.5033570409060906	0.100405
H	0.6161853707923194 0.2107124732574248 0.5145979379441696	0.123801
H	0.4427840686411472 0.3853575055022825 0.5047436815333441	0.106940
H	0.3865879758634085 0.4470500100503818 0.5149128625189391	0.118603
H	0.2829083738157169 0.5514536555175441 0.5138661604030923	0.106970
H	0.2227367553080514 0.6085694830514518 0.5136418557917003	0.114219
H	0.0583587069415359 0.7711570767030582 0.5033905526983676	0.101163
H	0.1168759821862225 0.7114657827207528 0.5146016942485753	0.123823
H	0.0569172373452614 0.1155637552272130 0.0033790228476699	0.101910
H	0.1132874914681020 0.0534921147896616 0.0148546278463837	0.118354
H	0.2166730191738658 0.9488391606038395 0.0139045399924865	0.106361
H	0.2768219519456390 0.8916780382864414 0.0136110276144569	0.115132
H	0.4413776281884976 0.7299289032185127 0.0047033152628249	0.106205
H	0.3830086666182783 0.7892141286979356 0.0146758574708555	0.123684
H	0.5540945155809165 0.6127437922880018 0.0034530184048160	0.102277
H	0.6125991281875937 0.5528033332653784 0.0148562578947312	0.119653
H	0.7169303838297484 0.4491167176389136 0.0138992005148418	0.107372
H	0.7766467094338336 0.3914799080577080 0.0136187040697691	0.115104
H	0.9434469253630512 0.2320489917606058 0.0046916438791631	0.105838
H	0.8832637962336890 0.2894364638784827 0.0146747485555850	0.124388
Cd	0.4998908653085327 0.6736390409982700 0.7500010670115471	0.829196
Cd	-0.0005902574003579 0.1732295460131286 0.7500108450185501	0.829317
Cd	0.4999305042364217 0.3274372541917561 0.2499740767168051	0.829615
Cd	-0.0006397895721096 0.8270850534371480 0.2500018947724241	0.829308
Al	0.4998561854495127 0.6739828768350473 0.2500009403484125	1.679490
Al	-0.0003540879145638 0.1731913439775166 0.2500253221618927	1.679378
Al	0.4998850792296466 0.3276576943587926 0.7499610519887844	1.680236
Al	-0.0003554300925240 0.8269288329860185 0.7499952826950158	1.680107
F	0.4997827268828723 0.6151537984326375 0.2499709846685001	-0.649550
F	0.9704744644757617 0.2239024808841389 0.2500357272990290	-0.637463
F	0.9709454615875514 0.1222503481808590 0.2500250922208150	-0.634821
F	0.4997833560479495 0.2688513132100914 0.7499262478637045	-0.652306
F	0.9705087037998117 0.7762216978048346 0.7499871253243837	-0.637266
F	0.9709496433109281 0.8778821664374169 0.7499802728583780	-0.635392
F	0.5495138326025696 0.7034626274575093 0.2500266718686900	-0.635991
F	0.0569780091863410 0.1732984066126877 0.2500172727656109	-0.651838
F	0.4504421565004663 0.3575350203522839 0.7499930345407436	-0.636833
F	0.4502411431131304 0.7035848724110512 0.2500194448068159	-0.636855
F	0.5493579924749139 0.3574361524002594 0.7499962395112374	-0.636179
F	0.0569641830691377 0.8267698655217354 0.7500121296970091	-0.651947
F	0.4997853787562317 0.6738588505286164 0.4743531183984347	-0.598020
F	-0.0001526468787284 0.1732485329584688 0.4742802594290493	-0.598526
F	0.4998993992524542 0.3272394992500910 0.9743633465714385	-0.598505
F	-0.0001727048882285 0.8269068223176143 0.9742911490070033	-0.598663
F	0.4997918584990197 0.6738744006974836 0.0256549681209349	-0.598003
F	-0.0001499933273292 0.1732432507291632 0.0257606119008091	-0.598517
F	0.4999101651726019 0.3272518406885941 0.5255806439579884	-0.598635
F	-0.0001648921965514 0.8269055245668182 0.5257043498925078	-0.598650
N	0.5558428147885651 0.7281694593087529 0.7499995699891725	-0.239933
N	0.9464928342377119 0.1153434539309593 0.7500007870220206	-0.238929
N	0.0560097673712573 0.2278165951229808 0.7500020128942119	-0.235359
N	0.4467592607584427 0.6151691914518514 0.7500068634647863	-0.235430
N	0.4454813366108945 0.2705186082023165 0.2500057754608144	-0.235691
N	0.0548355161051475 0.8832408980488428 0.2500018646252385	-0.235585
N	0.9452254338632188 0.7706845672199759 0.2500026799668142	-0.238436
N	0.5546737424817749 0.3834772818639214 0.2499946976694469	-0.238785
N	0.4439028128177550 0.7282695269083355 0.7499969434371770	-0.239447
N	0.0547426974389015 0.1169923952733912 0.7500004047259798	-0.235366
N	0.9451323715191641 0.2295287766534440 0.7500031925446792	-0.238220
N	0.5530423644744585 0.6153246688629072 0.7500058029012528	-0.235566
N	0.5542696359434874 0.2706419125524829 0.2499961496481335	-0.236560
N	0.9463572117714887 0.8848989174094669 0.2500010157561709	-0.237474
N	0.0558874233426707 0.7724021758268050 0.2500029287536871	-0.235267
N	0.4450907173577537 0.3835792832128471 0.2499943430168194	-0.237812
	  	
