#======================================================================

# CRYSTAL DATA

#----------------------------------------------------------------------

data_VESTA_phase_1


_pd_phase_name                         ALFFIVE_16_Co_i
_cell_length_a                         24.77351
_cell_length_b                         24.77259
_cell_length_c                         7.85431
_cell_angle_alpha                      90.00278
_cell_angle_beta                       89.99379
_cell_angle_gamma                      90.03300
_symmetry_space_group_name_H-M         P 1
_symmetry_Int_Tables_number            1

loop_
_symmetry_equiv_pos_as_xyz
   x, y, z

loop_
   _atom_site_label
   _atom_site_fract_x
   _atom_site_fract_y
   _atom_site_fract_z
   _atom_site_charge
C	0.4780708308432585 0.3928250663163377 0.3695005136747037	0.089111
C	0.4773010385712946 0.3368175698170218 0.3656286817838394	-0.167831
C	0.9544739708365947 0.6148373757077031 0.9425982653273202	-0.125840
C	0.9546180394776225 0.5587703685422257 0.9434210122425201	-0.122169
C	0.5218255964060264 0.6074761274767827 0.3676476262359917	0.095290
C	0.5228325985757730 0.6634557032555126 0.3630812594269315	-0.169654
C	0.0455278090028254 0.3854201758437145 0.9425910249315451	-0.125614
C	0.0453710762540613 0.4414878098674014 0.9433179158226153	-0.124363
C	0.6076475760712491 0.4783236942478170 0.3696186950494363	0.088011
C	0.6636250797341755 0.4773443340717384 0.3660416250433012	-0.168896
C	0.3853950680561950 0.9544432338440200 0.9425642088508246	-0.125659
C	0.4414546236630068 0.9545903143425262 0.9434599610951970	-0.123775
C	0.3929417354594307 0.5219282180025844 0.3680585554272058	0.090576
C	0.3369380360775056 0.5228192572138376 0.3635293488094713	-0.170174
C	0.6148748649837812 0.0455283557634732 0.9425736429548307	-0.125932
C	0.5588057239729383 0.0453611481282433 0.9433910574545179	-0.122282
C	0.5219223296822195 0.3929919138198645 0.6319683207425061	0.091341
C	0.5228317053903929 0.3369877095817349 0.6364763656673598	-0.170422
C	0.0455238717221239 0.6148791900159128 0.0574252860608995	-0.125959
C	0.0453564741999070 0.5588075951530751 0.0566075212615362	-0.122301
C	0.4783118445072524 0.6075903707941130 0.6303540578001543	0.087468
C	0.4773495643879547 0.6635685490611969 0.6339659908964878	-0.168687
C	0.9544452224329656 0.3853877780034710 0.0574338352225099	-0.125706
C	0.9545933696649619 0.4414504032596238 0.0565408912197729	-0.123787
C	0.3927666443314386 0.4780803864111871 0.6305196044610933	0.089117
C	0.3367613799583293 0.4772939361237531 0.6343567957110368	-0.167956
C	0.6148299521866905 0.9544685094402540 0.0574108554195391	-0.125644
C	0.5587671613612747 0.9546129899753690 0.0565808652808384	-0.122145
C	0.6075267129204253 0.5218203328328764 0.6323208959924268	0.095360
C	0.6635044229663208 0.5228168792361709 0.6369074232438796	-0.170341
C	0.3854248511091413 0.0455317176146390 0.0574056999451011	-0.125512
C	0.4414901974882007 0.0453731076025959 0.0566799110935417	-0.124529
C	0.5455276624814732 0.8854750608089164 0.5574265705795215	-0.126501
C	0.5453798706435917 0.9415389128591389 0.5566975995398566	-0.124241
C	0.0217841199565430 0.1073618465579409 0.1323219110803371	0.094894
C	0.0228033320661075 0.1633308041145374 0.1369084063626208	-0.169185
C	0.4544661449164804 0.1147988288777229 0.5574162020503552	-0.125871
C	0.4546009748598889 0.0587353640584160 0.5566128963760071	-0.123697
C	0.9780749071395589 0.8929223137496064 0.1305645521526878	0.087941
C	0.9773128641791342 0.8369283404177762 0.1343904485751387	-0.167708
C	0.1148095126582464 0.5455393250642308 0.5574500162140875	-0.125509
C	0.0587516815644776 0.5453789084212645 0.5566389176566828	-0.123394
C	0.8930709050634618 0.0219195815965183 0.1320009377411832	0.091679
C	0.8370755386778456 0.0228203689045918 0.1365284352699285	-0.170614
C	0.8854602225522766 0.4544318787763073 0.5574461054164431	-0.126575
C	0.9415173380197026 0.4545778305611322 0.5565682393101997	-0.122379
C	0.1074882022695140 0.9783232758171613 0.1304420237307443	0.087564
C	0.1634588461952159 0.9773621439285369 0.1340491893425972	-0.168339
C	0.4544409202067316 0.8854389006091516 0.4425626079566981	-0.125976
C	0.4545819464421921 0.9415008955980263 0.4434395677167903	-0.123651
C	0.9783201680205746 0.1074758266520892 0.8695501396140453	0.087232
C	0.9773595635131175 0.1634475495478672 0.8659469837711377	-0.168424
C	0.5455322501110078 0.1148318704578269 0.4425471548076013	-0.125560
C	0.5453739654701298 0.0587678051630341 0.4433641356285299	-0.123337
C	0.0219202657446115 0.8930916742303261 0.8680149538628573	0.091331
C	0.0228198167514148 0.8370946332695106 0.8634869773357118	-0.170330
C	0.8854974826411969 0.5455368347482854 0.4425601722445631	-0.126548
C	0.9415521762513570 0.5453845321363540 0.4432951889637153	-0.123364
C	0.1073820999393706 0.0217829456503050 0.8676571536510551	0.095052
C	0.1633491585429959 0.0228063400916728 0.8630701450923830	-0.169459
C	0.1147739387358821 0.4544574770309457 0.4425784984823076	-0.125834
C	0.0587191438405043 0.4545948731198594 0.4433871322207453	-0.123105
C	0.8929057351615826 0.9780761309155594 0.8694577580222376	0.088672
C	0.8369143582545562 0.9773138240252638 0.8656287447059077	-0.167759
C	0.5000483318368140 0.3074349182557346 0.5011421857544285	0.168790
C	0.5000580722545519 0.2502503986926724 0.5010918512503303	-0.114928
C	0.5000328538812556 0.2010088074222781 0.5003693714297155	-0.095702
C	0.5000105727838193 0.1437839382825742 0.5000350504045911	0.122892
C	0.4999880647658098 0.0298212998223374 0.5000233675443310	0.066366
C	0.0000469337656925 0.8075606555119933 -0.0011662192993594	0.169154
C	0.0000612660351215 0.7503647505058390 -0.0010823857583841	-0.115487
C	0.0000340421922919 0.7011159191627054 -0.0004440079353998	-0.095322
C	0.0000116298757736 0.6438406650506482 -0.0000624896475266	0.122864
C	-0.0000121351972044 0.5298263996887684 -0.0000226828448115	0.062847
C	0.5000428288956001 0.6929508684839845 0.4983734700606620	0.170437
C	0.5000454729763787 0.7501059095394367 0.4984511706663902	-0.116989
C	0.5000196072272654 0.7993212006576982 0.4993532476172637	-0.093482
C	0.4999944698317415 0.8565061862746366 0.4998680231925186	0.122858
C	0.4999847303104394 0.9704279655348192 0.5000644987407787	0.067198
C	0.0000319402151799 0.1928058831472940 0.0016110772356065	0.169695
C	0.0000306287302632 0.2499736025144380 0.0016098932237786	-0.115122
C	0.0000148599370430 0.2992022777907490 0.0006324431719246	-0.096351
C	-0.0000058914550428 0.3564433284167504 0.0001253854134427	0.123261
C	-0.0000157497342112 0.4704157547078184 -0.0000694235089742	0.068345
C	0.6929896111521939 0.5000259444722002 0.5016352165547877	0.171509
C	0.7501483889869101 0.5000274271829355 0.5015566582344859	-0.117470
C	0.7993598273132106 0.5000126299598023 0.5006596988744271	-0.093918
C	0.8565433277098206 0.4999931133846516 0.5001261248022695	0.124169
C	0.9704337211803712 0.4999862700010488 0.4999343221190520	0.063786
C	0.1928208984813780 0.0000378250496192 -0.0016150414309009	0.169638
C	0.2499824992526758 0.0000376054677606 -0.0016094745539297	-0.115052
C	0.2992141987551494 0.0000182716660264 -0.0006365314702461	-0.096402
C	0.3564506853269602 -0.0000041448515474 -0.0001312112306349	0.123178
C	0.4704167914424523 -0.0000165988937445 0.0000685667189556	0.068401
C	0.3073935252818362 0.5000291513926923 0.4988401835561412	0.169367
C	0.2502094840003223 0.5000426901377112 0.4988629495245743	-0.115477
C	0.2009741277960853 0.5000239577526636 0.4996195130426186	-0.095536
C	0.1437482414535207 0.5000089641827740 0.4999546087926283	0.122810
C	0.0298176346354946 0.4999882228518704 0.4999742194635310	0.067140
C	0.8075449971546010 0.0000487503098163 0.0011782395798174	0.169141
C	0.7503550945804349 0.0000636601598676 0.0010931378132522	-0.115569
C	0.7011049017889787 0.0000337101711124 0.0004500807469800	-0.095232
C	0.6438320958572458 0.0000113638536884 0.0000637208165536	0.122865
C	0.5298257433117517 -0.0000132498191261 0.0000214656126130	0.062878
H	0.4617974369642296 0.4165883325264699 0.2642892984084635	0.111406
H	0.4592716265493543 0.3161082757015528 0.2574020116384400	0.127593
H	0.9194143175407504 0.6370003019688585 0.8964391047809208	0.111893
H	0.9195714376899297 0.5368880754242804 0.8952856340324292	0.105315
H	0.5375427978353737 0.5833467216440780 0.2631925628970050	0.106766
H	0.5408201268783097 0.6841515373767288 0.2548223041301299	0.125991
H	0.0805859414099241 0.3632446670605073 0.8964743783763536	0.111512
H	0.0804145289754349 0.4633708837371915 0.8951802096496836	0.105329
H	0.5839173180684893 0.4630853684909256 0.2630744094714236	0.114174
H	0.6842819069099895 0.4594138368816521 0.2575932624120993	0.127723
H	0.3631819338698569 0.9193899421483132 0.8964060729451090	0.111944
H	0.4633194700272871 0.9195496012655715 0.8953487869390511	0.105279
H	0.4171690187019337 0.5386272668963350 0.2647183466522102	0.107411
H	0.3162254983271390 0.5409278868454531 0.2555015393467328	0.126684
H	0.6370526900486767 0.0806103247095870 0.8964200501099606	0.111611
H	0.5369392079259810 0.0803959069805634 0.8952645992345678	0.105288
H	0.5386070148221018 0.4172175269695395 0.7353018293444672	0.107275
H	0.5409431331280966 0.3162704902399826 0.7444569162163506	0.126806
H	0.0806021613071698 0.6370553051945894 0.1035759624254746	0.111657
H	0.0803913857358779 0.5369450197254078 0.1047376249698844	0.105294
H	0.4630645648385777 0.5838583852414677 0.7368544913376701	0.114083
H	0.4594294190655299 0.6842197626217229 0.7423982425808686	0.127766
H	0.9193933536974026 0.3631760073262151 0.1035923103200316	0.112043
H	0.9195525365717340 0.4633096796125181 0.1046583400741105	0.105208
H	0.4165323992972053 0.4618124729482341 0.7357674016072172	0.111268
H	0.3160470092436831 0.4592532988806182 0.7425976403571177	0.127368
H	0.6369940664283320 0.9194074052155949 0.1035709396746776	0.111825
H	0.5368780806597395 0.9195650135645119 0.1047121974856197	0.105238
H	0.5833907665258528 0.5375349415931199 0.7367889457835203	0.106795
H	0.6841945441439343 0.5408093966447949 0.7452078226805734	0.126049
H	0.3632473356698471 0.0805900152921498 0.1035251678579035	0.111506
H	0.4633771623773271 0.0804160093121452 0.1048128556909454	0.105400
H	0.5805962071171332 0.8633327423645540 0.6035611564661356	0.111851
H	0.5803806003964307 0.9635022872369656 0.6048180252227540	0.105277
H	0.0374535454737471 0.0832389913581590 0.2368338476696131	0.106688
H	0.0407347740490537 0.1840720823287273 0.2451638835477617	0.125814
H	0.4193861155333256 0.1369170585008049 0.6035905545348047	0.111912
H	0.4195965461656991 0.0367652059797929 0.6047203154142721	0.105431
H	0.9618046926667686 0.9166677786106822 0.2358385488701288	0.112145
H	0.9593187230682815 0.8161738399114814 0.2425698322512555	0.127573
H	0.1369430487866024 0.5806365857657571 0.6036187938730383	0.111479
H	0.0367800474637125 0.5803635352356443 0.6047240179575536	0.105080
H	0.9172842129215163 0.0386050419416488 0.2353591631640469	0.107039
H	0.8163199859434404 0.0409112357936930 0.2444839532763349	0.126691
H	0.8632793272975500 0.4193722646766330 0.6036245947340989	0.112165
H	0.9634699993083768 0.4195889332163668 0.6046707424621512	0.105191
H	0.0837658699193718 0.9631049173842618 0.2369796928831217	0.113853
H	0.1841493465390065 0.9594665119741114 0.2424192837241797	0.127930
H	0.4193804290078640 0.8632582498479187 0.3963918837300644	0.112018
H	0.4195843261696212 0.9634373664766340 0.3953325597173703	0.105252
H	0.9631003104203544 0.0837518691632101 0.7630226517836802	0.114041
H	0.9594623000592225 0.1841363715083985 0.7575797848483385	0.127985
H	0.5806301809582204 0.1369642581787520 0.3963842642864643	0.111460
H	0.5803666684565025 0.0368142768079695 0.3952613157384109	0.104990
H	0.0386069573588424 0.9173090753788754 0.7646491957789713	0.107101
H	0.0409104665594799 0.8163443159458779 0.7555239333763727	0.126565
H	0.8633563078139268 0.5806063087514589 0.3964188317673527	0.111753
H	0.9635375550140113 0.5803795469946805 0.3951815880462381	0.105362
H	0.0832634598524588 0.0374493637845492 0.7631372997788064	0.106680
H	0.1840938633234217 0.0407361454308462 0.7548129236351512	0.125908
H	0.1368987586186874 0.4193777423188461 0.3964052451578760	0.111930
H	0.0367318198866366 0.4195990196162987 0.3952891696467538	0.105172
H	0.9166539552217211 0.9618059463648552 0.7641829296554160	0.111624
H	0.8161609806532262 0.9593195668471890 0.7574442628658725	0.127561
Co	0.5000873801008663 0.5000923441615454 0.4999979462889551	0.589482
Co	0.0000744401291097 0.0000753165687631 0.0000004386833610	0.589694
Al	0.4984725042804364 0.4984737809991616 0.0000070349648592	1.675047
Al	-0.0015962465004021 -0.0015915353816344 0.5000058701678934	1.672979
F	0.5021771325684019 0.4975411186925476 0.2289230134495004	-0.593590
F	-0.0024805164131055 0.0021760606512997 0.7286438168050039	-0.592593
F	0.4975483863853946 0.5021931823562724 0.7710871356722807	-0.593542
F	0.0021853267914949 -0.0024761601367810 0.2713625105442020	-0.592595
F	0.4485869308880529 0.4486040497776878 0.0000320956909129	-0.642553
F	0.9484886910635121 0.9484929313643271 0.4999853220783623	-0.642371
F	0.4779254814661935 0.5661151279597717 0.0102209337953744	-0.647668
F	0.9777521348981609 0.0661150148016981 0.4897261418334001	-0.647470
F	0.5661137556553680 0.4779172480735465 0.9898115980083827	-0.647652
F	0.0661079087633449 0.9777580521642865 0.5102917215498425	-0.647417
N	0.4999701241845083 0.4205961164314415 0.5007584384922021	-0.182611
N	-0.0000291637523833 0.9206786620093086 -0.0007307624078892	-0.182248
N	0.5000714895923966 0.5798104305267666 0.4990011026246079	-0.188467
N	0.0000501610024054 0.0797097641367192 0.0009353790763644	-0.187746
N	0.5798611405914182 0.5000791748088801 0.5009579848934558	-0.189006
N	0.0797241270383808 0.0000511201289159 -0.0009491091062401	-0.187959
N	0.4205416677413098 0.4999862236181378 0.4992839720705592	-0.181703
N	0.9206626385098057 -0.0000295164706146 0.0007441736272959	-0.182687
	  	
