#======================================================================

# CRYSTAL DATA

#----------------------------------------------------------------------

data_VESTA_phase_1


_pd_phase_name                         ALFFIVE_7_Zn
_cell_length_a                         19.30242
_cell_length_b                         19.30260
_cell_length_c                         7.77398
_cell_angle_alpha                      90.06754
_cell_angle_beta                       89.93181
_cell_angle_gamma                      90.02263
_symmetry_space_group_name_H-M         P 1
_symmetry_Int_Tables_number            1

loop_
_symmetry_equiv_pos_as_xyz
   x, y, z

loop_
   _atom_site_label
   _atom_site_fract_x
   _atom_site_fract_y
   _atom_site_fract_z
   _atom_site_charge
C	0.6641228291182993 0.8723791467783835 0.7021091735499245	0.097813
C	0.6135274157487558 0.9236316437703627 0.7069907055573342	-0.181408
C	0.5785798306455173 0.8887866823671421 0.4236107317359374	-0.177229
C	0.6301847566596048 0.8388298365008735 0.4282000301956544	0.102549
C	0.8359195943960812 0.6277177702923556 0.7021393190286009	0.105186
C	0.8863923802972963 0.5764291499127078 0.7074776003250415	-0.182089
C	0.9215285513664846 0.6111759142555936 0.4241255475324649	-0.176130
C	0.8700000744626771 0.6612902397477138 0.4283130722448193	0.093962
C	0.6275225932171919 0.6635647858777726 0.7026416501225744	0.101124
C	0.5761602338032031 0.6130826415384536 0.7075421096829557	-0.180586
C	0.6107345657629935 0.5782968182705828 0.4238151775527392	-0.175197
C	0.6607538210239456 0.6299218434571642 0.4281326230804879	0.095321
C	0.8725340338858727 0.8347616244288001 0.7011526374411559	0.102000
C	0.9236351661624742 0.8855295436499133 0.7065330562219159	-0.182033
C	0.8880059356491091 0.9214476326483151 0.4245534856988899	-0.176768
C	0.8377447195184200 0.8700539396430632 0.4292242498489006	0.098346
C	0.3347625354229707 0.3725352462795248 0.2988471864059734	0.101996
C	0.3855298896435785 0.4236365604627658 0.2934665188767680	-0.182052
C	0.4214478802020712 0.3880064579022853 0.5754469179020171	-0.176754
C	0.3700544077245575 0.3377447375887158 0.5707761618150842	0.098344
C	0.1635671394013643 0.1275224696926173 0.2973574602127071	0.101119
C	0.1130853454311664 0.0761597828143700 0.2924559352696334	-0.180562
C	0.0782963304124920 0.1107321198405636 0.5761828324747277	-0.175246
C	0.1299213889725753 0.1607514623771452 0.5718656314123612	0.095187
C	0.3723817496344811 0.1641240465985211 0.2978889112852124	0.097861
C	0.4236336732954297 0.1135279489914612 0.2930046096191147	-0.181526
C	0.3887877046532421 0.0785795690703723 0.5763853697071717	-0.177347
C	0.3388309401556705 0.1301848376927569 0.5717981973709825	0.102691
C	0.1277189728709264 0.3359195706589386 0.2978579867675200	0.105159
C	0.0764306924588606 0.3863928653035174 0.2925180210479419	-0.182050
C	0.1111765720734935 0.4215274775857464 0.5758697526200461	-0.176085
C	0.1612901527221620 0.3699985420656348 0.5716837395773980	0.093978
C	0.4332710696507918 0.0694040832150081 0.4346064856078181	0.140881
C	0.4870101998025385 0.0163563273052565 0.4301702592734127	-0.122163
C	0.0667737038657341 0.4306277389973943 0.4342963764023958	0.141503
C	0.0129807102543916 0.4836061868008060 0.4300392545562435	-0.122114
C	0.4301490451495715 0.4328698575376956 0.4344446159895322	0.141923
C	0.4832205852268023 0.4866560335327472 0.4301618995176099	-0.123670
C	0.0690073339442231 0.0663873056190388 0.4343461563173558	0.138343
C	0.0159934863083366 0.0125965882848592 0.4300192577396558	-0.121303
C	0.5663885729220889 0.5690062901593060 0.5656504386368844	0.138308
C	0.5125975978901014 0.5159935667532138 0.5699777017790605	-0.121251
C	0.9328690296256488 0.9301490959254116 0.5655556416001130	0.141870
C	0.9866551418629891 0.9832199354479737 0.5698364259418682	-0.123616
C	0.5694042654424804 0.9332695473739376 0.5653887071319739	0.140821
C	0.5163572103401212 0.9870091169892701 0.5698226600548374	-0.122107
C	0.9306281638908203 0.5667729072975314 0.5656962475598403	0.141519
C	0.9836067088775052 0.5129796180634333 0.5699547091670794	-0.122058
H	0.6982615599288133 0.8632705545964524 0.8117692811653706	0.106140
H	0.6089727623080712 0.9563466569728559 0.8209267037556264	0.115445
H	0.5450020699103029 0.8920145882999708 0.3113491904360017	0.113942
H	0.6391773839962818 0.8039699573733859 0.3201489023840784	0.096272
H	0.8011688882625966 0.6370223463982155 0.8102814069398000	0.096199
H	0.8910230552642829 0.5436850191365638 0.8211275321379057	0.113865
H	0.9551537568550948 0.6080174287478869 0.3116964893997242	0.115324
H	0.8614325169603668 0.6958329630143026 0.3191298917224030	0.106488
H	0.6375270706320711 0.6969355412004992 0.8129419365387049	0.103231
H	0.5436280172117413 0.6083858700431372 0.8217444955127003	0.113738
H	0.6074329149557960 0.5449319976274312 0.3109661008277805	0.114134
H	0.6943622709919496 0.6395070912965350 0.3180096641563604	0.104987
H	0.8642502639144330 0.7991365495685679 0.8082939202537468	0.100760
H	0.9566866054419528 0.8899180692962924 0.8197434757533961	0.113972
H	0.8909683621438874 0.9554245351166881 0.3129397217690140	0.114712
H	0.8018037618615269 0.8622536540840652 0.3225270056075114	0.099796
H	0.2991380429559669 0.3642500942091433 0.1917073748586466	0.100794
H	0.3899189686792620 0.4566873767431091 0.1802560775842558	0.113945
H	0.4554234563816227 0.3909679008712594 0.6870608851037459	0.114665
H	0.3622529056269330 0.3018026888999765 0.6774714785103483	0.099792
H	0.1969376802411087 0.1375277986934466 0.1870550902828493	0.103212
H	0.1083884085337791 0.0436289489823537 0.1782547211038966	0.113723
H	0.0449295044876790 0.1074305125424185 0.6890300235283144	0.114206
H	0.1395044871914286 0.1943600496492743 0.6819873713512768	0.105020
H	0.3632736999049850 0.1982634973758558 0.1882289572835364	0.106150
H	0.4563484245488623 0.1089722594399623 0.1790661714560291	0.115539
H	0.3920146539756626 0.0450006607648248 0.6886464839949232	0.113959
H	0.3039705585622660 0.1391770011921645 0.6798502628828128	0.096191
H	0.1370247276365167 0.3011708096804169 0.1897137346585811	0.096209
H	0.0436869898245532 0.3910239837336692 0.1788678454168650	0.113839
H	0.1080169568429656 0.4551520508810947 0.6882991057303255	0.115294
H	0.1958318314477021 0.3614294506923658 0.6808660691050025	0.106464
H	0.5056120914417732 0.0018547598258683 0.3020351075662361	0.100760
H	0.9944516606853830 0.4981596236332919 0.3020429210606911	0.100593
H	0.4977812065043671 0.5052413832886797 0.3021044199101507	0.101409
H	0.0014457635269603 0.9940106776654902 0.3019918053856188	0.100407
H	0.4940106323647039 0.5014453740303703 0.6980062336364558	0.100387
H	0.0052410512596664 0.9977801522851307 0.6978936015305274	0.101412
H	0.5018552464629097 0.0056114891348710 0.6979571171813671	0.100747
H	0.9981602890352484 0.4944503747903839 0.6979497131928567	0.100565
Zn	0.2496186819162250 0.2496136998062377 0.4345875039422413	0.740063
Zn	0.7496109232819963 0.7496171969460707 0.5654161806000353	0.740049
Al	0.2516242351301990 0.2517600173223066 0.9348512433540834	1.677686
Al	0.7517559476368966 0.7516238034554451 0.0651668287537088	1.677445
F	0.2520743131897352 0.2494120830575078 0.1698223736039911	-0.582992
F	0.2489134976971910 0.2516876931598240 0.6998654315600397	-0.583203
F	0.7493867537187260 0.7520693963338283 0.8301925419157359	-0.582995
F	0.7516904864593582 0.7489125578513318 0.3001527702553139	-0.583179
F	0.1866907444026286 0.1890253660750182 0.9355585709347803	-0.638580
F	0.2309541921992812 0.3395155587325251 0.9398775810261295	-0.640559
F	0.3388851082818458 0.2288464412561889 0.9292815807122028	-0.640346
F	0.7288496120754855 0.8388877986755636 0.0707381681948579	-0.640293
F	0.8395172287789491 0.7309762865539625 0.0601509052462516	-0.640497
F	0.6890241818550272 0.6866892983767571 0.0644587324676374	-0.638520
N	0.3305801727966450 0.1722948021436984 0.4352107548805616	-0.226309
N	0.1694416330170388 0.3277545518940115 0.4347387866896925	-0.225178
N	0.3272795982087720 0.3301913430418560 0.4350132726846451	-0.222156
N	0.1719295418565017 0.1691660426190224 0.4347252726086871	-0.228803
N	0.6691668619093858 0.6719282599594625 0.5652745128380899	-0.228820
N	0.8301913258072143 0.8272789884798757 0.5649872954885892	-0.222183
N	0.6722939706148691 0.8305779617841133 0.5647889129907609	-0.226241
N	0.8277555215574619 0.6694417033301303 0.5652588551167875	-0.225139
	  	
