#======================================================================

# CRYSTAL DATA

#----------------------------------------------------------------------

data_VESTA_phase_1


_pd_phase_name                         ALFFIVE_1_Co
_cell_length_a                         10.98821
_cell_length_b                         10.98817
_cell_length_c                         8.05049
_cell_angle_alpha                      90.09237
_cell_angle_beta                       89.90665
_cell_angle_gamma                      90.02197
_symmetry_space_group_name_H-M         P 1
_symmetry_Int_Tables_number            1

loop_
_symmetry_equiv_pos_as_xyz
   x, y, z

loop_
   _atom_site_label
   _atom_site_fract_x
   _atom_site_fract_y
   _atom_site_fract_z
   _atom_site_charge
C	0.2599747115575825 0.4568238026978934 0.3673267915819282	0.092937
C	0.1335407408199250 0.4562465660230637 0.3633531524272022	-0.173089
C	0.7406825230369406 0.5425453390120037 0.3680397679917690	0.096111
C	0.8670549925705163 0.5436532049120004 0.3635198257773609	-0.173725
C	0.5428379223477511 0.2597628719077830 0.3682492297144868	0.096096
C	0.5437934780255964 0.1333685271271200 0.3636184942369920	-0.173286
C	0.4572150630304200 0.7404252255001315 0.3678033178420154	0.090625
C	0.4564037844669097 0.8668215439825928 0.3638071788584872	-0.171914
C	0.7404239983761248 0.4572169261662317 0.6322011754932215	0.090694
C	0.8668201143562450 0.4564056787033731 0.6361976207884538	-0.171934
C	0.2597608183548880 0.5428383635445029 0.6317499743492531	0.096110
C	0.1333669464899618 0.5437938090978472 0.6363816399608052	-0.173271
C	0.4568222978004964 0.2599740160569570 0.6326746013238990	0.092958
C	0.4562454918281740 0.1335395500729265 0.6366489867299737	-0.173036
C	0.5425443716681414 0.7406805223828791 0.6319622830181452	0.096213
C	0.5436531377414743 0.8670533010285516 0.6364820149698429	-0.173666
C	0.0674064564632720 0.5000720697351494 0.4998808015775972	0.099436
C	0.9329854926837298 0.5000546612037107 0.4998329783749785	0.096939
C	0.5000713920242943 0.0674064907629045 0.5001210614160858	0.099405
C	0.5000539190370943 0.9329850620887024 0.5001693345313054	0.096959
H	0.3143835524178640 0.4245048398567007 0.2626927049733246	0.109978
H	0.0875877159028177 0.4197573344310906 0.2542883399487552	0.124466
H	0.6859631814488568 0.5729243205141631 0.2636014127042800	0.107091
H	0.9128740920417505 0.5798098147940246 0.2542571229683788	0.122717
H	0.5751418481403295 0.3149978394842490 0.2648792919802162	0.104492
H	0.5800867328704012 0.0872461094033078 0.2544858154618728	0.122844
H	0.4272249096461963 0.6865358766796861 0.2618518519034724	0.111495
H	0.4202097192609586 0.9123056047236495 0.2544146305527188	0.123853
H	0.6865332246115000 0.4272258807436983 0.7381529710596171	0.111530
H	0.9123030277232602 0.4202114784771772 0.7455912596116767	0.123849
H	0.3149952628299124 0.5751404264060087 0.7351192301119147	0.104545
H	0.0872433234639054 0.5800866468573870 0.7455139417123003	0.122849
H	0.4245046123352304 0.3143823689648393 0.7373095941384362	0.110049
H	0.4197565333683231 0.0875854749673474 0.7457150035549233	0.124416
H	0.5729234667699821 0.6859603993495796 0.7364007060091315	0.107136
H	0.5798103126967169 0.9128715776944107 0.7457432183009808	0.122666
Co	0.5000510399783427 0.5000514390752149 0.5000003196878089	0.577807
Al	0.4994506097390204 0.4994517194223723 -0.0000051804876248	1.669541
F	0.5012928659400997 0.4995712462767152 0.7724593742063687	-0.595247
F	0.4995806918053232 0.5013018923828516 0.2275270020409137	-0.594209
F	0.3872230374877998 0.3872173561472755 -0.0000087033249420	-0.644085
F	0.6524475139980638 0.4570819964007332 0.0020413503741287	-0.644503
F	0.4571019227919668 0.6524559024491323 0.9979456470173562	-0.644521
N	0.3219364443430734 0.4998294612129536 0.4995673678811947	-0.183272
N	0.6784204575458951 0.4998786514319162 0.5001051615242256	-0.186360
N	0.4998283186534342 0.3219371921206093 0.5004317889299560	-0.183224
N	0.4998779475094211 0.6784196787265711 0.4998987061948110	-0.186463
	  	
