#======================================================================

# CRYSTAL DATA

#----------------------------------------------------------------------

data_VESTA_phase_1


_pd_phase_name                         ALFFIVE_1_Ni
_cell_length_a                         11.27239
_cell_length_b                         11.27234
_cell_length_c                         7.71718
_cell_angle_alpha                      89.94284
_cell_angle_beta                       90.05563
_cell_angle_gamma                      90.01899
_symmetry_space_group_name_H-M         P 1
_symmetry_Int_Tables_number            1

loop_
_symmetry_equiv_pos_as_xyz
   x, y, z

loop_
   _atom_site_label
   _atom_site_fract_x
   _atom_site_fract_y
   _atom_site_fract_z
   _atom_site_charge
C	0.2535427962491836 0.4564408676136884 0.3633950006224368	0.102942
C	0.1301421509626112 0.4558814192943684 0.3583092617782567	-0.177959
C	0.7475397386460160 0.5429081731765935 0.3630603193411402	0.105913
C	0.8708299292458517 0.5439048890685932 0.3579818972925840	-0.177046
C	0.5433207778244694 0.2535598535143379 0.3640713400981692	0.107516
C	0.5440578470381485 0.1303026199046377 0.3587332740022311	-0.179343
C	0.4570944028923661 0.7474869764585929 0.3637340741771969	0.097867
C	0.4562220675603884 0.8708950112698326 0.3586970371507728	-0.175225
C	0.7474824605422886 0.4570927251633034 0.6362645262508081	0.097851
C	0.8708903511369648 0.4562252094666494 0.6413072415083019	-0.175161
C	0.2535558700460592 0.5433251067612433 0.6359298058657930	0.107588
C	0.1302987905241668 0.5440635398849879 0.6412681759372536	-0.179313
C	0.4564367845539950 0.2535430042837102 0.6366092344710422	0.102956
C	0.4558757983085862 0.1301428834191352 0.6416963556746298	-0.178013
C	0.5429057489846614 0.7475368368702434 0.6369377749186408	0.106002
C	0.5438982227100053 0.8708269564752096 0.6420208098088760	-0.177085
C	0.0660803152178555 0.4999050720396249 0.4997679521243339	0.103652
C	0.9350504836573309 0.4999679050125146 0.4996653279548116	0.099543
C	0.4998991322840329 0.0660824685784938 0.5002376330555551	0.103762
C	0.4999613852810877 0.9350520142307621 0.5003385543555410	0.099553
H	0.3057404150503319 0.4222512512781901 0.2550844769773157	0.103268
H	0.0844133311361698 0.4191318382556363 0.2459771687022088	0.119712
H	0.6951423858529764 0.5748249819663969 0.2541528349686011	0.099618
H	0.9164427380255554 0.5802975269084569 0.2455208321188211	0.117256
H	0.5778870004821144 0.3064173449320994 0.2570000946745015	0.096738
H	0.5807540942712103 0.0844912699024675 0.2466912564642526	0.118479
H	0.4257865033474753 0.6956831609198549 0.2534604222453983	0.107010
H	0.4199217942245210 0.9162642779628319 0.2457152345969090	0.118788
H	0.6956775201363562 0.4257801864902802 0.7465388754249255	0.107031
H	0.9162547552315740 0.4199249921299530 0.7542931170987274	0.118768
H	0.3064125417941250 0.5778898622500767 0.7429985532353636	0.096705
H	0.0844862092183091 0.5807593713491868 0.7533107804256335	0.118452
H	0.4222496577092583 0.3057398510452108 0.7449211407234473	0.103256
H	0.4191268233292254 0.0844118474273685 0.7540314475323797	0.119724
H	0.5748198626831107 0.6951370749170677 0.7458465239016910	0.099610
H	0.5802883245698510 0.9164375063200179 0.7544822096714027	0.117257
Ni	0.5003553808381068 0.5003559555843591 0.4999943589829033	0.766659
Al	0.4979663422228834 0.4979497534207175 -0.0000051683060786	1.678659
F	0.5015873565291682 0.4982054254521874 0.7612464542383832	-0.589676
F	0.4982032284992478 0.5015788736541507 0.2387342536319061	-0.589675
F	0.3890506301302538 0.3890336917120107 -0.0000271770668694	-0.633004
F	0.6461612253888608 0.4556709332049673 0.0048199681822149	-0.633527
F	0.4557280174581427 0.6461560417070388 0.9951903731856260	-0.633476
N	0.3141975971298704 0.4999400723695380 0.4998307959001376	-0.234564
N	0.6867208286093441 0.5000114122343159 0.4994508219252475	-0.237244
N	0.4999363631492774 0.3142002334720629 0.5001703184755998	-0.234554
N	0.5000140373165939 0.6867217916470231 0.5005445957009750	-0.237271
	  	
