#======================================================================

# CRYSTAL DATA

#----------------------------------------------------------------------

data_VESTA_phase_1


_pd_phase_name                         ALFFIVE_13_Cd_i
_cell_length_a                         15.80307
_cell_length_b                         15.78540
_cell_length_c                         7.95787
_cell_angle_alpha                      89.47199
_cell_angle_beta                       90.25259
_cell_angle_gamma                      89.67696
_symmetry_space_group_name_H-M         P 1
_symmetry_Int_Tables_number            1

loop_
_symmetry_equiv_pos_as_xyz
   x, y, z

loop_
   _atom_site_label
   _atom_site_fract_x
   _atom_site_fract_y
   _atom_site_fract_z
   _atom_site_charge
C	0.5372066767379838 0.6955552853493289 0.8700408476175115	0.110655
C	0.5416202198763551 0.7836363078894798 0.8695596186386586	-0.153999
C	0.4638459270875148 0.3104218190179896 0.8805364022363571	0.106918
C	0.4603909032295404 0.2222660053826817 0.8803560093803998	-0.142692
C	0.8081880032627375 0.9744079291948814 0.3628190901587495	0.104532
C	0.7201859384980155 0.9718680896533896 0.3592012417639475	-0.140187
C	0.3078021879625252 0.5422904833898325 0.8654540599258178	0.105086
C	0.2197268427133924 0.5468245538737087 0.8647870347267840	-0.155362
C	0.1943321838769104 0.9765574704313553 0.3552972842768407	0.095890
C	0.2823675786887944 0.9749786591700110 0.3534650100260964	-0.140084
C	0.6935518279516064 0.4662290484715453 0.8839783609064815	0.102373
C	0.7815143788110014 0.4628188303006077 0.8806642155477024	-0.143959
C	0.4587459279682614 0.6945098051360395 0.1166540374711558	0.105024
C	0.4554105904812156 0.7826011894293855 0.1192376686309365	-0.143166
C	0.5401470051056783 0.3100072925302805 0.1315656233742531	0.103305
C	0.5438264084763499 0.2218458713004412 0.1353984538859968	-0.154333
C	0.1926198030135865 0.0126360753552936 0.6386913207975953	0.105361
C	0.2804735102023376 0.0160352421629379 0.6457085100377974	-0.140595
C	0.6943105965575604 0.5409546834021591 0.1344208083713078	0.110154
C	0.7822936141945503 0.5453450219493965 0.1344928479062225	-0.154039
C	0.8087501962253288 0.0269144925319596 0.6350561936183247	0.106048
C	0.7208075945206359 0.0281466747951615 0.6411821706923755	-0.142167
C	0.3086785924470408 0.4603547620041216 0.1100809078532145	0.109416
C	0.2206921819906597 0.4577561881810236 0.1132551008213457	-0.144670
C	0.9679835208171248 0.8057886031852310 0.6339352905170851	0.104767
C	0.9664361689008714 0.7176455947496901 0.6385904578031825	-0.139483
C	0.9856393510374711 0.1903402198847574 0.6447105139975444	0.096484
C	0.9832888783823184 0.2783981638207703 0.6486525600228895	-0.141207
C	0.0185681386187446 0.8066724326134972 0.3596688278214987	0.106436
C	0.0210741128261842 0.7187004973699274 0.3548052563302850	-0.140320
C	0.0221956877121889 0.1912468827237045 0.3611355691275561	0.106482
C	0.0245483687542524 0.2792846578242145 0.3559798889472961	-0.140103
C	0.0035492745419638 0.3236193427154888 0.5020040533831578	0.040082
C	0.0016312211753493 0.4164663713018498 0.5009099697153012	0.257102
C	0.4988964538431565 0.8279080399841051 0.9950456195339970	0.056840
C	0.4999835547153694 0.9212817707093132 0.9998644419823349	0.248654
C	0.9944701786953347 0.6732984881159335 0.4971901505953401	0.035504
C	0.9967637387919001 0.5802740956472462 0.4984011454654869	0.247660
C	0.5018760676945837 0.1773127585441602 0.0090882038956064	0.054782
C	0.5013484440321337 0.0838380815455055 0.0100114342437302	0.253189
C	0.6756482982485854 -0.0004154607951408 0.5007115670756920	0.038370
C	0.5827269022380682 0.9978344237710304 0.5026167215890028	0.245440
C	0.1755178171877113 0.5026634073096418 0.9893972414278683	0.057466
C	0.0822336709472178 0.5034135660762401 0.9929133567830689	0.249101
C	0.3262031867360310 0.9959146067129517 0.5007908493647992	0.040017
C	0.4190002292617363 0.9961385008766592 0.5031423570441466	0.256318
C	0.8266110214385363 0.5042089929865630 0.0070655293852429	0.054621
C	0.9198906249740665 0.5041086336287992 0.0044418193546997	0.249562
H	0.5645294300812201 0.6580811096415514 0.7692424582132928	0.104732
H	0.5765160215884054 0.8170349888607703 0.7717466717820797	0.121266
H	0.4372971840944612 0.3482551620402849 0.7768066094201324	0.111072
H	0.4283327213315272 0.1886688717703578 0.7796104174045728	0.118713
H	0.8457499678714392 0.9545889783469454 0.2547934262303247	0.108979
H	0.6869470993170110 0.9493066443931431 0.2482427537232060	0.118341
H	0.3453362722530529 0.5726039941634543 0.7669690882806012	0.103123
H	0.1862428815909901 0.5829573938974405 0.7675915583976833	0.121781
H	0.1577691394777853 0.9645269123265370 0.2408625918484506	0.110403
H	0.3158687148998503 0.9590998892556429 0.2385238226309828	0.115044
H	0.6549081718582380 0.4405707803562877 0.7826024886611779	0.112033
H	0.8148218900367811 0.4311309674570507 0.7792789747176324	0.116875
H	0.4312656326602589 0.6558624211063914 0.2168789525110754	0.111986
H	0.4227212022263767 0.8159888519297278 0.2192080471488193	0.116844
H	0.5684545233599348 0.3478654134264974 0.2312196448920833	0.102991
H	0.5773455482524327 0.1886252684432865 0.2365126954804663	0.121730
H	0.1544525448598218 0.0230285195360397 0.7507211620147435	0.107690
H	0.3124831672092822 0.0324191034844211 0.7623178903055234	0.118080
H	0.6571026124374487 0.5662117215710128 0.2376843245374040	0.105201
H	0.8156225955153374 0.5786344039053366 0.2339498666262990	0.120240
H	0.8469686325010045 0.0459743771998181 0.7427210789321408	0.100639
H	0.6881125687194558 0.0495105854870130 0.7534319995207218	0.119667
H	0.3468840210735004 0.4312753004750007 0.2100670859557831	0.108368
H	0.1873741261260718 0.4242281006395149 0.2130985387071168	0.117810
H	0.9489526116651762 0.8432295403214369 0.7426059121372586	0.109790
H	0.9452123972617397 0.6841951539003799 0.7509317648236861	0.117405
H	0.9735296684735762 0.1527477235651314 0.7583468709889135	0.109534
H	0.9669246598889821 0.3109514227369157 0.7642501815781649	0.119504
H	0.0364465740082149 0.8451340845543589 0.2510155778610983	0.100697
H	0.0427485785343019 0.6862752230036147 0.2425865442038559	0.118159
H	0.0332960898151694 0.1539386719420186 0.2484021740051270	0.106582
H	0.0403891564271276 0.3125962687620996 0.2399699848040030	0.117074
N	0.9508551501056249 0.5388689187533641 0.6161109601529664	-0.136179
N	0.4251842483062515 0.0453969865529835 0.0101074697364140	-0.152612
N	0.5421349373382475 0.0436167535943226 0.6208196136686714	-0.136609
N	0.9593513783256443 0.4279960916043916 0.0020223988302118	-0.145950
N	0.0451612442018614 0.5412300253131050 0.3820930885436573	-0.135249
N	0.5768297287485290 0.0432901789007118 0.0116823025328208	-0.152618
N	0.9592400051391777 0.5798318452797477 0.0029105208892597	-0.148456
N	0.5429768952814745 0.9489232130935127 0.3882438538995995	-0.134942
N	0.0482153499630287 0.4578686447534562 0.3843765756124380	-0.131845
N	0.5761240181158297 0.9597152730903218 0.0020201723977022	-0.147914
N	0.4597357809230517 0.9480051199840588 0.3889042331981927	-0.129674
N	0.0427077334648980 0.5795046208927264 0.9928222136230287	-0.150289
N	0.9528024501289935 0.4555162562046635 0.6162935283805994	-0.131585
N	0.4245957774991101 0.9617071300069218 0.0083719270170496	-0.142568
N	0.0429613118263326 0.4276520074953694 0.9993244489958442	-0.149701
N	0.4587928964729527 0.0428574655092987 0.6208576196258812	-0.134080
N	0.0037732194179848 0.1480390319962862 0.5028771460124077	-0.231051
N	0.4978902119595095 0.6521384479533111 0.9928273574826588	-0.230634
N	0.9935657064303633 0.8490324556621198 0.4968752056776982	-0.226284
N	0.5016622243045102 0.3530086624499665 0.0058793839965994	-0.228040
N	0.8512461295344124 0.0010556465863811 0.4985481701822997	-0.224866
N	0.3510351086818566 0.5006018491520026 0.9867228308224394	-0.228332
N	0.1507439105990412 0.9942329447345705 0.4959635026595787	-0.229337
N	0.6510222319138433 0.5032860948633058 0.0102347756123438	-0.230561
Cd	0.0015613222675469 0.9987959454390539 0.4977046803450816	0.828632
Cd	0.5011856559054223 0.5026707711091043 0.0005905408923474	0.829241
Al	0.9982974799363353 0.9948784092374557 0.9976955366881366	1.687794
Al	0.4955033129959430 0.4978781029717426 0.5007447049537519	1.692285
F	0.0008110302225793 -0.0060528319470785 0.2244771860802127	-0.594678
F	0.5250042031144119 0.4839078648680145 0.7241578600118641	-0.602424
F	-0.0031980050407768 0.9974213359448516 0.7712911958223811	-0.594756
F	0.4694292429175380 0.5148727036981837 0.2765113293288473	-0.604797
F	0.9206610509061728 0.9171269358127114 -0.0009873836057130	-0.650696
F	0.4224999301764232 0.4160573168781749 0.5160423398511058	-0.658796
F	0.9694799405011902 0.1017210446721837 0.9985110548177089	-0.639935
F	0.4620869640104149 0.6009279162993442 0.5438912562065732	-0.662512
F	0.1049577853973431 0.9656711903693530 -0.0036563163299301	-0.639745
F	0.5992623621404424 0.4734752665154100 0.4440899829701631	-0.659867
	  	
