#======================================================================

# CRYSTAL DATA

#----------------------------------------------------------------------

data_VESTA_phase_1


_pd_phase_name                         ALFFIVE_16_Cu_i
_cell_length_a                         24.90598
_cell_length_b                         24.90600
_cell_length_c                         7.85149
_cell_angle_alpha                      90.00304
_cell_angle_beta                       89.99799
_cell_angle_gamma                      90.04887
_symmetry_space_group_name_H-M         P 1
_symmetry_Int_Tables_number            1

loop_
_symmetry_equiv_pos_as_xyz
   x, y, z

loop_
   _atom_site_label
   _atom_site_fract_x
   _atom_site_fract_y
   _atom_site_fract_z
   _atom_site_charge
C	0.4783720844343792 0.3909465116481834 0.3692215674231338	0.099801
C	0.4774723200511006 0.3352129046133634 0.3651942646425484	-0.170238
C	0.9547118425835841 0.6144019655556622 0.9428565136804649	-0.125299
C	0.9548625584331788 0.5586090245874624 0.9436548449433870	-0.123880
C	0.5210701603953426 0.6093140573661232 0.3668841845003741	0.102483
C	0.5223450711639680 0.6650087382173293 0.3622088922190822	-0.168814
C	0.0452819623239065 0.3859969547214346 0.9429880098886053	-0.125429
C	0.0451102219632556 0.4417810988933705 0.9435961026232640	-0.123157
C	0.6094485188366365 0.4789978951473470 0.3685113482228672	0.096689
C	0.6651536569385391 0.4777949355533085 0.3650311122035630	-0.169940
C	0.3859488894362980 0.9546811661450625 0.9427770206503246	-0.125578
C	0.4417329030976501 0.9548535325709521 0.9437612275680135	-0.123574
C	0.3911390455638583 0.5215805290113571 0.3677392077058181	0.102833
C	0.3354106089622951 0.5226471523379648 0.3629533989046131	-0.171035
C	0.6144675877815462 0.0453015261605768 0.9429594415062327	-0.125582
C	0.5586711479602240 0.0451237556754324 0.9436957869617532	-0.124394
C	0.5215799503468402 0.3911397389528370 0.6322660802934096	0.102656
C	0.5226468738553350 0.3354114293115004 0.6370510009159646	-0.170992
C	0.0453023988079771 0.6144670411956440 0.0570417183360890	-0.125551
C	0.0451237935028171 0.5586706630991718 0.0563049319900432	-0.124388
C	0.4789973374487604 0.6094494605842673 0.6314806997430289	0.096617
C	0.4777946106776926 0.6651545100142990 0.6349646403934032	-0.170049
C	0.9546816307953011 0.3859485464697552 0.0572223296343725	-0.125664
C	0.9548538240902863 0.4417324380503818 0.0562385105588268	-0.123506
C	0.3909469514004583 0.4783729108966287 0.6307828683580904	0.099837
C	0.3352131860004742 0.4774724600702562 0.6348087028809403	-0.170207
C	0.6144021404384120 0.9547112538903214 0.0571421503083964	-0.125360
C	0.5586093707671433 0.9548629370072024 0.0563446218263483	-0.123871
C	0.6093134966856759 0.5210704871870718 0.6331116947772597	0.102580
C	0.6650088617744514 0.5223447155942785 0.6377907750287972	-0.168926
C	0.3859974999321418 0.0452821652657663 0.0570121761720104	-0.125421
C	0.4417817786684231 0.0451105048033232 0.0564044259140503	-0.123295
C	0.5452765482573100 0.8860113913995336 0.5569986781601083	-0.125571
C	0.5451187590490535 0.9417981803308040 0.5564041870165026	-0.122976
C	0.0210724146081148 0.1093064525561427 0.1331319858516108	0.102231
C	0.0223226105068750 0.1650092436953803 0.1378021193899523	-0.168909
C	0.4547105525901000 0.1143919095147993 0.5571468291136642	-0.125312
C	0.4548533778452462 0.0585997981082892 0.5563587711826674	-0.124142
C	0.9783641086094468 0.8909568832113420 0.1308445432715593	0.099713
C	0.9774756374968735 0.8352242484445305 0.1348379580338612	-0.170281
C	0.1144540078765680 0.5453020037910259 0.5570295083733411	-0.125686
C	0.0586584292951680 0.5451352641031439 0.5563136323770365	-0.124316
C	0.8911433460361627 0.0215889730110633 0.1323133934112145	0.102549
C	0.8354129511487940 0.0226387289756971 0.1370770063120118	-0.170847
C	0.8859608040178192 0.4546822266222014 0.5572166443807888	-0.125634
C	0.9417459330208761 0.4548469763325023 0.5562485343087902	-0.123186
C	0.1094316036990764 0.9789873199561394 0.1315348489247598	0.096772
C	0.1651429654635407 0.9778140680243539 0.1350125637192097	-0.169880
C	0.4546821918174428 0.8859609664978368 0.4427822166704404	-0.125629
C	0.4548469575193327 0.9417458295497368 0.4437517472796533	-0.123258
C	0.9789866377362345 0.1094303446895933 0.8684650603740519	0.096736
C	0.9778138604970290 0.1651413243113564 0.8649873338427937	-0.169890
C	0.5453025077541080 0.1144536149909086 0.4429689200629458	-0.125601
C	0.5451355471618635 0.0586581575987977 0.4436865279417769	-0.124428
C	0.0215881629903700 0.8911424361092253 0.8676892574946782	0.102483
C	0.0226380776455119 0.8354124066195837 0.8629241437632870	-0.170874
C	0.8860110322585418 0.5452762497128271 0.4430022733778359	-0.125470
C	0.9417980368117926 0.5451182743040386 0.4435969784119648	-0.122970
C	0.1093063849346287 0.0210723196940056 0.8668695760805255	0.102256
C	0.1650092771231948 0.0223221534552431 0.8621991178977476	-0.168842
C	0.1143912961959989 0.4547099106285398 0.4428508284696546	-0.125413
C	0.0585991794633754 0.4548525811418854 0.4436404710308789	-0.124191
C	0.8909571275944133 0.9783643602119029 0.8691561995595666	0.099687
C	0.8352243949992956 0.9774757293655446 0.8651610117801102	-0.170249
C	0.5000778875350066 0.3061554867529798 0.5012634918554822	0.173740
C	0.5001382626123456 0.2492199536993503 0.5011679817851922	-0.114051
C	0.5000832813237549 0.2002437505007626 0.5005318509272921	-0.096680
C	0.5000228735940744 0.1432909452704572 0.5001604783667757	0.123808
C	0.4999953622314622 0.0297648520073445 0.5000668343568525	0.065633
C	0.0000745172943260 0.8061481590026075 -0.0012518353030931	0.173888
C	0.0001391402413923 0.7492093958146520 -0.0011653470589767	-0.114347
C	0.0000830246845188 0.7002356058365490 -0.0005186787223268	-0.096339
C	0.0000234430491353 0.6432935149088436 -0.0001552528729367	0.123776
C	-0.0000060602554492 0.5297666256363166 -0.0000699004074398	0.065341
C	0.5000522457710620 0.6942773367306956 0.4983595991518630	0.173048
C	0.5001065373386538 0.7512163497079533 0.4984306978821766	-0.115789
C	0.5000430973566246 0.8001854725036298 0.4992314064165057	-0.096230
C	0.4999947225772814 0.8571271532874367 0.4997005676200407	0.125849
C	0.4999904091783418 0.9706319801229203 0.5000897386366732	0.063847
C	0.0000601425639808 0.1942851862608913 0.0016093677555206	0.172844
C	0.0001200316778887 0.2512256190087159 0.0015479401968709	-0.115726
C	0.0000540282628179 0.3001988754136271 0.0007580304533169	-0.096216
C	-0.0000013819213751 0.3571248168017836 0.0002962355053315	0.126040
C	-0.0000110733410193 0.4706274225392214 -0.0000939549795296	0.064254
C	0.6942769125285070 0.5000523494972996 0.5016388761222154	0.173008
C	0.7512157323775364 0.5001060882198375 0.5015704068755553	-0.115705
C	0.8001852915486390 0.5000436952851827 0.5007715521615109	-0.096304
C	0.8571268110091070 0.4999945051094760 0.5003002532793051	0.125856
C	0.9706319210770037 0.4999901182472420 0.4999114344922042	0.063795
C	0.1942857854380671 0.0000599609954052 -0.0016096309034298	0.172771
C	0.2512261708394773 0.0001197813542524 -0.0015499591555826	-0.115575
C	0.3001992180797732 0.0000535754506324 -0.0007599975381783	-0.096380
C	0.3571255010032852 -0.0000017724552191 -0.0002974244848200	0.126012
C	0.4706279248286141 -0.0000108318401839 0.0000940050137029	0.064314
C	0.3061554828156228 0.5000774273985702 0.4987383104500398	0.173636
C	0.2492201839568119 0.5001371626291776 0.4988307596079041	-0.114028
C	0.2002440152660234 0.5000822860377871 0.4994662997683858	-0.096681
C	0.1432908901614703 0.5000224665398837 0.4998365887146717	0.123900
C	0.0297648090297651 0.4999948465761998 0.4999332146332576	0.065709
C	0.8061488441034452 0.0000747624631992 0.0012492785619296	0.173926
C	0.7492096850997977 0.0001389943609105 0.0011638419730164	-0.114296
C	0.7002361713169866 0.0000821362797611 0.0005207743310172	-0.096502
C	0.6432941631178344 0.0000231111801242 0.0001550511306040	0.123785
C	0.5297670169364620 -0.0000061282732060 0.0000691755133870	0.065386
H	0.4624336786590802 0.4148191885384337 0.2640775799834998	0.110720
H	0.4596075676445447 0.3144600445359735 0.2570812523800413	0.126736
H	0.9197515878359789 0.6363459576805245 0.8968713788686068	0.111599
H	0.9199769444164548 0.5367939192831797 0.8957247746553543	0.106010
H	0.5361357355840669 0.5851002292263328 0.2618881570182677	0.105264
H	0.5399537737055468 0.6856455353360801 0.2535354157255525	0.124951
H	0.0802371939639835 0.3640292151692368 0.8970320274290452	0.111144
H	0.0799942956193471 0.4635483724049525 0.8955190277114744	0.105387
H	0.5856777389210668 0.4643359543224846 0.2614648678867381	0.113110
H	0.6857905461388550 0.4601725701517462 0.2563548016390639	0.127312
H	0.3639565872052455 0.9197139252576350 0.8967520079763081	0.111565
H	0.4634827297508289 0.9199692594056962 0.8958591815935413	0.106061
H	0.4155065622127777 0.5379204073411314 0.2644776935413770	0.104525
H	0.3147000505651291 0.5405909755605354 0.2550452575792830	0.126026
H	0.6364633871852980 0.0802673772748615 0.8969664415798662	0.111655
H	0.5369148616056769 0.0799883737709366 0.8956556650838857	0.106259
H	0.5379198989016081 0.4155076872617889 0.7355296355457889	0.104578
H	0.5405908364985339 0.3147003169642981 0.7449585659593650	0.126037
H	0.0802685039244923 0.6364631430706564 0.1030346072833246	0.111607
H	0.0799887995035045 0.5369147696858348 0.1043465606559139	0.106257
H	0.4643355253741392 0.5856788356089975 0.7385253887415462	0.113194
H	0.4601731408372440 0.6857915307062746 0.7436427234672408	0.127363
H	0.9197148918343371 0.3639562036919219 0.1032467800433593	0.111544
H	0.9199696035651828 0.4634820060208710 0.1041413179115282	0.106060
H	0.4148197649125762 0.4624355203028299 0.7359286505321301	0.110748
H	0.3144607350468422 0.4596074862776553 0.7429194825648633	0.126766
H	0.6363461366276991 0.9197511531402813 0.1031281238853524	0.111636
H	0.5367938856264697 0.9199775650268297 0.1042751375231510	0.106042
H	0.5850998012759112 0.5361347044462194 0.7381090029622380	0.105258
H	0.6856457309136764 0.5399524290901627 0.7464657220823434	0.124961
H	0.3640291764492790 0.0802369450808547 0.1029678855015818	0.111149
H	0.4635487159138412 0.0799949538426423 0.1044824620056811	0.105463
H	0.5802209667647240 0.8640319725512099 0.6029375338072750	0.111134
H	0.5800111558452296 0.9635604303608256 0.6044886721306344	0.105539
H	0.0361210196486190 0.0851162125884635 0.2382560150532504	0.105314
H	0.0399393242298560 0.1856430580402763 0.2464886586935959	0.125065
H	0.4197562964005252 0.1363454344767437 0.6031225676130905	0.111659
H	0.4199578282152081 0.0367908480954976 0.6042986162581976	0.106206
H	0.9624121282595041 0.9148055589738981 0.2361191373650190	0.110842
H	0.9596140771121636 0.8144914268974159 0.2429873541963453	0.126713
H	0.1364570934662874 0.5802596711120361 0.6030128643806258	0.111496
H	0.0369047997474442 0.5800121537557513 0.6043668595068834	0.106332
H	0.9154964487408414 0.0379326391579862 0.2356855164760807	0.104709
H	0.8147011751381780 0.0405818152787349 0.2450171863264501	0.125856
H	0.8639541805659747 0.4197262071270288 0.6032302372557450	0.111535
H	0.9634882494562284 0.4199565817907783 0.6041629882353324	0.105993
H	0.0856931075710433 0.9643295985790137 0.2387398307153692	0.112869
H	0.1857520823845922 0.9601888524722139 0.2437072606580829	0.127234
H	0.4197255120691488 0.8639540535226875 0.3967692795510926	0.111531
H	0.4199563561058132 0.9634879715155624 0.3958370996501045	0.106038
H	0.9643284694240324 0.0856914502238276 0.7612598945058173	0.112883
H	0.9601885917276605 0.1857498639816733 0.7562913958395087	0.127224
H	0.5802596695193188 0.1364562390188176 0.3969845605614878	0.111534
H	0.5800124305560992 0.0369043880429267 0.3956342855773229	0.106351
H	0.0379319710771096 0.9154956148388026 0.7643198791730216	0.104746
H	0.0405813568806693 0.8147009759049237 0.7549829366206052	0.125875
H	0.8640318161859197 0.5802206021438182 0.3970635066207012	0.111070
H	0.9635604718600863 0.5800102001821441 0.3955126449199650	0.105530
H	0.0851156641483622 0.0361210622364543 0.7617464350568152	0.105291
H	0.1856422603020940 0.0399386874039467 0.7535132536027870	0.125038
H	0.1363447245448991 0.4197554643078579 0.3968751949780515	0.111706
H	0.0367896781052462 0.4199566983109189 0.3957024973619733	0.106220
H	0.9148054494542287 0.9624125093313947 0.7638810080008590	0.110835
H	0.8144914213199982 0.9596141251441767 0.7570103091171310	0.126692
Cu	0.5001203691259605 0.5001205739300071 0.4999894827357118	0.739490
Cu	0.0001114392981556 0.0001114214372323 -0.0000019046807483	0.739515
Al	0.4982328496425745 0.4982345507841295 -0.0000048811825189	1.683294
Al	-0.0018105747011095 -0.0018113964619359 0.5000031261076014	1.680820
F	0.5018809179251100 0.4972428105697752 0.2282487999214387	-0.625684
F	-0.0027720238849871 0.0018107629392737 0.7285549883183752	-0.625156
F	0.4972500133638189 0.5018888872923339 0.7717463274959419	-0.626058
F	0.0018120412726741 -0.0027733106013904 0.2714476962775392	-0.625186
F	0.4484630259347270 0.4484690362823323 -0.0000305543752293	-0.645831
F	0.9484297153396747 0.9484324869399817 0.5000012124025873	-0.644890
F	0.4778340948796971 0.5657453953725436 0.0102274396384048	-0.649199
F	0.9778136190751950 0.0657114773191247 0.4897032659965662	-0.648484
F	0.5657436034473443 0.4778431515512981 0.9898179234085688	-0.649180
F	0.0657155018545400 0.9778152377091576 0.5102888495299897	-0.648474
N	0.4999391703490647 0.4182274371111950 0.5007442532481036	-0.223555
N	-0.0000581501702318 0.9182246009363303 -0.0007249524393784	-0.223942
N	0.5000307754453774 0.5821316640510971 0.4992410687717908	-0.226371
N	0.0000316702381111 0.0821241116737222 0.0007318340800283	-0.226261
N	0.5821310325690360 0.5000318715598492 0.5007500294430487	-0.226505
N	0.0821245841045539 0.0000318478772514 -0.0007304931313367	-0.226290
N	0.4182271186657867 0.4999393914263545 0.4992601228789345	-0.223684
N	0.9182248897274561 -0.0000573909639861 0.0007281456756718	-0.223947
	  	
