#======================================================================

# CRYSTAL DATA

#----------------------------------------------------------------------

data_VESTA_phase_1


_pd_phase_name                         ALFFIVE_4_Cu_i
_cell_length_a                         23.34559
_cell_length_b                         20.34232
_cell_length_c                         9.58295
_cell_angle_alpha                      89.99798
_cell_angle_beta                       90.00127
_cell_angle_gamma                      89.99818
_symmetry_space_group_name_H-M         P 1
_symmetry_Int_Tables_number            1

loop_
_symmetry_equiv_pos_as_xyz
   x, y, z

loop_
   _atom_site_label
   _atom_site_fract_x
   _atom_site_fract_y
   _atom_site_fract_z
   _atom_site_charge
C	0.4180139016422863 0.5976155581517295 0.6295612911623714	0.099966
C	0.3741937153134030 0.5515457771674752 0.6278041348749157	-0.163644
C	0.2778936729775668 0.4486724739771242 0.6275576762599908	-0.117301
C	0.2313767763184116 0.4062493080047764 0.6263606849504700	-0.112001
C	0.1297223667166150 0.3188616937784268 0.6250004263190050	-0.165634
C	0.0829061959840526 0.2768782634341866 0.6282195354648763	0.094526
C	0.9180497035617320 0.0975836858428854 0.6295488525368959	0.100260
C	0.8742164576127934 0.0515294511306390 0.6277944295083712	-0.163822
C	0.7778836739475833 0.9486813365060698 0.6275586001712905	-0.117472
C	0.7313668014009258 0.9062619493305278 0.6263625921726048	-0.111756
C	0.6296948895115818 0.8188846573749884 0.6249990534927128	-0.165524
C	0.5828814780610407 0.7768977901527627 0.6282208231283922	0.094324
C	0.5820656492593266 0.4021389257417833 0.1296693387427193	0.100256
C	0.6258882280411227 0.4481947875186680 0.1277581495025299	-0.168687
C	0.7223527093640809 0.5508888810095705 0.1276095155692889	-0.113382
C	0.7687202218374182 0.5935489316948993 0.1263494239531726	-0.111513
C	0.8701066126684301 0.6811491230838571 0.1249527722520769	-0.164267
C	0.9169813723834066 0.7231083134885143 0.1280868862494726	0.092272
C	0.0820285932654144 0.9021971718838853 0.1296679951580976	0.099993
C	0.1258551462282923 0.9482469072214277 0.1277689920771413	-0.168997
C	0.2223595436665505 0.0508829110048908 0.1276135293097825	-0.113538
C	0.2687262985786387 0.0935386260547476 0.1263493140283264	-0.111534
C	0.3701233295291884 0.1811086629714092 0.1249473155031755	-0.164310
C	0.4170016985816882 0.2230623088790796 0.1280841442682643	0.092345
C	0.5821624217608892 0.5977664668864195 0.8704085516250968	0.101168
C	0.6258837058393911 0.5515697721374476 0.8722529043034389	-0.167856
C	0.7222484578088698 0.4487539096154746 0.8724236217418219	-0.115529
C	0.7687199825085337 0.4062576241171255 0.8736321642050406	-0.110332
C	0.8706010459847785 0.3193327379959971 0.8750282979531826	-0.163748
C	0.9174707075653314 0.2774024230367662 0.8718894353846099	0.093263
C	0.0821779711012885 0.0977813186028472 0.8704074679793889	0.101279
C	0.1259004205892268 0.0515869796776907 0.8722542215009890	-0.167841
C	0.2222304866864804 0.9487426451934905 0.8724362567670164	-0.115905
C	0.2687039640959395 0.9062487192071547 0.8736345790666987	-0.110291
C	0.3705925074714514 0.8193590188543715 0.8750291646685804	-0.163318
C	0.4174624750069364 0.7774216948259202 0.8719029821658308	0.093081
C	0.4183571126375699 0.4026354478694019 0.3704276864737795	0.098545
C	0.3744540392024622 0.4485890901128149 0.3722021115025656	-0.165310
C	0.2777032187365808 0.5508118805461774 0.3724106387988340	-0.115955
C	0.2313321877760298 0.5934813761046495 0.3736741662363502	-0.113393
C	0.1302379404868792 0.6816232451963544 0.3750172272558117	-0.164386
C	0.0832678843933928 0.7234047696782573 0.3718384093277669	0.093130
C	0.9183566160567236 0.9026329152949414 0.3704212753528341	0.098939
C	0.8744481900738036 0.9485761284075845 0.3721934575435372	-0.165173
C	0.7777115405703668 0.0508122297534294 0.3724103537435878	-0.115778
C	0.7313434097601617 0.0934865049982099 0.3736759792266872	-0.113601
C	0.6302441572261435 0.1816254334587178 0.3750105153259589	-0.164361
C	0.5832685497925476 0.2233989130135944 0.3718229521913051	0.093248
C	0.5820647935873895 0.4021402343922482 0.3703330088548658	0.100222
C	0.6258867443433789 0.4481971778576120 0.3722433494958727	-0.168653
C	0.7223513286079446 0.5508901620782806 0.3723906002479919	-0.113304
C	0.7687193792336852 0.5935498364545001 0.3736533489263642	-0.111644
C	0.8701057654521854 0.6811494567406268 0.3750510043787327	-0.164383
C	0.9169805582836017 0.7231077166104054 0.3719214948880215	0.092507
C	0.0820278501955485 0.9021980098539449 0.3703374014607665	0.099850
C	0.1258530092092172 0.9482478853469362 0.3722380179862402	-0.168909
C	0.2223593679035842 0.0508842819045014 0.3723938220244392	-0.113813
C	0.2687266347552509 0.0935395008011988 0.3736572443675470	-0.111433
C	0.3701237272207258 0.1811095863772527 0.3750566942445820	-0.164195
C	0.4170027589360371 0.2230625758930662 0.3719189439278179	0.092320
C	0.4180111054202911 0.5976109157036978 0.8704589525812377	0.099978
C	0.3741904566650593 0.5515443219385547 0.8722065401870791	-0.163639
C	0.2778939095604662 0.4486751982732304 0.8724535993430470	-0.117465
C	0.2313765487627465 0.4062506444113528 0.8736489308662969	-0.111807
C	0.1297213921190668 0.3188611214479362 0.8750064257622122	-0.165581
C	0.0829064690115269 0.2768783147922982 0.8717851410021130	0.094659
C	0.9180501486003869 0.0975838927721493 0.8704474062475580	0.100265
C	0.8742161433518598 0.0515327018313324 0.8722041654057030	-0.163599
C	0.7778840894166905 0.9486835739530055 0.8724458561329621	-0.117626
C	0.7313665151921109 0.9062622823660598 0.8736424993908299	-0.111699
C	0.6296975608889612 0.8188889329576406 0.8750104917287149	-0.165582
C	0.5828829213728807 0.7768995078711203 0.8717924798300826	0.094651
C	0.4183550889863237 0.4026389849098498 0.1295874896211877	0.098611
C	0.3744514623635720 0.4485918314824003 0.1278161704057518	-0.165251
C	0.2777004104703371 0.5508118518412783 0.1275962645845541	-0.115881
C	0.2313296840450058 0.5934830787816255 0.1263304410208697	-0.113368
C	0.1302351573874700 0.6816265834218552 0.1249879899633063	-0.164460
C	0.0832655466564628 0.7234077626224992 0.1281614500642307	0.093097
C	0.9183549429947317 0.9026365720952059 0.1295904235549434	0.098770
C	0.8744452843018311 0.9485805625023358 0.1278148261579254	-0.165086
C	0.7777089627698284 0.0508136614114378 0.1275950243557146	-0.115642
C	0.7313407301331548 0.0934883334831419 0.1263268697722195	-0.113451
C	0.6302433229226878 0.1816284175153653 0.1249876650287605	-0.164429
C	0.5832672317274569 0.2234018750073331 0.1281748796372847	0.093211
C	0.5821603100664493 0.5977724192834658 0.6295848470391600	0.101224
C	0.6258795708832593 0.5515749391685963 0.6277378682357196	-0.167894
C	0.7222476072219506 0.4487542984997610 0.6275792500861064	-0.115649
C	0.7687181355367780 0.4062591663532177 0.6263737095001066	-0.110202
C	0.8705981948481122 0.3193362527073528 0.6249784145459740	-0.163733
C	0.9174692991496878 0.2774060937791825 0.6281205638537894	0.093151
C	0.0821781164197582 0.0977830563061508 0.6295846325530911	0.101362
C	0.1259003155393760 0.0515891851544069 0.6277450688283742	-0.167848
C	0.2222272612345010 0.9487446757144065 0.6275772065257620	-0.116005
C	0.2687004723493167 0.9062512659797203 0.6263702458223324	-0.110189
C	0.3705908445008134 0.8193576351275706 0.6249863113214157	-0.163357
C	0.4174608256202391 0.7774162387409733 0.6281302654323206	0.092893
C	0.3500159101392901 0.5246602959496249 0.7500030996898982	0.114232
C	0.3027044844170113 0.4744385631492945 0.7500024672943376	0.070839
C	0.2054948447957277 0.3845126929121458 0.7500050282713165	0.063566
C	0.1549684491804907 0.3407959095833312 0.7500060988325284	0.104440
C	0.8500252706613645 0.0246565778542550 0.7500019088725651	0.113686
C	0.8026991542531851 0.9744508840559368 0.7500017951655523	0.070589
C	0.7054740019943194 0.8845255649998718 0.7500005084823831	0.063497
C	0.6549443598170260 0.8408144872511011 0.7500037601404097	0.104514
C	0.6502039704874687 0.4750503695087665 0.2499998157883797	0.115497
C	0.6975552892331573 0.5251685031349179 0.2500002449404600	0.069085
C	0.7944916617177207 0.6154534800943615 0.2500009071174706	0.066728
C	0.8449195062724585 0.6592569281313474 0.2500017091681660	0.101592
C	0.1501867433944811 0.9750833980140923 0.2500017374454291	0.115765
C	0.1975564744006845 0.0251768961355950 0.2500042872984001	0.068876
C	0.2945002025471316 0.1154438521679955 0.2500028540657425	0.066843
C	0.3449335279165526 0.1592330465284694 0.2500023446240802	0.101536
C	0.6500514390641272 0.5246293602406388 0.7499989033579371	0.112220
C	0.6974131401969529 0.4744752512323269 0.7499964336409075	0.066332
C	0.7945979141225632 0.3845318540497242 0.7500044067193635	0.066155
C	0.8452250321162511 0.3409965306343387 0.7500056965449338	0.102977
C	0.1500552851816390 0.0246346701214763 0.7500005587474213	0.112347
C	0.1973988010775034 0.9744669751436600 0.7500038583810453	0.066518
C	0.2945870200188497 0.8845382956942039 0.7500059223891550	0.066111
C	0.3452200391353567 0.8410156126704734 0.7500073440040663	0.102715
C	0.3500545103537139 0.4752557208168394 0.2500078073257879	0.117803
C	0.3025908088999133 0.5252046398626743 0.2500067028226140	0.072742
C	0.2056579813596726 0.6155496969876736 0.2500009620838820	0.064732
C	0.1553613045867878 0.6595582442386869 0.2500033420230833	0.102725
C	0.8500519454332842 0.9752454585419010 0.2500024231388139	0.117965
C	0.8025938335602223 0.0252033076808002 0.2500040427900023	0.072727
C	0.7056689115588947 0.1155541202807658 0.2500004491647357	0.065066
C	0.6553715984630636 0.1595610930524713 0.2500008779458395	0.102574
H	0.4363874592509398 0.6173505528446680 0.5329090360480123	0.116413
H	0.3606040557202466 0.5387216890530117 0.5242584594239840	0.105474
H	0.2944178731332557 0.4605493537727474 0.5260641810794704	0.086437
H	0.2154764042488644 0.3903371244744520 0.5251156409538729	0.103475
H	0.1461800316575455 0.3335271613114593 0.5234790607146323	0.120719
H	0.0623814699098144 0.2577488000780118 0.5337159299383267	0.114701
H	0.9364432018280380 0.1172944968840504 0.5329010245435802	0.116303
H	0.8606264860346693 0.0387048011693290 0.5242467608797376	0.105563
H	0.7944029312741281 0.9605559849204093 0.5260626187206756	0.086394
H	0.7154648451624901 0.8903445297947011 0.5251130567009222	0.103364
H	0.6461465617197003 0.8335553840948278 0.5234708158773806	0.120630
H	0.5623414353505570 0.7577772963784510 0.5337151056271580	0.115028
H	0.5634302179409357 0.3820576921882223 0.0337348500076107	0.116262
H	0.6395386448772764 0.4612428401252006 0.0244164748606796	0.103828
H	0.7060893609791276 0.5387892133762558 0.0260513635813301	0.085076
H	0.7846316279419263 0.6094909969639318 0.0250959528969276	0.104494
H	0.8537975792549902 0.6666563561135215 0.0231991308772717	0.122419
H	0.9372181379926784 0.7419536039642067 0.0328378080039611	0.115737
H	0.0633652087647742 0.8821497294602929 0.0337445932887660	0.116562
H	0.1394922158257398 0.9613064026299575 0.0244177090426751	0.103823
H	0.2061068711060337 0.0387717289654416 0.0260526858291667	0.085182
H	0.2846460454699140 0.1094766340503917 0.0250968455704550	0.104535
H	0.3538242414320010 0.1666032846019505 0.0232009788368030	0.122503
H	0.4372564675494258 0.2418954894501714 0.0328370341417916	0.115656
H	0.5639976943328529 0.6181041626875170 -0.0333110692307541	0.117059
H	0.6396142798514148 0.5387795113875877 -0.0242743522719520	0.105060
H	0.7059722840989426 0.4608494298932606 -0.0260341175760692	0.085323
H	0.7846024072362447 0.3903213262009618 -0.0251117915268175	0.104170
H	0.8544204201465126 0.3342619949698768 -0.0233411684738482	0.121111
H	0.9381462426013143 0.2588850372891500 -0.0331948717054835	0.116119
H	0.0640216500291762 0.1181336336011295 -0.0333188846850935	0.116944
H	0.1396470720156668 0.0388103634516132 -0.0242815696255356	0.104991
H	0.2059424519967490 0.9608227687293339 -0.0260268809672698	0.085367
H	0.2845865509218327 0.8903026982874985 -0.0251114340724820	0.104235
H	0.3544146781435835 0.8342992255369065 -0.0233409866343369	0.120899
H	0.4381423725578794 0.7589017325483485 -0.0331964820545055	0.116188
H	0.4371936972323734 0.3831321691482438 0.4667199261388431	0.116638
H	0.3610849753299593 0.4617981275005886 0.4756763879935940	0.104373
H	0.2939277828820975 0.5385522235726053 0.4739671142253875	0.085557
H	0.2153338372354635 0.6092312512119088 0.4749719151576575	0.104105
H	0.1468591035035144 0.6674410237179424 0.4767052565294254	0.121370
H	0.0631128648764666 0.7425739158628528 0.4668486536686141	0.115129
H	0.9372066751391415 0.8831278249144960 0.4666895216777481	0.116524
H	0.8610601890330397 0.9617874490204126 0.4756567787509708	0.104215
H	0.7939421693747689 0.0385603045465640 0.4739688882558828	0.085417
H	0.7153493242573450 0.1092428334229215 0.4749664893091569	0.104112
H	0.6468756342268552 0.1674335734458616 0.4766823797851263	0.121261
H	0.5630998450451581 0.2425741521306825 0.4668056228119945	0.115069
H	0.5634282619440576 0.3820578780184689 0.4662632164058823	0.116281
H	0.6395359818357893 0.4612469710050212 0.4755845099160855	0.103786
H	0.7060874173092525 0.5387915250782872 0.4739481727476470	0.085043
H	0.7846304004822924 0.6094922595863300 0.4749059136289287	0.104531
H	0.8537960030979336 0.6666562854926492 0.4768048644102950	0.122439
H	0.9372167635699706 0.7419527788043606 0.4671722878668037	0.115732
H	0.0633631090187460 0.8821499646982079 0.4662624177154355	0.116587
H	0.1394890636992413 0.9613101617282606 0.4755892768883201	0.103804
H	0.2061061897174222 0.0387749382300780 0.4739538067507160	0.085217
H	0.2846467086084078 0.1094783695760949 0.4749088193244697	0.104535
H	0.3538264497733498 0.1666036163969138 0.4768032357397790	0.122425
H	0.4372577737881581 0.2418943985442574 0.4671655951582467	0.115680
H	0.4363903728597224 0.6173423625593000 -0.0328898062317121	0.116420
H	0.3605975883389674 0.5387183623513887 -0.0242504155456867	0.105453
H	0.2944171517381245 0.4605533885611374 -0.0260575549025778	0.086472
H	0.2154772120000934 0.3903394380541308 -0.0251033598278597	0.103395
H	0.1461784909942872 0.3335268876351814 -0.0234670563047128	0.120648
H	0.0623822402601003 0.2577490062800307 -0.0337074912150819	0.114676
H	0.9364460011759199 0.1172985303384475 -0.0329054529240851	0.116241
H	0.8606245566334426 0.0387102155756434 -0.0242473264627221	0.105436
H	0.7944012392470933 0.9605582174417276 -0.0260562229124766	0.086514
H	0.7154643497614828 0.8903455067699834 -0.0251117529176014	0.103358
H	0.6461479992526583 0.8335606717233351 -0.0234639062036613	0.120596
H	0.5623467052171928 0.7577829256361501 -0.0337030206540794	0.114890
H	0.4371886176123267 0.3831370386962026 0.0332920146905780	0.116629
H	0.3610804028010018 0.4618019111419568 0.0243388281172136	0.104301
H	0.2939244408445564 0.5385543571640805 0.0260446153532194	0.085549
H	0.2153311379342218 0.6092334965268345 0.0250286183264821	0.104062
H	0.1468559745645746 0.6674459140197471 0.0232982021509709	0.121443
H	0.0631093037918766 0.7425784755819941 0.0331530389503975	0.115177
H	0.9372024874211893 0.8831324144697408 0.0333211252583080	0.116597
H	0.8610577928963949 0.9617929272741021 0.0243525476667757	0.104159
H	0.7939381420196446 0.0385618283606389 0.0260372473478518	0.085408
H	0.7153451218892538 0.1092455749692804 0.0250347758322256	0.104023
H	0.6468723843916946 0.1674386484273339 0.0233165427673589	0.121325
H	0.5630973629430003 0.2425773935073707 0.0331913814176992	0.115081
H	0.5639985379603553 0.6181123908382958 0.5332991988168341	0.116877
H	0.6396087276880056 0.5387856783891289 0.5242670167601843	0.105021
H	0.7059705004492999 0.4608500411947759 0.5260327559520014	0.085330
H	0.7846003979774367 0.3903230978999085 0.5251206707631314	0.104148
H	0.8544156668295473 0.3342668405092156 0.5233474674512136	0.121151
H	0.9381443907817913 0.2588894971760336 0.5332102220933693	0.116052
H	0.0640239354168916 0.1181398148557026 0.5333086926635109	0.116891
H	0.1396474375855701 0.0388130409716850 0.5242838465383003	0.105008
H	0.2059367713019614 0.9608260546797780 0.5260365712072707	0.085421
H	0.2845812236920346 0.8903069522358690 0.5251223814105126	0.104227
H	0.3544132437112853 0.8342948940509169 0.5233578795879545	0.120928
H	0.4381416741785466 0.7588885940139545 0.5332404194832429	0.116179
Cu	0.4999404570826071 0.6884616006301451 0.7500464380882286	0.658904
Cu	-0.0000350090150118 0.1884537636527425 0.7499897560219189	0.658844
Cu	0.4999036616816900 0.3113186709989226 0.2500086566743698	0.659975
Cu	-0.0000716941171980 0.8113196867461900 0.2500016993338869	0.659673
F	0.4997347495212318 0.6865734880982199 0.4496414954996350	-0.654608
F	-0.0002060429618713 0.1864995132608988 0.4497764942550987	-0.654592
F	0.4989668183199475 0.3138104600305345 0.9495565933120453	-0.653813
F	-0.0006753804630936 0.8137648823818358 0.9495920636926609	-0.654109
F	0.4997460319130353 0.6864348326683894 0.0500681185960131	-0.654617
F	-0.0002060718837360 0.1864402759802316 0.0502214557219602	-0.654659
F	0.4989954616675145 0.3138434123066613 0.5504042262364228	-0.653767
F	-0.0006711864542221 0.8137829448202516 0.5504482490121207	-0.654153
F	0.4774384751738751 0.7678668138384915 0.2496515259440292	-0.676627
F	0.5712768618782560 0.6648250796402020 0.2498933702809369	-0.671699
F	0.9764995829113623 0.2675956788864633 0.2499139401595253	-0.676409
F	0.0714475628016559 0.1657383997115135 0.2500430934260550	-0.671968
F	0.5700901345159577 0.2909531700455081 0.7500199541766296	-0.675176
F	0.4764456203353640 0.3950538724731154 0.7500099729711679	-0.668246
F	0.0697600563040464 0.7878597409568526 0.7500234473511997	-0.675229
F	0.9790803786878053 0.8955501786603688 0.7500177600312520	-0.668636
F	0.4469193546668672 0.6249289538851825 0.2500015428828937	-0.664644
F	0.9475097487891074 0.1243198830401022 0.2501274086401322	-0.664844
F	0.4463043763660806 0.2518198529510393 0.7499195647422142	-0.672771
F	0.9452638096423608 0.7531618841628971 0.7499991368121715	-0.672883
N	0.4398145416871192 0.6201683286377709 0.7500141377367623	-0.214895
N	0.5605133527096104 0.7562974178411517 0.7500058123052405	-0.220118
N	0.9398525667452318 0.1201376045751179 0.7499979465866685	-0.214626
N	0.0605312707595662 0.2562889954413482 0.7500028605326812	-0.220126
N	0.5602409275010825 0.3795708735792494 0.2500011651334492	-0.213875
N	0.4394011954336366 0.2436371538809549 0.2500009013763497	-0.221947
N	0.0602178862375747 0.8796165677889016 0.2500043664832564	-0.213218
N	0.9393887008510747 0.7436707456891285 0.2500045551314624	-0.221887
N	0.5603041607467781 0.6202722923988772 0.7499967314561512	-0.213422
N	0.4396867960288700 0.7566209166873207 0.7500207455352855	-0.221100
N	0.0603221647287584 0.1202797845868597 0.7499939896140707	-0.213176
N	0.9396992678848137 0.2566025750182895 0.7500045313611197	-0.221533
N	0.4400685256265701 0.3799562995940922 0.2500081957435060	-0.214328
N	0.5606314688324476 0.2437134285765014 0.2499979199897846	-0.221974
N	0.9400769942822249 0.8799608561072504 0.2500073404843156	-0.214440
N	0.0606375142227241 0.7437224793133209 0.2499994650297362	-0.221906
Al	0.4990246490844262 0.6860874648745973 0.2498999586552327	1.697442
Al	-0.0009753316505934 0.1861375207033995 0.2500382278685885	1.697806
Al	0.4981078120556118 0.3131584822219973 0.7499668825842390	1.697642
Al	-0.0015080487907345 0.8129099376462967 0.7500083070817499	1.698351
	  	
