#======================================================================

# CRYSTAL DATA

#----------------------------------------------------------------------

data_VESTA_phase_1


_pd_phase_name                         ALFFIVE_3_Zn
_cell_length_a                         14.29944
_cell_length_b                         14.29929
_cell_length_c                         7.87133
_cell_angle_alpha                      90.00128
_cell_angle_beta                       89.99593
_cell_angle_gamma                      90.69442
_symmetry_space_group_name_H-M         P 1
_symmetry_Int_Tables_number            1

loop_
_symmetry_equiv_pos_as_xyz
   x, y, z

loop_
   _atom_site_label
   _atom_site_fract_x
   _atom_site_fract_y
   _atom_site_fract_z
   _atom_site_charge
C	0.2603642864135282 0.4523628448762456 0.6424048942270607	0.054731
C	0.2382543332361252 0.0506995168799703 0.6462596133490514	0.061552
C	0.2391285925565301 0.4532031668479555 0.3519314017419887	0.049210
C	0.2595241509435747 0.0497350698480758 0.3563464462089435	0.061825
C	0.0497561343345458 0.2595119668674408 0.3563234900872900	0.061666
C	0.4531974984410786 0.2391402555576518 0.3519448908099282	0.049184
C	0.4523460010769992 0.2603632096481069 0.6424150911930742	0.054492
C	0.0507087428744986 0.2382455679008905 0.6462452630572115	0.061513
C	0.9531902773045964 0.2391189545182930 0.6480514543498564	0.049178
C	0.5497431812226620 0.2595025769187372 0.6436684204177474	0.061837
C	0.5507125746349727 0.2382502053239956 0.3537486609868555	0.061513
C	0.9523542288637513 0.2603549479318565 0.3575964384329256	0.054640
C	0.7382553937537742 0.0506880383220114 0.3537691002795238	0.061671
C	0.7603854331325791 0.4523402319514636 0.3575768047342900	0.054621
C	0.7595239279563702 0.0497272690753190 0.6436912823622010	0.062268
C	0.7391510668675864 0.4531803830314797 0.6480460185542314	0.049461
C	0.4531822360500453 0.7391299895468997 0.6480528416520923	0.049413
C	0.0497101812336559 0.7595328806363987 0.6436347436305523	0.061975
C	0.0506800230338702 0.7382624456854520 0.3537200413811630	0.061595
C	0.4523480625628545 0.7603626743104035 0.3575818342286688	0.054556
C	0.2382450577393807 0.5507016588467752 0.3537430414559453	0.061591
C	0.2603723491980895 0.9523487994251366 0.3575907628015975	0.054694
C	0.2595068566260893 0.5497447607221568 0.6436599348532944	0.061505
C	0.2391331374670682 0.9531861092952419 0.6480606953407101	0.049572
C	0.7603662212592437 0.9523389393297500 0.6424233972026132	0.054298
C	0.7382626161117872 0.5506860112526201 0.6462496449012927	0.061604
C	0.7391333793421168 0.9531825383394612 0.3519585907400918	0.049296
C	0.7595273661438227 0.5497256672390610 0.3563266614950136	0.062038
C	0.5497295384307482 0.7595073654373701 0.3563274240160536	0.061805
C	0.9531823058813965 0.7391317717363064 0.3519146838600577	0.049487
C	0.9523316120804148 0.7603710854593452 0.6423947810722076	0.054464
C	0.5506831384108476 0.7382420614830864 0.6462436338115934	0.061612
H	0.2663489483639885 0.4126783376834221 0.7599741171423285	0.115486
H	0.2279822722613081 0.0904539534584481 0.7629014433338258	0.111722
H	0.2305650046658048 0.4145972106945328 0.2330361211069611	0.119401
H	0.2659182366513066 0.0891927710802183 0.2385810018208019	0.109842
H	0.0891971206785992 0.2659075153745195 0.2385433147282988	0.109908
H	0.4146077715527010 0.2305740569284499 0.2330370484964954	0.119473
H	0.4126631918429154 0.2663586091428382 0.7599706183903240	0.115576
H	0.0904606972157383 0.2279786665458018 0.7628565734553060	0.111793
H	0.9145955683940440 0.2305444598919874 0.7669663467826598	0.119393
H	0.5891797129197327 0.2658793817330720 0.7614524046849120	0.109744
H	0.5904711615845515 0.2279716245891453 0.2371246117402306	0.111769
H	0.9126744910140265 0.2663435367662209 0.2400392641327495	0.115474
H	0.7279780300093510 0.0904549386442440 0.2371687679924358	0.111729
H	0.7663797811751256 0.4126618707780498 0.2400171847961713	0.115626
H	0.7659265980185216 0.0891814915487014 0.7614525161417844	0.109668
H	0.7305966911824571 0.4145780942051724 0.7669582885806742	0.119383
H	0.4145696877408322 0.7305668698328203 0.7669646276123615	0.119399
H	0.0891616256897046 0.7659368853160028 0.7614136761857691	0.109665
H	0.0904488380778092 0.7279896295886117 0.2371041047899374	0.111709
H	0.4126579745498528 0.7663578488819633 0.2400246488654832	0.115513
H	0.2279658335120318 0.5904647964723525 0.2371356119463953	0.111763
H	0.2663617168583906 0.9126610336226234 0.2400420476143113	0.115395
H	0.2658951285148830 0.5892038623161501 0.7614399285463433	0.109880
H	0.2305607160548265 0.9145758317526543 0.7669711459670225	0.119343
H	0.7663467130510873 0.9126514339760761 0.7599815113182224	0.115694
H	0.7280010238566921 0.5904432294277072 0.7628756595144823	0.111749
H	0.7305629002856805 0.9145789914228282 0.2330559246272504	0.119416
H	0.7659181967047312 0.5891824119467778 0.2385631533161631	0.109770
H	0.5891895676032852 0.7658996414031516 0.2385422307495602	0.109812
H	0.9145824043000853 0.7305533564886564 0.2330181979320305	0.119323
H	0.9126387919523334 0.7663504417905531 0.7599536595705366	0.115671
H	0.5904450406673541 0.7279671814512328 0.7628665322275419	0.111665
Zn	0.2514668259204847 0.2514771184807462 0.4964944773949633	0.735660
Zn	0.7514656684441565 0.2514423004942877 0.5034429625914916	0.735629
Zn	0.2514497070102438 0.7514712971471237 0.5034377960265346	0.735703
Zn	0.7514624603662314 0.7514478460664967 0.4965493746944277	0.735787
Al	0.2491113247059389 0.2490850934445989 -0.0034394039590902	1.659881
Al	0.7491196004532933 0.2491040815553103 0.0034405708571332	1.659564
Al	0.2490325953766312 0.7491330923108254 0.0034225587206311	1.659661
Al	0.7490739633271569 0.7490754374055881 -0.0034293808922067	1.659758
F	0.2519664943185970 0.2519629838288818 0.7602033961529087	-0.583951
F	0.2502119944942917 0.2501771520910513 0.2332165583140283	-0.584084
F	0.1633452266484406 0.1633897569697481 -0.0067455957316537	-0.620553
F	0.2157601526159323 0.3649417735296184 -0.0031381280501386	-0.610023
F	0.3649315927666070 0.2156572207579692 -0.0031641515324602	-0.610021
F	0.7502072593641248 0.2501611471256870 0.7668000868479499	-0.584114
F	0.7520129305924328 0.2519700091569427 0.2398286860934465	-0.583743
F	0.6632488505441627 0.1635187347577286 0.0068022038490046	-0.620415
F	0.7159077372976499 0.3649996748700825 0.0031879840628390	-0.609996
F	0.8649387961064633 0.2156544394443393 0.0031269616440058	-0.609924
F	0.2500757458082747 0.7501796448234539 0.7668540186807016	-0.584147
F	0.2519250199862229 0.7519637708568401 0.2398090192672231	-0.583827
F	0.1633013272962489 0.6632975911662538 0.0068162001354028	-0.620594
F	0.2155562146605396 0.8649003073049373 0.0031044736078353	-0.609878
F	0.3648718016754916 0.7157742774552687 0.0030447911900892	-0.609977
F	0.7519756758925430 0.7519665288925511 0.7602151543701892	-0.583795
F	0.7502541263692620 0.7501785599781211 0.2331946860274038	-0.584174
F	0.6633367023208284 0.6633860382770289 -0.0066490542329406	-0.620526
F	0.7156847218060575 0.8649152327475831 -0.0031260984674995	-0.610045
F	0.8649423169682312 0.7156824118436603 -0.0031970856024811	-0.610016
N	0.4043213554602068 0.2506372629737449 0.4964154652402341	-0.188855
N	0.0987738728550346 0.2490699785113044 0.5005838841550319	-0.188179
N	0.2506280684609704 0.4043228967665834 0.4964023532360883	-0.188898
N	0.2490773629775545 0.0987657118703439 0.5005965904709238	-0.188261
N	0.9043208941187995 0.2506145983402056 0.5035909807207324	-0.188831
N	0.5987675772092026 0.2490619243368974 0.4994106764649878	-0.188185
N	0.7506480801070150 0.4043085210159452 0.5035727037069355	-0.189197
N	0.7490825618401231 0.0987513778207908 0.4994321791442595	-0.188523
N	0.4043000014062199 0.7506256977087551 0.5035808381629827	-0.189054
N	0.0987426058796706 0.7490902165316992 0.4993802000437733	-0.188403
N	0.2506350633672089 0.9043105408711480 0.5035860212087031	-0.189157
N	0.2490611069067045 0.5987738274520853 0.4994033717317817	-0.188069
N	0.9043000116661543 0.7506240258908239 0.4963938332157850	-0.189041
N	0.5987622208670665 0.7490580082810847 0.5005798369662932	-0.188249
N	0.7506243647495970 0.9043063247614258 0.4964289659166664	-0.188965
N	0.7490770698576424 0.5987469770845474 0.5005848982106741	-0.188594
	  	
