#======================================================================

# CRYSTAL DATA

#----------------------------------------------------------------------

data_VESTA_phase_1


_pd_phase_name                         ALFFIVE_15_Co_i
_cell_length_a                         29.44050
_cell_length_b                         28.41136
_cell_length_c                         8.24007
_cell_angle_alpha                      89.99622
_cell_angle_beta                       89.99982
_cell_angle_gamma                      89.99992
_symmetry_space_group_name_H-M         P 1
_symmetry_Int_Tables_number            1

loop_
_symmetry_equiv_pos_as_xyz
   x, y, z

loop_
   _atom_site_label
   _atom_site_fract_x
   _atom_site_fract_y
   _atom_site_fract_z
   _atom_site_charge
C	0.9369338327256541 0.1057669283962916 0.8913010792590512	0.081708
C	0.9040065513612534 0.0708909237258854 0.8962046472717158	-0.162343
C	0.7704139225617003 0.9362292769204956 0.8978393625814195	-0.117364
C	0.7356577650527483 0.9033662280002169 0.8976228201594452	-0.116013
C	0.5647019725996331 0.7379819225522788 0.8911647637406253	0.080711
C	0.5986807372598968 0.7717583894316721 0.8958779923619651	-0.167430
C	0.4369049105455531 0.6054571095066147 0.8912298991704071	0.089760
C	0.4040706500477420 0.5705314474496587 0.8963176791563532	-0.163883
C	0.2702650529612998 0.4362700033330829 0.8979294171296066	-0.115419
C	0.2355246646357457 0.4034032413304214 0.8976733494705708	-0.115066
C	0.0648992965654351 0.2380154059016187 0.8911014523503317	0.089001
C	0.0989876238499516 0.2716333890609816 0.8959964664964366	-0.167259
C	0.0634933795383653 0.8940369538784919 0.3912543145957751	0.091230
C	0.0961628983841067 0.9291239943826352 0.3963495106957171	-0.164126
C	0.2295217044885364 0.0638315573224104 0.3979063594728913	-0.115666
C	0.2642913066514404 0.0966665735118096 0.3976711570835475	-0.113899
C	0.4354795402167349 0.2615547771806100 0.3910952762253978	0.090377
C	0.4013271302020454 0.2280175928167990 0.3960041084815286	-0.168759
C	0.5632555433776308 0.3939322729835598 0.3913395983995355	0.083609
C	0.5957697210960313 0.4292189418674777 0.3962144464173229	-0.163331
C	0.7296452717326306 0.5638353943495876 0.3978144235665724	-0.117363
C	0.7644811374245394 0.5966203704742739 0.3975647261239916	-0.115311
C	0.9356194499557415 0.7618421005209021 0.3911427494276591	0.080381
C	0.9013117577262932 0.7284265539853583 0.3958728706284686	-0.166201
C	0.0633712317859936 0.1061752876562104 0.6087018677989245	0.090808
C	0.0960087014316347 0.0710496474560685 0.6036549619661091	-0.163910
C	0.2293461406673006 0.9363217530024606 0.6021312741865177	-0.115069
C	0.2642067239125083 0.9035877075711424 0.6023018829322242	-0.115881
C	0.4350750044854936 0.7381671270592255 0.6089162070217243	0.081554
C	0.4011488309646854 0.7720028128757372 0.6041500294187440	-0.167475
C	0.5629077323607602 0.6056986928830754 0.6087344442429310	0.089177
C	0.5957444112112485 0.5707855379352545 0.6036042786487872	-0.163206
C	0.7295162156761216 0.4365195693032713 0.6020670945590598	-0.114476
C	0.7641986319461300 0.4035752454153773 0.6023674113561416	-0.116873
C	0.9354098313961611 0.2384806315601267 0.6088241993467969	0.082327
C	0.9010602579374274 0.2718605641753329 0.6041405996075030	-0.167568
C	0.9368256350779746 0.8945155960884149 0.1086832977687076	0.082206
C	0.9038505577528591 0.9293356330188094 0.1037688111120611	-0.162101
C	0.7701138606198981 0.0640109394988384 0.1021246624484559	-0.116765
C	0.7354409375934019 0.0969709509963094 0.1023676461723494	-0.116095
C	0.5642576526328684 0.2617995068428219 0.1088819246812851	0.087443
C	0.5984625124722348 0.2283256446678601 0.1039825593033728	-0.166316
C	0.4365583346449974 0.3941379099197533 0.1087073034780357	0.084944
C	0.4040588699979116 0.4294366145535951 0.1037843647720621	-0.162726
C	0.2702707740810790 0.5639758589848949 0.1021506806674052	-0.117295
C	0.2353901102901423 0.5967041284211573 0.1023895970531739	-0.115234
C	0.0647322838981822 0.7622677908881834 0.1089059797519914	0.089085
C	0.0987637902607829 0.7285952714394015 0.1040136518460828	-0.165943
C	0.0634903488857399 0.8940440928108231 0.1087280535896970	0.091100
C	0.0961589648774422 0.9291324343717119 0.1036252949387455	-0.163936
C	0.2295227341743047 0.0638338777720002 0.1020852314428914	-0.115430
C	0.2642923865938985 0.0966697255817740 0.1023138018243693	-0.114189
C	0.4354803419114934 0.2615557298088544 0.1089168790295727	0.090196
C	0.4013284026938995 0.2280180712966828 0.1040130244573510	-0.168577
C	0.5632542428818961 0.3939328422173042 0.1087089441080337	0.083672
C	0.5957683223265146 0.4292188318935469 0.1038054633251041	-0.163259
C	0.7296468066857130 0.5638370128807120 0.1021790669608883	-0.117503
C	0.7644827504975826 0.5966220073954933 0.1024135895291946	-0.115253
C	0.9356220700324482 0.7618473311443265 0.1088273856011107	0.080639
C	0.9013115975662022 0.7284359265795358 0.1040988111049565	-0.166331
C	0.9369326629113272 0.1057670480098438 0.6086786331171469	0.082122
C	0.9040083359521499 0.0708896744777135 0.6037886967905336	-0.162548
C	0.7704143209685369 0.9362305633694306 0.6021368139123294	-0.117739
C	0.7356581431171882 0.9033676745133737 0.6023678538248604	-0.115906
C	0.5647051353034386 0.7379877133066044 0.6088863594970561	0.080382
C	0.5986843803405845 0.7717621718729035 0.6041727389439621	-0.167324
C	0.4369145536330243 0.6054572316979205 0.6087149849297072	0.089899
C	0.4040801940801115 0.5705312528207963 0.6036236391255525	-0.164190
C	0.2702653018555431 0.4362730079519128 0.6020532758202609	-0.115803
C	0.2355247783037052 0.4034068075646228 0.6023225502583680	-0.114789
C	0.0649010784939599 0.2380137142006318 0.6088982615752012	0.089066
C	0.0989904730696107 0.2716319118656372 0.6039957734041980	-0.167252
C	0.9368238342394861 0.8945154977504789 0.3912792302363206	0.082211
C	0.9038493017701615 0.9293362272719067 0.3961696933096387	-0.162160
C	0.7701152864823809 0.0640102525819546 0.3978773557748638	-0.116939
C	0.7354421129115499 0.0969700845373259 0.3976236110878215	-0.116005
C	0.5642600922936245 0.2618027677861651 0.3911199530255133	0.087472
C	0.5984688100343927 0.2283328750709018 0.3960292254134716	-0.166385
C	0.4365603068842310 0.3941376837192012 0.3913261726789951	0.085190
C	0.4040646193870492 0.4294400092444886 0.3962357620354315	-0.162863
C	0.2702711948983055 0.5639749371131182 0.3978507520410378	-0.117344
C	0.2353911981721379 0.5967031025715303 0.3975974002382889	-0.115146
C	0.0647365487934696 0.7622741156566365 0.3910816458830794	0.088808
C	0.0987674754458896 0.7286004720749661 0.3960078400790001	-0.165618
C	0.0633710306401779 0.1061713998710059 0.8912735457951867	0.090671
C	0.0960085744160924 0.0710460161009284 0.8963237862282608	-0.163744
C	0.2293446860654951 0.9363219473143384 0.8978471403586548	-0.115172
C	0.2642051680956521 0.9035875837353347 0.8976985312075253	-0.115941
C	0.4350774725340305 0.7381650213123176 0.8911476962328753	0.081611
C	0.4011538680677226 0.7720009619854967 0.8959115072215527	-0.167035
C	0.5629172868061257 0.6057047324336028 0.8912310232624733	0.089215
C	0.5957539751867055 0.5707909459117031 0.8963606477369774	-0.163190
C	0.7295159827692123 0.4365193276443711 0.8979136599386958	-0.114183
C	0.7641984556184074 0.4035748545125752 0.8976295770084963	-0.116841
C	0.9354126846095051 0.2384842333164577 0.8911690930389666	0.082258
C	0.9010639718138957 0.2718633626805528 0.8958389989000729	-0.167675
C	0.6516205477532341 0.8237051086413727 0.7500242505928777	-0.103520
C	0.8865552003953048 0.0527079001747366 0.7500011885694911	0.159628
C	0.8230954485592347 0.9874393773187700 0.7499828032876996	-0.100135
C	0.6166688419318104 0.7896474922104758 0.7500328067833987	0.165564
C	0.7882457461636140 0.9533308784041914 0.7499835609365579	0.127506
C	0.7175440230703879 0.8863797243215882 0.7499975115859961	0.137692
C	0.6821163516998795 0.8528425528956015 0.7500084868372043	-0.101872
C	0.8527068485018425 0.0175348662013283 0.7500022260099741	-0.103723
C	0.1518802342633840 0.3235107535021050 0.7499901540417990	-0.107455
C	0.3866480967724095 0.5523858859032763 0.7499644406673703	0.160382
C	0.3230255568836796 0.4873103298110432 0.7499796048583283	-0.096331
C	0.1169705594711236 0.2894596932867840 0.7499904974078238	0.167948
C	0.2880811774808695 0.4533177200294659 0.7499869110056379	0.128572
C	0.2174861410335314 0.3864162787273278 0.7499991880810658	0.136411
C	0.1822265677652275 0.3527846398965960 0.7499997301264596	-0.097418
C	0.3527740053515649 0.5172543400470927 0.7499641128004444	-0.106098
C	0.3481241439056315 0.1764304348474480 0.2500071020728313	-0.106524
C	0.1133015144173961 0.9475676574619217 0.2499829856893228	0.161671
C	0.1767014750304967 0.0128696349399522 0.2499986489978954	-0.097304
C	0.3831174166542928 0.2104206733572632 0.2500103894055445	0.168625
C	0.2116307303778891 0.0468583446926932 0.2499960588899003	0.126844
C	0.2823144535064780 0.1137028167142658 0.2499905393203941	0.137856
C	0.3176742411838969 0.1472577808085215 0.2499928493790589	-0.098364
C	0.1470118178124576 0.9828628831389656 0.2499839559366285	-0.108358
C	0.8480600707964026 0.6768141059262561 0.2499817731459856	-0.103103
C	0.6128789843344152 0.4477976921699403 0.2500069286396502	0.160070
C	0.6764870954454590 0.5130089312619390 0.2500005169543458	-0.102794
C	0.8830370413121540 0.7108505959459676 0.2499875637476013	0.164714
C	0.7116257711526898 0.5468760743150864 0.2499991607832952	0.127600
C	0.7825222243665554 0.6137258735075062 0.2499877636189485	0.137431
C	0.8177775494345578 0.6474376852692035 0.2499850643797147	-0.100655
C	0.6466081608385651 0.4831679649001498 0.2499994591234186	-0.103768
C	0.3482323033986214 0.8239590668589915 0.7500262333553676	-0.102118
C	0.1131628124964326 0.0525967122162042 0.7499865280783385	0.160422
C	0.1765172841222609 0.9872625294733658 0.7499764081340135	-0.097894
C	0.3831748526248266 0.7898813587959880 0.7500327503259350	0.164292
C	0.2114463331923277 0.9533077658611769 0.7499850333437589	0.125457
C	0.2823094327970745 0.8866345063912862 0.7500044712154358	0.139023
C	0.3177621277133174 0.8531292378726965 0.7500139919556685	-0.101949
C	0.1468475450455686 0.0172903742517162 0.7499862147968870	-0.108914
C	0.8477313542846208 0.3234138756093789 0.7499928139311575	-0.104262
C	0.6131378550927657 0.5526080059603564 0.7499792658660237	0.161423
C	0.6767303814130813 0.4875297591863644 0.7499813453838702	-0.096228
C	0.8827665750512002 0.2894337373046570 0.7499893686233499	0.165708
C	0.7116804005930001 0.4535551364329928 0.7499872289468137	0.125469
C	0.7821954662433965 0.3864793592995788 0.7500019968945668	0.138374
C	0.8174184998679614 0.3527489467589617 0.7500018289992535	-0.100262
C	0.6469632882012830 0.5174552578020911 0.7499822296404884	-0.106447
C	0.6516240397292682 0.1767460087006316 0.2500110798568683	-0.107364
C	0.8863783236135495 0.9475205454211065 0.2499677160019174	0.157952
C	0.8227822492097036 0.0127287478775355 0.2499944342597325	-0.101818
C	0.6166583893503518 0.2107206780284977 0.2500134182131344	0.168130
C	0.7879367293862536 0.0468946796968937 0.2500023134864447	0.130586
C	0.7174081235127482 0.1140187715080554 0.2499948530821759	0.135726
C	0.6820723014586600 0.1475792313627828 0.2499949842108195	-0.097573
C	0.8524533150207980 0.9826787218637664 0.2499657138586000	-0.100458
C	0.1516474819843330 0.6766468511307902 0.2500139492862180	-0.105027
C	0.3869343388836020 0.4479629387116493 0.2500054604037189	0.158743
C	0.3233300745023830 0.5131418535482768 0.2500033438014151	-0.103510
C	0.1167595635353577 0.7107495504561192 0.2500154849906548	0.165881
C	0.2882353271078886 0.5470155708881864 0.2500011609915540	0.129116
C	0.2172914148605652 0.6137149129730896 0.2499896324459792	0.136924
C	0.1819764269656875 0.6473338659360037 0.2499941889663503	-0.099046
C	0.3531754916805119 0.4832744412294993 0.2499991938259712	-0.103613
H	0.9513168721758447 0.1198508997597778 0.0029085909429548	0.111010
H	0.8922044336039987 0.0578879659384887 0.0131726334094563	0.122475
H	0.7844023230058736 0.9491693107286520 0.0119017512757514	0.105597
H	0.7219274196427909 0.8902284590549870 0.0116805551426191	0.114622
H	0.5510021447223481 0.7232623276316876 0.0029109000745484	0.109738
H	0.6112237484548936 0.7837910178640070 0.0129158040522980	0.127254
H	0.4515928558507709 0.6199541107283622 0.0016178442200415	0.107415
H	0.3921869057524786 0.5573268280925617 0.0128686130169427	0.122849
H	0.2842808601789042 0.4492095903006601 0.0119443801655637	0.106200
H	0.2217970631033526 0.3902135694608587 0.0116433043080028	0.114409
H	0.0507654908409444 0.2230209087932964 0.0015804866218608	0.105498
H	0.1117250475946032 0.2837762752404900 0.0126585611951745	0.126726
H	0.0498435966586980 0.8784360668493232 0.5015150613860039	0.106636
H	0.1084023357412800 0.9419454225226417 0.5129413090358105	0.122626
H	0.2156520948143807 0.0507468569664718 0.5119376731327745	0.106026
H	0.2781629789930666 0.1096559658209776 0.5116749284631835	0.114244
H	0.4506024255087918 0.2755168451345769 0.5014913107243962	0.105460
H	0.3889805853864557 0.2154902629520860 0.5127221902303443	0.127609
H	0.5501139985256503 0.3785374751608749 0.5028673799981782	0.110552
H	0.6078171869166877 0.4419407516509564 0.5132070906939000	0.122091
H	0.7157911877101925 0.5508197050391571 0.5119767239115931	0.105429
H	0.7783518282193480 0.6095627548990151 0.5116280217731862	0.114711
H	0.9505293051006448 0.7752997734709520 0.5027538690182793	0.109898
H	0.8890696740872139 0.7160792427333365 0.5129863668968287	0.126998
H	0.0497183817138312 0.1217481047368289 0.4983875872625654	0.107030
H	0.1082326684434442 0.0581792062986538 0.4870812646695275	0.122218
H	0.2153644344175114 0.9492799593995963 0.4880927582967710	0.105406
H	0.2780470753025513 0.8905606023612550 0.4882694051592442	0.114938
H	0.4487798667491287 0.7234626951007344 0.4971746549671464	0.110154
H	0.3886331071251515 0.7840727981593439 0.4871174242485989	0.127621
H	0.5482340417307224 0.6202388189763594 0.4984209238046590	0.106769
H	0.6076574932488381 0.5576329700322793 0.4870287593415745	0.122569
H	0.7155902402976856 0.4495874347430571 0.4880230724179833	0.106350
H	0.7779318092949731 0.3904677454948807 0.4883389725583477	0.114759
H	0.9502809401251459 0.2250310672282842 0.4970711630858224	0.109428
H	0.8887554150518231 0.2841938043029933 0.4870946047904574	0.127331
H	0.9511965837613731 0.8804140291404949 0.9970862172999156	0.111060
H	0.8920399947894366 0.9422889134298120 0.9867710038414104	0.122563
H	0.7839723160678790 0.0509725086924616 0.9880188879708923	0.106444
H	0.7216645117652181 0.1100855497429196 0.9883509610301914	0.114277
H	0.5491415121432653 0.2757884432635794 0.9985018899771956	0.106103
H	0.6108449982584264 0.2158350498753377 0.9872719843119515	0.126826
H	0.4497301771591269 0.3787512077441973 0.9972063737829281	0.109711
H	0.3920311986865115 0.4421766436054184 0.9867870550186363	0.122125
H	0.2842194025824890 0.5510517187955928 0.9880403762531726	0.105675
H	0.2215524907154888 0.6097172247286822 0.9883312430921565	0.114641
H	0.0505804730284229 0.7772664360740053 0.9984690163098088	0.105176
H	0.1114406402225046 0.7164508034666632 0.9872858498963676	0.126514
H	0.0498355466849599 0.8784461018289337 0.9984826537890453	0.106594
H	0.1083910484745087 0.9419628893447477 0.9870251246917942	0.122496
H	0.2156545146636836 0.0507496802809732 0.9880581896461024	0.105939
H	0.2781651676055210 0.1096599584868326 0.9883038850805692	0.114305
H	0.4506011057005545 0.2755182482485939 0.9985188943948710	0.105499
H	0.3889870165310669 0.2154946242219760 0.9872905748833939	0.127496
H	0.5501169106982233 0.3785349950257852 0.9971837008758796	0.110498
H	0.6078139776146694 0.4419417760743408 0.9868043981681637	0.122078
H	0.7157928123240227 0.5508223147927784 0.9880221195484323	0.105454
H	0.7783536685942583 0.6095658740450768 0.9883479027799446	0.114726
H	0.9505357532004706 0.7753052336672415 0.9972125016553626	0.109675
H	0.8890657750241654 0.7160970478311731 0.9869894148370852	0.126950
H	0.9513141833590126 0.1198523571274317 0.4970636396178889	0.111003
H	0.8922098372545955 0.0578840788365959 0.4868280483458647	0.122473
H	0.7844036323860507 0.9491698025898753 0.4880673577824401	0.105824
H	0.7219282344178556 0.8902300789051558 0.4883135957503494	0.114564
H	0.5510099971737885 0.7232721979228709 0.4971347028654918	0.110064
H	0.6112321522703892 0.7837978385468564 0.4871452653261726	0.127239
H	0.4516160534519544 0.6199453993874655 0.4983314191819269	0.107490
H	0.3922085013782799 0.5573297972552897 0.4870500336799338	0.122925
H	0.2842815191881761 0.4492134550609204 0.4880318973872301	0.106210
H	0.2217971204326237 0.3902180767572895 0.4883563295751632	0.114363
H	0.0507712171029793 0.2230174390887317 0.4984206034576990	0.105442
H	0.1117337930030348 0.2837705309438494 0.4873263273774845	0.126712
H	0.9511894421508664 0.8804182574521027 0.5028985190334013	0.111043
H	0.8920371082600398 0.9422904817423826 0.5131652544960160	0.122647
H	0.7839728166234842 0.0509706804330438 0.5119882816341714	0.106566
H	0.7216653626342532 0.1100842142729949 0.5116333037979763	0.114261
H	0.5491418356692794 0.2757927767028910 0.5014924713324670	0.106040
H	0.6108593281178870 0.2158504025062621 0.5127487182493208	0.126845
H	0.4497348865884300 0.3787497016111040 0.5028228526428586	0.109637
H	0.3920439040341345 0.4421879654021316 0.5132244439651363	0.122212
H	0.2842210855356854 0.5510507432905619 0.5119620279373902	0.105709
H	0.2215536657841987 0.6097154332738497 0.5116477675004353	0.114600
H	0.0505893000787790 0.7772775063701288 0.5015105328532243	0.105409
H	0.1114417241944909 0.7164632415201629 0.5127509007979663	0.126438
H	0.0497172977541280 0.1217420058501454 0.0015865436271285	0.107083
H	0.1082345212521895 0.0581704782150066 0.0128922676545291	0.122241
H	0.2153629011183057 0.9492804825663521 0.0118831779816230	0.105509
H	0.2780453911148506 0.8905606164840265 0.0117378051453683	0.114975
H	0.4487871395200722 0.7234527531384358 0.0028835510430184	0.109964
H	0.3886431056776037 0.7840720616912288 0.0129443415142896	0.127472
H	0.5482522242659958 0.6202488333737414 0.0015462190673633	0.106693
H	0.6076761380076879 0.5576385066592168 0.0129274020493929	0.122654
H	0.7155903258747996 0.4495879523902547 0.0119513950037269	0.106126
H	0.7779324370412500 0.3904684908041631 0.0116667126820667	0.114768
H	0.9502876875401345 0.2250359377684872 0.0029212560146928	0.109468
H	0.8887602042526238 0.2841993020641845 0.0128826974522209	0.127377
Co	0.4998339533262274 0.6725363147520200 0.7499982868753470	0.577388
Co	0.0000247647540424 0.1727582344544421 0.7499953711169268	0.576494
Co	0.4998247572704825 0.3273478481061422 0.2500159984929341	0.575517
Co	0.0000353660706031 0.8276207599829236 0.2499859418243400	0.577800
Al	0.4998624078710532 0.6720485736920470 0.2500580694660958	1.656208
Al	0.0007312398211395 0.1728781137200638 0.2500326041673916	1.660699
Al	0.4997155874020672 0.3261509578971786 0.7500238191537896	1.654686
Al	0.0007061226940741 0.8273473755959480 0.7499764853992321	1.655849
F	0.4996516206840789 0.6109879848597285 0.2501515746193949	-0.635155
F	0.9717019438294535 0.2261084798789797 0.2500822766874518	-0.626112
F	0.9715088499748969 0.1197247976130195 0.2499957928306528	-0.622669
F	0.4998653825697064 0.2650424196751068 0.7499665362919935	-0.638946
F	0.9719148269209155 0.7739796520494479 0.7500510222593172	-0.625094
F	0.9713355882593865 0.8804089310987360 0.7497863345134499	-0.621940
F	0.5513882790239957 0.7018709655149511 0.2501100926545117	-0.624275
F	0.0596963358286009 0.1727749440159604 0.2500604582546836	-0.638710
F	0.4480456398262654 0.3558243422452456 0.7500392870400511	-0.623761
F	0.4485242780225175 0.7022545681490606 0.2500926531740009	-0.624633
F	0.5513816137115191 0.3558348582329118 0.7501957386686708	-0.623499
F	0.0596769728449701 0.8276034155977667 0.7499431115993217	-0.637589
F	0.4998148500109827 0.6726279313107694 0.4740041359018834	-0.590357
F	0.0002529216426658 0.1728269737255747 0.4739572226722094	-0.590948
F	0.4996811681991324 0.3268418431911511 0.9736555428280891	-0.589745
F	0.0002063256838904 0.8274498709795393 0.9737081690386122	-0.590038
F	0.4998109486114068 0.6726107038928638 0.0262282094865500	-0.590270
F	0.0002623475764631 0.1728860686357380 0.0261422308282964	-0.591155
F	0.4997141061831531 0.3269255986135524 0.5264164616475112	-0.589825
F	0.0002039696008451 0.8273993079896755 0.5261781235381342	-0.590076
N	0.5476458824822646 0.7212359813557873 0.7500253757677506	-0.180728
N	0.9531039707158171 0.1233172533308882 0.7499882926828629	-0.179924
N	0.0477781101811597 0.2213533644884689 0.7500010869453901	-0.178802
N	0.4530068127022187 0.6230798223066074 0.7499775636096311	-0.177688
N	0.4523233636379868 0.2784877196613651 0.2500041441702150	-0.179596
N	0.0471422393260585 0.8767144836880708 0.2499964095042101	-0.177274
N	0.9525261626829832 0.7787171072797212 0.2499831704259575	-0.180058
N	0.5469745556745927 0.3765245652797977 0.2500274275209308	-0.179047
N	0.4520704774814883 0.7213471851622921 0.7500287512437985	-0.181467
N	0.0470500086678358 0.1235609417540430 0.7499864547668066	-0.177304
N	0.9523787023338558 0.2216391441834328 0.7499986189039527	-0.181775
N	0.5467534182510561 0.6232550667434626 0.7499835222206470	-0.177218
N	0.5473539822868709 0.2786486126402541 0.2499986909478140	-0.177977
N	0.9530434508374203 0.8770285533038844 0.2499839945736947	-0.180004
N	0.0476856674139759 0.7789726093611228 0.2499899299860855	-0.178894
N	0.4527846744573470 0.3766643982134962 0.2500162083481260	-0.179634
	  	
