#======================================================================

# CRYSTAL DATA

#----------------------------------------------------------------------

data_VESTA_phase_1


_pd_phase_name                         ALFFIVE_14_Co_i
_cell_length_a                         12.94061
_cell_length_b                         12.93085
_cell_length_c                         8.12208
_cell_angle_alpha                      87.56779
_cell_angle_beta                       87.44704
_cell_angle_gamma                      88.77692
_symmetry_space_group_name_H-M         P 1
_symmetry_Int_Tables_number            1

loop_
_symmetry_equiv_pos_as_xyz
   x, y, z

loop_
   _atom_site_label
   _atom_site_fract_x
   _atom_site_fract_y
   _atom_site_fract_z
   _atom_site_charge
C	0.5646991541609628 0.2668294915471731 0.3645421008195527	-0.175838
C	0.4575355513488510 0.2703380626380447 0.3693411592997370	0.094782
C	0.9425967300316607 0.2893886570320153 0.4147762255843964	-0.170440
C	0.0495078719248075 0.2828933987003618 0.3997088692569715	0.098943
C	0.2650491909441542 0.5645422035526757 0.3659995242217391	-0.175505
C	0.2681398584563413 0.4572643921589668 0.3712600775138632	0.091909
C	0.2972497059665727 0.9424601536631086 0.4102115866344478	-0.169563
C	0.2899848026510035 0.0494349524327462 0.3960229232612246	0.097910
C	0.9366721428912090 0.2332094820634657 0.1358220008789394	-0.180462
C	0.0438951570962814 0.2300946829037957 0.1291308362675274	0.093259
C	0.5599866799752848 0.2095922189680186 0.0861185367570757	-0.164584
C	0.4530380806214068 0.2177288979536244 0.0985066144344884	0.089369
C	0.2108398625620439 0.5594745169213901 0.0860732073498840	-0.166051
C	0.2187937103497140 0.4524998691221648 0.0987790702140422	0.087054
C	0.2302291294996008 0.9362053645715159 0.1382905262337895	-0.179228
C	0.2268958234906296 0.0434905194821039 0.1319018737948245	0.094724
C	0.4363832636306106 0.7345084212833592 0.6359538824194727	-0.177887
C	0.5435431543418550 0.7317043482012421 0.6290182298950142	0.093683
C	0.0594125887697147 0.7276230860384463 0.5771497417662164	-0.162540
C	0.9524130657293586 0.7322208969514730 0.5921505671825932	0.087542
C	0.7354587552317747 0.4364469018102136 0.6357079649957156	-0.177738
C	0.7331701933217368 0.5436791203393265 0.6287291471119101	0.093930
C	0.7158385238920876 0.0594525053632667 0.5819768263682297	-0.161684
C	0.7217672329599557 0.9523889079788035 0.5958232030613461	0.087199
C	0.0643684094769217 0.7606497573199398 0.8667877928823443	-0.176223
C	0.9572457994426702 0.7623231500739243 0.8731181748601100	0.091467
C	0.4423695273735084 0.7813749273167625 0.9198054456506529	-0.165077
C	0.5493170345747531 0.7767122180852409 0.9036201268100866	0.097880
C	0.7823504408492958 0.4425083025837082 0.9194183145328035	-0.168122
C	0.7778850327650131 0.5495008143164957 0.9033748817723140	0.098846
C	0.7646767932086159 0.0644927539401273 0.8647965712371080	-0.174270
C	0.7672704284094570 0.9573175539641090 0.8702717293809611	0.094745
C	0.6177219740407137 0.2361870063622501 0.2192892129670753	0.191440
C	0.8842499233394719 0.2628200242311028 0.2821625576554746	0.192796
C	0.2361443059870722 0.6173696406711184 0.2199420225110902	0.191992
C	0.2654836174574388 0.8839413856823599 0.2809270350223290	0.190840
C	0.3840336483592894 0.7596277806101263 0.7848394609103753	0.190481
C	0.1172140449861297 0.7430045610410899 0.7152932251004316	0.190158
C	0.7601074406769701 0.3841071008901338 0.7845477724770937	0.190856
C	0.7386484384919076 0.1173274568673616 0.7170388038704176	0.190301
H	0.6065715628045921 0.2828935704082609 0.4736817618502146	0.110934
H	0.4130076710279243 0.2880312028628400 0.4815697394571453	0.103888
H	0.9046243378883800 0.3140149478284215 0.5290227170732166	0.126308
H	0.0980953530174761 0.3007481245118306 0.5001430599065645	0.107999
H	0.2798475568232637 0.6067836940367941 0.4754046846054140	0.112620
H	0.2840128261537288 0.4130289417408928 0.4844447551166107	0.105792
H	0.3265899276850960 0.9045796942690233 0.5212287846755789	0.126340
H	0.3118350157325294 0.0980702678309783 0.4943234369732364	0.108390
H	0.8942134623862792 0.2170171009643327 0.0272888803925169	0.111902
H	0.0874638162896139 0.2099069481893211 0.0167137917203120	0.107011
H	0.5984004883399363 0.1834828292489902 0.9732178572229487	0.126312
H	0.4061452989350877 0.2012005445360225 0.9950245479029699	0.115143
H	0.1863448742759400 0.5977213788827586 0.9722204684536366	0.126204
H	0.2038150941292291 0.4054783595371757 0.9946447129363571	0.115341
H	0.2098745390450462 0.8934971363188162 0.0321108036076443	0.113174
H	0.2029557791281435 0.0870762256208246 0.0218363969655992	0.105717
H	0.3941230985129011 0.7205813904194690 0.5262223995158467	0.107622
H	0.5873175971911739 0.7137529514362912 0.5159174734814355	0.107059
H	0.0976254461569147 0.7128628186764391 0.4584483458459531	0.125281
H	0.9055632348790446 0.7222694948208255 0.4860907907228134	0.114226
H	0.7217930208543829 0.3939489878937658 0.5260248731728441	0.108150
H	0.7157224131212314 0.5874886121790075 0.5155687768494365	0.107618
H	0.6942772992251367 0.0977414000982567 0.4665353261954120	0.125960
H	0.7070930463372621 0.9055259261719973 0.4914408855415759	0.113735
H	0.1061495684649242 0.7691969469995315 0.9787921697083148	0.107187
H	0.9131497048154603 0.7710089388642457 0.9889153043287656	0.107708
H	0.4044592172422972 0.8014709600930273 0.0365478119600128	0.125462
H	0.5977595837717664 0.7921106170438361 0.0052685759525131	0.107493
H	0.8022002228308631 0.4046169871648210 0.0361098938650682	0.126162
H	0.7931131253129927 0.5980630562320378 0.0051298340887093	0.106283
H	0.7785699453137137 0.1064153761809104 0.9749327738317395	0.108072
H	0.7822987664440839 0.9129397397671841 0.9835284080854125	0.107154
N	0.7760554741037333 0.2734015193349563 0.3024716864998358	-0.117586
N	0.2770151619319151 0.7756464849204330 0.2995617324725201	-0.119487
N	0.7259325312283377 0.2250768335776521 0.2000103680163438	-0.111559
N	0.2249501180509864 0.7255941193814573 0.2017566232974365	-0.110907
N	0.2253458777680242 0.7355180717663822 0.6915478449654924	-0.105960
N	0.7298834539736384 0.2255666544226412 0.6949575377823378	-0.110453
N	0.2758438163023611 0.7679124890544994 0.8088998186877009	-0.115139
N	0.7684499281510917 0.2758886437796618 0.8075109495867443	-0.114225
N	0.4021633816518480 0.2477863951533171 0.2382263433630346	-0.178417
N	0.0999001663660805 0.2532906051418329 0.2594138767484334	-0.177567
N	0.2471521471760287 0.4017893037353101 0.2393624429429737	-0.178303
N	0.2548937578446875 0.0996141506475089 0.2593247114045144	-0.175796
N	0.5995955224445499 0.7521298623515584 0.7607154537299784	-0.175184
N	0.9017341237188518 0.7493396382896835 0.7379719999389787	-0.177619
N	0.7534623976815661 0.5997680783924504 0.7605578387693603	-0.175548
N	0.7472849990207947 0.9017552861401842 0.7378636171941482	-0.177003
F	0.3740830549292150 0.1980208193366013 0.7425393197014505	-0.628685
F	0.2102314376333593 0.3753546342244077 0.7430447921177533	-0.627204
F	0.1488051291250446 0.1551577738380016 0.7709238608483974	-0.633754
F	0.7019581006144446 0.8756085773913840 0.2441728154956578	-0.623592
F	0.8749721739602340 0.7078869465518935 0.2435992324928188	-0.618881
F	0.6529492433088208 0.6520739852708943 0.2658845670220787	-0.632361
F	0.2491121687025831 0.2476746496070383 0.5237512709441769	-0.593388
F	0.2506222935396107 0.2487876077684319 0.9778625464554077	-0.592568
F	0.7478144929852664 0.7491473367256460 0.4774247850704270	-0.589081
F	0.7501024871330167 0.7510663861745590 0.0236742018595012	-0.592190
Al	0.2467675209043414 0.2447636585598170 0.7514663138307065	1.661803
Al	0.7453924747588335 0.7472874808847534 0.2512194729552777	1.655937
Co	0.2509699959570231 0.2505822886576096 0.2489443665146285	0.615282
Co	0.7504969866104518 0.7506989134573191 0.7491916713224051	0.614295
	  	
