#======================================================================

# CRYSTAL DATA

#----------------------------------------------------------------------

data_VESTA_phase_1


_pd_phase_name                         ALFFIVE_7_Cu
_cell_length_a                         18.93339
_cell_length_b                         18.93339
_cell_length_c                         8.02531
_cell_angle_alpha                      89.93478
_cell_angle_beta                       90.06429
_cell_angle_gamma                      90.00703
_symmetry_space_group_name_H-M         P 1
_symmetry_Int_Tables_number            1

loop_
_symmetry_equiv_pos_as_xyz
   x, y, z

loop_
   _atom_site_label
   _atom_site_fract_x
   _atom_site_fract_y
   _atom_site_fract_z
   _atom_site_charge
C	0.6668694122945983 0.8697151515895846 0.6992345221783611	0.097818
C	0.6154173904701090 0.9220092224646790 0.7028104662009219	-0.174954
C	0.5804066571420228 0.8870126565403874 0.4274631370910484	-0.172302
C	0.6328674947580069 0.8359814855171724 0.4323026763357878	0.100267
C	0.8333763421757002 0.6303121941629896 0.6986971771564779	0.104479
C	0.8846745334341457 0.5779103812823018 0.7030505133110713	-0.176395
C	0.9195405289013124 0.6130168745080844 0.4277234637399668	-0.171719
C	0.8671927183429466 0.6642307101807239 0.4318182616205647	0.092797
C	0.6301522744330799 0.6667199942733156 0.6988451383504326	0.099950
C	0.5778437592668219 0.6153241411451451 0.7028434319748513	-0.174210
C	0.6129582458224958 0.5803363569534428 0.4277757735197675	-0.171003
C	0.6641132620615827 0.6326997254047083 0.4323092749689222	0.095230
C	0.8697216301187253 0.8329783175280039 0.6989610959191394	0.101602
C	0.9219907334060522 0.8844946344281560 0.7030120755504231	-0.175318
C	0.8868528658262271 0.9195024593695375 0.4275841950170237	-0.172160
C	0.8356150652149847 0.8671738944625050 0.4322022762388957	0.097147
C	0.3329793537957086 0.3697229223605253 0.3010422402732582	0.101757
C	0.3844957637055814 0.4219921355878400 0.2969893767082125	-0.175401
C	0.4195020884556856 0.3868528918432792 0.5724167957842979	-0.172197
C	0.3671730772518416 0.3356155252127377 0.5677995628066863	0.097201
C	0.1667211249187233 0.1301529484583620 0.3011547061420927	0.099846
C	0.1153254569262297 0.0778442165904537 0.2971587721793816	-0.174232
C	0.0803358983001565 0.1129574526353036 0.5722251221228458	-0.170975
C	0.1326993237613049 0.1641121946999272 0.5676905320833354	0.095162
C	0.3697157051022107 0.1668701741869006 0.3007640515531588	0.097890
C	0.4220091856870510 0.1154174637066650 0.2971879688664420	-0.174925
C	0.3870126617375909 0.0804064684591370 0.5725377230071717	-0.172289
C	0.3359813475439128 0.1328671709440989 0.5676976210204291	0.100271
C	0.1303116950371525 0.3333763934542350 0.3013028675059499	0.104502
C	0.0779102575800607 0.3846748543489365 0.2969505894046764	-0.176406
C	0.1130168863935389 0.4195406486152758 0.5722746890515424	-0.171674
C	0.1642303937734360 0.3671927494891055 0.5681788009117035	0.092767
C	0.4321567892766444 0.0708365209802707 0.4353195189400966	0.139511
C	0.4870765795963214 0.0169016416994199 0.4320082297889755	-0.121784
C	0.0677818363297457 0.4291848471123887 0.4350798004389357	0.140586
C	0.0127874643744050 0.4831010337372516 0.4320009660994958	-0.121776
C	0.4290840539021297 0.4321050973239403 0.4351648054052676	0.141461
C	0.4829971540098965 0.4870404362684755 0.4319428335541177	-0.124913
C	0.0707514275917554 0.0677452556695300 0.4351634823684570	0.137652
C	0.0168036346774200 0.0127583437987163 0.4320738291054460	-0.118416
C	0.5677448721397799 0.5707512686893856 0.5648375995095593	0.137577
C	0.5127575272144181 0.5168034281769905 0.5679260140855246	-0.118427
C	0.9321044344993580 0.9290838331112282 0.5648361640051318	0.141396
C	0.9870396295073368 0.9829969242589580 0.5680575283922537	-0.124882
C	0.5708364103124479 0.9321568286479291 0.5646799651147366	0.139540
C	0.5169016594360077 0.9870765098514199 0.5679915061109375	-0.121712
C	0.9291847240795509 0.5677817009849628 0.5649199341879719	0.140547
C	0.9831008825485286 0.5127875052135791 0.5679987253180577	-0.121695
H	0.7012487541234436 0.8598034957527144 0.8061369836850966	0.110931
H	0.6106088177377837 0.9549611819028547 0.8135361869459443	0.117094
H	0.5464026896005171 0.8903188260941424 0.3181625413497723	0.116201
H	0.6427148282404562 0.8005960117318232 0.3280315179164362	0.104092
H	0.7984470358785380 0.6405372929010578 0.8036584081071236	0.103971
H	0.8895993069850213 0.5448109551054054 0.8137443093107882	0.115553
H	0.9533631666647768 0.6098908114858022 0.3183364363585505	0.118197
H	0.8577549538061496 0.6992373409932187 0.3258058509994398	0.111481
H	0.6405980604027842 0.7006797371160064 0.8053790243626820	0.109257
H	0.5449809317302273 0.6104083781392802 0.8137051210575774	0.116635
H	0.6097104945064106 0.5466188904492094 0.3181804989471423	0.117576
H	0.6985934246484983 0.6427435485158051 0.3264465926783512	0.109460
H	0.8601108488283913 0.7975189547223092 0.8039782608395213	0.106124
H	0.9551571558893514 0.8893705107711731 0.8136064939287317	0.116005
H	0.8901060846461178 0.9535492365675694 0.3183796660940005	0.116998
H	0.7996317273697412 0.8579669786047982 0.3280528654000479	0.106661
H	0.2975206379147337 0.3601120746921823 0.1960268211315305	0.106059
H	0.3893720511073906 0.4551589796736803 0.1863938027357218	0.116007
H	0.4535481415265059 0.3901047144714629 0.6816209652794436	0.117012
H	0.3579662463465135 0.2996305192007263 0.6719492976683646	0.106631
H	0.2006811101225137 0.1405987413633814 0.1946187407629406	0.109274
H	0.1104098030409547 0.0449829014779579 0.1862958208340957	0.116644
H	0.0466174104442034 0.1097092449128746 0.6818196950923925	0.117546
H	0.1427431962461657 0.1985922424661816 0.6735517156825054	0.109471
H	0.3598040445617746 0.2012491846263072 0.1938593488136916	0.110881
H	0.4549616241204092 0.1106086585127437 0.1864619236903174	0.117099
H	0.3903188237021488 0.0464024263858061 0.6818393631909014	0.116213
H	0.3005955280976805 0.1427147108609585 0.6719689762918134	0.104110
H	0.1405370660365634 0.2984475963050055 0.1963419810855353	0.103972
H	0.0448109343923487 0.3895995597453317 0.1862578120547335	0.115534
H	0.1098903970323010 0.4533630174368704 0.6816605322381155	0.118180
H	0.1992362289703209 0.3577544444076285 0.6741917196564375	0.111466
H	0.5061609616519467 0.0020153036093642 0.3083093954025978	0.102415
H	0.9936578836245284 0.4982485658548604 0.3083118025221385	0.101909
H	0.4980817689202940 0.5061885592250833 0.3083811924898806	0.103163
H	0.0018419718324558 0.9936824934756597 0.3082492032401332	0.101172
H	0.4936805776626844 0.5018408744559237 0.6917507857042167	0.101178
H	0.0061869033283404 0.9980806251148777 0.6916188977473391	0.103175
H	0.5020153340972867 0.0061608791092996 0.6916902174152776	0.102411
H	0.9982484123847911 0.4936580619507586 0.6916880316556160	0.101910
Cu	0.2499202318606355 0.2498919058646250 0.4342220278734393	0.726571
Cu	0.7498918752459992 0.7499205260000655 0.5657790008302545	0.726489
Al	0.2504084006271457 0.2504527101551172 0.9351272813046625	1.683106
Al	0.7504556270714772 0.7504081922985381 0.0648688191530791	1.683096
F	0.2503316406579785 0.2494612654222911 0.1611397669825650	-0.627606
F	0.2494578461003203 0.2502626034180223 0.7086336031781116	-0.627384
F	0.7494450476926301 0.7503356124093776 0.8388647835140218	-0.627600
F	0.7502720507148535 0.7494583895860505 0.2913718690336836	-0.627372
F	0.1844225405961251 0.1856407533576315 0.9351800730816302	-0.647645
F	0.2279717658508892 0.3401189768488996 0.9366253625023222	-0.648651
F	0.3397108093765966 0.2265622721044332 0.9331102504821092	-0.648236
F	0.7265661535074335 0.8397052240529911 0.0668857606263329	-0.648249
F	0.8401257452053220 0.7279916718399483 0.0633579656986985	-0.648674
F	0.6856563110117797 0.6844111224066975 0.0648180355967430	-0.647633
N	0.3275492732665021 0.1753315078807712 0.4342944455214319	-0.222554
N	0.1725907070963874 0.3248138385079906 0.4346656943220866	-0.221599
N	0.3246033233467700 0.3273477640964983 0.4344182691917109	-0.219771
N	0.1751487199301007 0.1724211314187361 0.4344049776452006	-0.224683
N	0.6724214926613189 0.6751483034816490 0.5655946206207703	-0.224731
N	0.8273472127759530 0.8246033412167002 0.5655845747713604	-0.219682
N	0.6753317018067270 0.8275493953287695 0.5657046898471296	-0.222469
N	0.8248137052392697 0.6725910761881603 0.5653331328359056	-0.221576
	  	
