#======================================================================

# CRYSTAL DATA

#----------------------------------------------------------------------

data_VESTA_phase_1


_pd_phase_name                         ALFFIVE_13_Zn_i
_cell_length_a                         15.40337
_cell_length_b                         15.40158
_cell_length_c                         7.74014
_cell_angle_alpha                      90.09071
_cell_angle_beta                       90.08358
_cell_angle_gamma                      89.63534
_symmetry_space_group_name_H-M         P 1
_symmetry_Int_Tables_number            1

loop_
_symmetry_equiv_pos_as_xyz
   x, y, z

loop_
   _atom_site_label
   _atom_site_fract_x
   _atom_site_fract_y
   _atom_site_fract_z
   _atom_site_charge
C	0.5415489925203592 0.6867645582602809 0.8678553814420312	0.111551
C	0.5450100148388304 0.7770770422249603 0.8656919149756821	-0.153072
C	0.4616828750882375 0.3174499909991055 0.8807560072521468	0.106217
C	0.4579260790241333 0.2271905557524902 0.8815295526623430	-0.145529
C	0.8159353365305724 0.9711332232116580 0.3603529345255049	0.106942
C	0.7256981014406791 0.9683510468941520 0.3568373632485306	-0.140839
C	0.3166325585076650 0.5446187670152611 0.8650048499368368	0.107053
C	0.2262516517422647 0.5482153936484077 0.8612767504337555	-0.152745
C	0.1864791949403405 0.9731964408680619 0.3576712766532322	0.092837
C	0.2767014269409617 0.9710798599185204 0.3553164258552090	-0.141463
C	0.6860122904227525 0.4629624712463236 0.8811956951082486	0.105435
C	0.7762526049273198 0.4590452594913333 0.8812260537271078	-0.141708
C	0.4564909946552379 0.6873453946332168 0.1155925349523938	0.107162
C	0.4524529609403933 0.7775863482748264 0.1171710861731702	-0.141499
C	0.5428573085151971 0.3190959503082919 0.1344571625018671	0.106578
C	0.5458530821630853 0.2287424627029478 0.1400378675530475	-0.152688
C	0.1845638372663120 0.0188882824129982 0.6441194206048894	0.110119
C	0.2746736118518410 0.0217556363423861 0.6510053728312699	-0.142258
C	0.6844644602074406 0.5448521501521176 0.1337139114606476	0.113104
C	0.7747753436443987 0.5483055052503009 0.1379391142087186	-0.153077
C	0.8158798815017160 0.0299165588612215 0.6372232069116462	0.104295
C	0.7257851091871436 0.0310681932459054 0.6436426684943627	-0.141758
C	0.3160646284087301 0.4590960384823206 0.1124483755658021	0.105284
C	0.2258125098731651 0.4556014113160777 0.1127231245827840	-0.142498
C	0.9655786931767835 0.8140962822583290 0.6363879997776505	0.106160
C	0.9635920714874940 0.7238067178128035 0.6409000972458324	-0.140978
C	0.9827413607002404 0.1836210189392234 0.6424655816594197	0.092175
C	0.9797300197939427 0.2737691163928521 0.6465699337851855	-0.140807
C	0.0234547848881055 0.8132973945031462 0.3591324345749830	0.105302
C	0.0255761534296354 0.7232121960128823 0.3538994142960871	-0.140798
C	0.0272912530190638 0.1829002471860005 0.3555668913849512	0.111146
C	0.0292636412187974 0.2731142070520400 0.3503252099203043	-0.141522
C	0.0038433889762858 0.3193826824022800 0.4980395759309861	0.040838
C	0.0019819787483070 0.4144694398513122 0.4981693588711973	0.255602
C	0.4986828778767056 0.8233569531286403 0.9914917830629916	0.055406
C	0.4995646793658781 0.9191281136360946 0.9971464058705692	0.247984
C	0.9951649340537558 0.6775140356568308 0.4978310151245247	0.038185
C	0.9974534152408560 0.5823192641796768 0.4983418964982630	0.245846
C	0.5015565642608447 0.1819796313705524 0.0125786510130913	0.054508
C	0.5009873686418089 0.0861489416237921 0.0127944829259805	0.252564
C	0.6797654348510753 -0.0007615390683575 0.5008095584580148	0.037306
C	0.5846091509307588 0.9977542162330834 0.5033280341427452	0.245053
C	0.1800231130232368 0.5020046468840057 0.9862416996186359	0.054848
C	0.0842414558372647 0.5026749030878372 0.9899112041529529	0.248755
C	0.3216473643881403 0.9964567964326878 0.5042825350307996	0.041517
C	0.4167542768674544 0.9963949148128666 0.5057184775268316	0.258143
C	0.8214941836419744 0.5035313119508910 0.0106218770857911	0.052757
C	0.9173195180273775 0.5034518382115756 0.0077044486342392	0.250494
H	0.5726057794906424 0.6475648755411545 0.7679458426128205	0.102336
H	0.5821324591143018 0.8103122158945362 0.7662146283863016	0.121664
H	0.4329652621277804 0.3555707688989252 0.7759561570590204	0.109068
H	0.4243773983749662 0.1923623776635029 0.7789589929934544	0.117113
H	0.8544438597384958 0.9489323538832698 0.2502438876882471	0.106877
H	0.6920600017190597 0.9434892739912445 0.2434348301875954	0.118238
H	0.3559586208682587 0.5764471764954616 0.7665877650299108	0.103645
H	0.1928681069463819 0.5855048183668512 0.7614180901955497	0.122136
H	0.1491939915642524 0.9581783009860578 0.2414771716903115	0.106919
H	0.3109143676682760 0.9518182233508801 0.2381809526776199	0.114857
H	0.6477561185209519 0.4349151891657189 0.7764295312683455	0.110311
H	0.8111052043721508 0.4250316815101750 0.7789084790586877	0.116641
H	0.4271623009690735 0.6487531116599836 0.2180355755165176	0.110676
H	0.4175454795936176 0.8119971168131126 0.2188335540829465	0.115295
H	0.5732089908830975 0.3588013324350533 0.2344895481207292	0.103371
H	0.5809503860704976 0.1958615185788744 0.2436389298960092	0.122435
H	0.1452229553629072 0.0335219840006905 0.7572486451392600	0.104235
H	0.3073015195179569 0.0415643003774241 0.7693996461927586	0.116650
H	0.6448829433093128 0.5744441923659588 0.2346960593175391	0.102843
H	0.8076198985116608 0.5839878000300459 0.2404346212386481	0.121923
H	0.8546227742487364 0.0515057939426020 0.7467110870200803	0.097400
H	0.6923148610011712 0.0546725564718177 0.7584554454369429	0.119508
H	0.3546442978402438 0.4285877425666708 0.2145583553322570	0.108542
H	0.1913193375201555 0.4205774562046916 0.2133584705020499	0.115129
H	0.9436863028821003 0.8529204931234838 0.7464342598707940	0.107306
H	0.9395702747738670 0.6904636096193583 0.7550416173066915	0.117683
H	0.9682029525771682 0.1458377718501715 0.7579428194517636	0.105987
H	0.9603770002977863 0.3074429239030441 0.7642960025692752	0.117115
H	0.0444018421470505 0.8517901571587345 0.2491634889500675	0.096575
H	0.0496166576654316 0.6895911212146387 0.2396037319693493	0.116907
H	0.0418207662247407 0.1440975628305838 0.2414845829448701	0.104160
H	0.0480127793369271 0.3064020615193652 0.2321952444341362	0.116525
N	0.9442319164048659 0.5401291426490690 0.6084250516963693	-0.136779
N	0.4228888686735853 0.0466111282902959 0.0120617681569505	-0.152192
N	0.5430959903416465 0.0515303416225750 0.6147930087019502	-0.136113
N	0.9580432547608069 0.4255085105136948 0.0030178078013895	-0.145944
N	0.0534828874397240 0.5421422522110493 0.3893621736274708	-0.136321
N	0.5783794734669295 0.0443515672528321 0.0129504151980999	-0.150422
N	0.9578142489386217 0.5809888435951236 0.0049208403960491	-0.148703
N	0.5438369242119149 0.9415279319692113 0.3964365088245242	-0.134563
N	0.0560055802790113 0.4566574607431257 0.3899505605046876	-0.130711
N	0.5776118822196383 0.9586778983100515 0.0005483902164381	-0.147695
N	0.4583828937228871 0.9410864568480984 0.3977048920508329	-0.129295
N	0.0434322958531036 0.5805984731267088 0.9916477558188160	-0.149174
N	0.9463492411510809 0.4546778832375776 0.6076150556543587	-0.129710
N	0.4223012679795163 0.9607813812338509 0.0072520505423024	-0.142613
N	0.0438367459202017 0.4251212462159007 0.9969460996154628	-0.148857
N	0.4576176640418835 0.0506483605318052 0.6161064866349768	-0.135554
N	0.0048745326815550 0.1390884900884402 0.4989801733008082	-0.215523
N	0.4992569723486559 0.6430248196524599 0.9917537168432832	-0.221259
N	0.9951655311603177 0.8578209425399709 0.4980491578746685	-0.210444
N	0.5023144841561678 0.3621866722229452 0.0063317106554072	-0.217783
N	0.8600098819073800 0.0010936981231329 0.4983566747171917	-0.210887
N	0.3602776464084738 0.5018414253936319 0.9895249138893352	-0.216760
N	0.1413506052093311 0.9957160248916878 0.5000476363249651	-0.214826
N	0.6412463837982697 0.5039887968342661 0.0066952448846425	-0.222431
Zn	0.0007615681260580 0.9984290190895820 0.4989961230469882	0.733671
Zn	0.5008556456387576 0.5025965631536493 0.9989746285029819	0.736291
Al	0.9947063884062231 0.9929114082117366 0.9993095393492013	1.671796
Al	0.4965478698684783 0.4980838473445066 0.4989694602584977	1.688476
F	0.0004183221933499 -0.0050791249541510 0.2349184437540416	-0.582127
F	0.5067779785321419 0.4938404965983901 0.7353180968785216	-0.586404
F	-0.0033767655041063 0.9975237084096437 0.7634143120774862	-0.581838
F	0.4917493037792565 0.5074534500304270 0.2623230624471913	-0.586845
F	0.9144929615823960 0.9145454625535345 -0.0003382375098183	-0.628805
F	0.4189490260862605 0.4168027497811213 0.4988630420145480	-0.650205
F	0.9612868105044137 0.1011135553883253 0.0021869371227580	-0.624880
F	0.4611017129243583 0.6054294557207083 0.5162145822096527	-0.654230
F	0.1022785262642783 0.9575727479026459 -0.0038636192131457	-0.625222
F	0.6049853806989592 0.4662171151941172 0.4815309727363086	-0.653117
	  	
