#======================================================================

# CRYSTAL DATA

#----------------------------------------------------------------------

data_VESTA_phase_1


_pd_phase_name                         ALFFIVE_2_Co_i
_cell_length_a                         13.57178
_cell_length_b                         13.57177
_cell_length_c                         8.16497
_cell_angle_alpha                      89.99980
_cell_angle_beta                       90.00038
_cell_angle_gamma                      89.86899
_symmetry_space_group_name_H-M         P 1
_symmetry_Int_Tables_number            1

loop_
_symmetry_equiv_pos_as_xyz
   x, y, z

loop_
   _atom_site_label
   _atom_site_fract_x
   _atom_site_fract_y
   _atom_site_fract_z
   _atom_site_charge
C	0.0001970176703555 0.2977689096145401 0.3524422035833053	-0.156088
C	0.0001060770984245 0.1957523989186845 0.3573634592749339	0.082181
C	0.5001805646211064 0.7977496874075540 0.8523942919882068	-0.155440
C	0.5000986084053649 0.6957069390422957 0.8573093018847056	0.081648
C	0.0000097253812943 0.7028042108590081 0.3523846599280105	-0.160797
C	-0.0002692853567648 0.8047968747174303 0.3574326491219412	0.088886
C	0.4999895940622472 0.2028271222095138 0.8523693322909016	-0.160618
C	0.4997107935763048 0.3048465873544508 0.8574033706696412	0.088617
C	0.7028054318837038 0.0000084623665322 0.3523841036027434	-0.160787
C	0.8047982441511300 -0.0002705896090425 0.3574324251361242	0.088811
C	0.2028286578587755 0.4999880134788959 0.8523702719067922	-0.160627
C	0.3048481998096881 0.4997091939714778 0.8574043180789045	0.088608
C	0.2977692390150035 0.0001957456869019 0.3524430350878132	-0.156035
C	0.1957528936074370 0.0001047529521419 0.3573636943187123	0.082144
C	0.7977509703402091 0.5001790514602290 0.8523960643784206	-0.155535
C	0.6957080139478132 0.5000965271405398 0.8573105088471625	0.081737
C	0.0001970000616245 0.2977685988048280 0.6475570813114130	-0.156030
C	0.0001060474592516 0.1957521899679225 0.6426359654000021	0.082153
C	0.5001805274729310 0.7977492476869333 0.1476040105633002	-0.155545
C	0.5000985496997659 0.6957063370360671 0.1426890789679158	0.081680
C	0.0000097418550135 0.7028039350699353 0.6476152672866382	-0.160778
C	-0.0002692168798305 0.8047966305503196 0.6425669808145449	0.088907
C	0.4999893256546056 0.2028264914479795 0.1476300181519283	-0.160618
C	0.4997102812210161 0.3048459552685446 0.1425959507500482	0.088610
C	0.2977700915489799 0.0001956977843473 0.6475575211897302	-0.156037
C	0.1957534427268670 0.0001046850630404 0.6426361639377547	0.082127
C	0.7977522415985887 0.5001788348066685 0.1476052178386198	-0.155578
C	0.6957093283943049 0.5000962852625344 0.1426913568725937	0.081830
C	0.7028060570584407 0.0000084686677729 0.6476146483483169	-0.160916
C	0.8047989733853445 -0.0002706334972019 0.6425670597885637	0.088920
C	0.2028298513914178 0.4999880788369840 0.1476307704616295	-0.160572
C	0.3048493134570564 0.4997091959936547 0.1425967957166673	0.088595
C	0.0003363692530643 0.4553489243006865 0.4999996252183261	-0.088977
C	0.0003762060350981 0.3514124758308545 0.4999995536730063	0.155728
C	0.5003465879270913 0.9553685441332589 -0.0000006636834775	-0.089558
C	0.5003771528439227 0.8513969580693607 -0.0000007819585073	0.155682
C	0.0004221567500513 0.5452879768387123 0.5000000812719094	-0.101401
C	0.0003855106322608 0.6491545411862621 0.5000001830188648	0.161305
C	0.5004429644858824 0.0453160619489504 -0.0000004720688161	-0.100905
C	0.5003805787662807 0.1491741546770921 -0.0000003290871430	0.160835
C	0.5452872299877687 0.0004233035199653 0.4999992800927018	-0.101591
C	0.6491553854762321 0.0003843309100799 0.4999992634834473	0.161321
C	0.0453184630517074 0.5004418119521463 0.0000003877532933	-0.100985
C	0.1491765826144957 0.5003792311076063 0.0000003272593259	0.160816
C	0.4553483381809442 0.0003351344567723 0.5000004646180773	-0.088734
C	0.3514136637685686 0.0003749210453168 0.5000005907757974	0.155687
C	0.9553709708913786 0.5003456095172134 0.0000003434489012	-0.089454
C	0.8513992939707347 0.5003756278941940 0.0000004297169838	0.155700
H	-0.0003586923881715 0.3350153372167264 0.2343510813534984	0.120721
H	-0.0014349627734638 0.1529633237566872 0.2447885458379416	0.110812
H	0.4996457082980995 0.8350737138476045 0.7343290649846752	0.120425
H	0.4985729239941679 0.6529526142616968 0.7446629190411911	0.110880
H	-0.0005293734300735 0.6651155180424879 0.2346227243665895	0.121616
H	-0.0020461203697288 0.8486633267614179 0.2459789056682601	0.106699
H	0.4994652465215577 0.1650809852626505 0.7345968233673666	0.121532
H	0.4979427241157094 0.3486984747712885 0.7458613945031712	0.106648
H	0.6651158733725218 -0.0005306632107571 0.2346221671500925	0.121626
H	0.8486648929893176 -0.0020472429933726 0.2459794003573733	0.106763
H	0.1650814697586408 0.4994640187255950 0.7345977590648477	0.121537
H	0.3486991387243734 0.4979424135929333 0.7458622013888224	0.106620
H	0.3350158152362478 -0.0003600074128261 0.2343522690236805	0.120698
H	0.1529631559672358 -0.0014362635148022 0.2447884565124031	0.110790
H	0.8350738482527353 0.4996449006591588 0.7343308817843920	0.120432
H	0.6529535350583403 0.4985742873091926 0.7446624779426130	0.110847
H	-0.0003587517692082 0.3350148137774614 0.7656479301402817	0.120701
H	-0.0014349959605817 0.1529628623091189 0.7552111358840222	0.110783
H	0.4996456223355359 0.8350729070150866 0.2656692450817583	0.120443
H	0.4985729778802366 0.6529520387624775 0.2553359455611393	0.110876
H	-0.0005294115204549 0.6651150809453585 0.7653774599827521	0.121608
H	-0.0020459558643260 0.8486630244781748 0.7540204464369846	0.106693
H	0.4994649215402845 0.1650802139023669 0.2654028147359593	0.121532
H	0.4979423953566239 0.3486976149366818 0.2541378346004270	0.106652
H	0.3350170701117387 -0.0003600091342022 0.7656488132094424	0.120710
H	0.1529640314047612 -0.0014362404335965 0.7552107459035544	0.110783
H	0.8350761445135394 0.4996446888834885 0.2656708258348053	0.120417
H	0.6529556359699021 0.4985741520805952 0.2553387265572639	0.110829
H	0.6651165508033652 -0.0005306323720625 0.7653761961351352	0.121648
H	0.8486659844078437 -0.0020474025919584 0.7540208243005508	0.106753
H	0.1650831689732146 0.4994640803572986 0.2654026521167381	0.121510
H	0.3487009076810638 0.4979422346174190 0.2541394675217825	0.106606
Co	0.0003244052522842 0.0003226819234253 0.4999998177694212	0.591880
Co	0.5003409406426671 0.5003379877999941 0.0000002118762200	0.592164
Al	-0.0001865883081980 -0.0001892905200794 -0.0000007805577082	1.650491
Al	0.4999111466866812 0.4999461243785803 0.5000018001734515	1.649974
N	0.0002502904103855 0.1448855107683026 0.4999998269483238	-0.178671
N	0.5002479275072962 0.6448844301643413 -0.0000006629247484	-0.178445
N	0.0000879888388698 0.8557599650180056 0.4999997392685885	-0.176069
N	0.5000780876379866 0.3558076899240097 -0.0000001167872008	-0.175779
N	0.8557615832445862 0.0000865773644300 0.5000001270219436	-0.176101
N	0.3558101342440060 0.5000762869409658 0.0000003418503146	-0.175632
N	0.1448869205808397 0.0002488870638835 0.4999999441071998	-0.178617
N	0.6448867681724892 0.5002449880091538 0.0000008366168273	-0.178627
F	0.0004851353550960 0.0004818122405406 0.7750456343462361	-0.588302
F	0.5005617210931426 0.5005424532797166 0.2747437504135342	-0.588169
F	0.0004827068307679 0.0004821005710374 0.2249531312643549	-0.588315
F	0.5005498595940909 0.5005502077232648 0.7252574310442048	-0.588074
F	0.6233888510159861 0.4653740141428106 0.5000125811544427	-0.616284
F	0.4652270502395313 0.6233822625344757 0.4999945016744237	-0.616425
F	0.4094789269854716 0.4094631729323905 0.4999998898636590	-0.631545
F	0.9095316845370762 0.9095295647311272 -0.0000027261555725	-0.631941
F	0.9653196708066852 0.1230964534974440 -0.0000018015708491	-0.616804
F	0.1230995496282691 0.9653184241928447 0.0000026002227642	-0.616826
	  	
