#======================================================================

# CRYSTAL DATA

#----------------------------------------------------------------------

data_VESTA_phase_1


_pd_phase_name                         ALFFIVE_4_Ni_i
_cell_length_a                         23.44570
_cell_length_b                         20.65983
_cell_length_c                         9.34620
_cell_angle_alpha                      89.99843
_cell_angle_beta                       90.00035
_cell_angle_gamma                      90.00043
_symmetry_space_group_name_H-M         P 1
_symmetry_Int_Tables_number            1

loop_
_symmetry_equiv_pos_as_xyz
   x, y, z

loop_
   _atom_site_label
   _atom_site_fract_x
   _atom_site_fract_y
   _atom_site_fract_z
   _atom_site_charge
C	0.4168403320673203 0.5973438062165859 0.6273000849561580	0.094774
C	0.3734963475373100 0.5515899353953050 0.6252540768980445	-0.172013
C	0.2774462755694178 0.4485532667771370 0.6246446682253575	-0.118795
C	0.2314840543299986 0.4061811236416513 0.6234510001981478	-0.112070
C	0.1307015062085425 0.3193849062841450 0.6220224808428794	-0.168968
C	0.0843384839666042 0.2776580276359617 0.6255466958887729	0.089057
C	0.9168673888078778 0.0973149963012089 0.6272945916730719	0.095327
C	0.8735134079836030 0.0515696709709061 0.6252555815367695	-0.171763
C	0.7774387676449057 0.9485589351689755 0.6246436521024581	-0.118883
C	0.7314719607097914 0.9061915769247153 0.6234542860348248	-0.111992
C	0.6306714628517491 0.8194123601212897 0.6220241164713429	-0.169602
C	0.5843052369477052 0.7776825771214553 0.6255618742448565	0.089119
C	0.5831038707989717 0.4026322654722474 0.1274722320956129	0.096444
C	0.6264290672724158 0.4484170017043564 0.1252603196555820	-0.174906
C	0.7228231478710483 0.5510260368562561 0.1246392200535103	-0.116787
C	0.7686623576564622 0.5935401964131531 0.1234394225611801	-0.111471
C	0.8692146830609230 0.6805782539880987 0.1219773355874852	-0.169135
C	0.9156088986478099 0.7222771222677702 0.1253848315453611	0.086216
C	0.0830516714597895 0.9027077201318189 0.1274446503274638	0.096415
C	0.1263875889395700 0.9484801593894732 0.1252519445182389	-0.175503
C	0.2228332805416393 0.0510140023912752 0.1246388105353354	-0.116464
C	0.2686717374132851 0.0935283711489234 0.1234351139991176	-0.111915
C	0.3692489864551950 0.1805332733063740 0.1219853035968188	-0.168227
C	0.4156398895272868 0.2222396844005079 0.1254166089813488	0.086246
C	0.5833868884411137 0.5975468688893300 0.8725984102788870	0.096339
C	0.6266021334592240 0.5516144566034250 0.8747140428432560	-0.175547
C	0.7227109752024548 0.4485487877564712 0.8753459019974024	-0.118007
C	0.7686470198823759 0.4061600411033836 0.8765574765248790	-0.109684
C	0.8697894203501427 0.3199900812466379 0.8780048191996896	-0.167856
C	0.9162398239533992 0.2783710733834239 0.8745169394937422	0.089592
C	0.0833857503803544 0.0975636320851289 0.8725934599996271	0.096938
C	0.1266102792267809 0.0516434214808653 0.8747166052553232	-0.175333
C	0.2226915463768061 0.9485368296854394 0.8753541978805013	-0.118279
C	0.2686263787759319 0.9061462046883203 0.8765583409194054	-0.109609
C	0.3697961294397542 0.8200102210333106 0.8780213633896365	-0.167717
C	0.4162474342807621 0.7783972400379283 0.8745347806882767	0.088935
C	0.4172238728633516 0.4031085568456282 0.3726464885983855	0.094278
C	0.3738182895909230 0.4487920417697294 0.3747479897005340	-0.171790
C	0.2771589785511800 0.5510212782666007 0.3753398661707141	-0.117543
C	0.2312998381376934 0.5935320530148439 0.3765354754909308	-0.113013
C	0.1310714919498717 0.6811613676159938 0.3779412597701317	-0.168615
C	0.0846739239618336 0.7228529790581031 0.3744685047786807	0.086828
C	0.9172464692395061 0.9030835644528512 0.3726235744387313	0.093448
C	0.8738308128034514 0.9487572712417015 0.3747438794610060	-0.172313
C	0.7771679231832940 0.0510201876327595 0.3753412600821774	-0.117180
C	0.7313113649205177 0.0935408672024593 0.3765318549807805	-0.113559
C	0.6310815590689519 0.1811848097308818 0.3779664815443962	-0.167792
C	0.5846780950107957 0.2228685366950303 0.3745104110770686	0.087733
C	0.5831089147969193 0.4026368699076329 0.3725632943178201	0.096450
C	0.6264335691848743 0.4484186004513894 0.3747495560716592	-0.174959
C	0.7228204836289429 0.5510273572038901 0.3753568266768854	-0.116831
C	0.7686611942956475 0.5935412668428417 0.3765584950793389	-0.111471
C	0.8692223547283473 0.6805801769868226 0.3779952932433315	-0.169308
C	0.9156140823096900 0.7222816730670837 0.3745696080648521	0.086389
C	0.0830455227489530 0.9027057116929592 0.3725366037210966	0.096386
C	0.1263832337023916 0.9484775445385463 0.3747394543410150	-0.175493
C	0.2228323457674224 0.0510129929221653 0.3753539239998888	-0.116449
C	0.2686697234400872 0.0935287187871349 0.3765560565083332	-0.112051
C	0.3692430395577105 0.1805284773358948 0.3780167117468854	-0.168052
C	0.4156328946039186 0.2222350575522894 0.3746129245314146	0.086424
C	0.4168444577204817 0.5973502571823827 0.8726773849382764	0.094826
C	0.3735011380394598 0.5515944026456140 0.8747428744807700	-0.172134
C	0.2774457161862849 0.4485526233488996 0.8753671398231430	-0.118725
C	0.2314829800409907 0.4061806782978765 0.8765612644447685	-0.112354
C	0.1306944693119757 0.3193729719822669 0.8779517085611506	-0.169515
C	0.0843313427400530 0.2776464484245094 0.8743864618903684	0.089755
C	0.9168750428224217 0.0973242753728883 0.8726726579789131	0.095905
C	0.8735208453442448 0.0515765556512506 0.8747504601849575	-0.172148
C	0.7774373268439567 0.9485564123562390 0.8753699699578026	-0.118979
C	0.7314720013585738 0.9061885252133841 0.8765581535667851	-0.111843
C	0.6306661295564147 0.8194068638214991 0.8779610956629941	-0.169624
C	0.5843017068894514 0.7776771642612780 0.8744038574705548	0.089526
C	0.4172265370256197 0.4031049968945516 0.1274034682028692	0.093711
C	0.3738219102400913 0.4487889548186505 0.1252717213293409	-0.171680
C	0.2771589227029227 0.5510222102545506 0.1246557685660303	-0.117632
C	0.2312992973293132 0.5935325202396780 0.1234450776480835	-0.112923
C	0.1310736097897223 0.6811540212920950 0.1219977016212899	-0.168506
C	0.0846778850353888 0.7228478471045540 0.1254413523710088	0.086932
C	0.9172392706233635 0.9030892868799143 0.1273882906069620	0.093369
C	0.8738241052204271 0.9487610231335741 0.1252742954417411	-0.172058
C	0.7771674657889217 0.0510211575497021 0.1246673699159484	-0.117200
C	0.7313105832524077 0.0935427120987679 0.1234583181031305	-0.113571
C	0.6310745362529889 0.1811896919616997 0.1220324032892322	-0.167642
C	0.5846702861690671 0.2228735089657146 0.1255043214057098	0.087561
C	0.5833889801198455 0.5975423323977809 0.6273564033014469	0.096459
C	0.6266056893955978 0.5516133046749242 0.6252734333803029	-0.175415
C	0.7227103172337748 0.4485532166402262 0.6246588869132684	-0.117950
C	0.7686456454370847 0.4061656692467693 0.6234544340639979	-0.109658
C	0.8697832721246295 0.3200021632375750 0.6219655449813596	-0.167960
C	0.9162336340168660 0.2783842998927518 0.6254294004642492	0.089524
C	0.0833948399963035 0.0975592057063855 0.6273584053745513	0.096839
C	0.1266176827295578 0.0516384686685191 0.6252821621004967	-0.175189
C	0.2226884884923253 0.9485397133632318 0.6246661669686984	-0.118148
C	0.2686234277846298 0.9061513179385075 0.6234599057339851	-0.109555
C	0.3697892191091703 0.8200167109644385 0.6219783803550061	-0.167920
C	0.4162410893891382 0.7784034714190056 0.6254495310431082	0.089282
C	0.3492350129840118 0.5246336787807863 0.7500048585236710	0.110550
C	0.3022370603917067 0.4744044938275887 0.7500071250212643	0.068597
C	0.2058239422727962 0.3844516037005670 0.7500044583831688	0.066587
C	0.1557953496910750 0.3411025182446334 0.7499946442070886	0.104773
C	0.8492405100174403 0.0246275913163217 0.7500101360510868	0.109968
C	0.8022329425517055 0.9744067082300250 0.7500100347870411	0.068358
C	0.7058070067282914 0.8844656780135743 0.7500041071764577	0.066151
C	0.6557707500504412 0.8411228923801918 0.7499975459234293	0.104958
C	0.6508350485691391 0.4753015752280428 0.2500040514445063	0.111648
C	0.6979781555765273 0.5252574907262870 0.2499983237415572	0.067804
C	0.7941993910130472 0.6154325604399390 0.2499983877360833	0.068561
C	0.8441512840083872 0.6588779037721553 0.2499899192068844	0.101494
C	0.1508142324166634 0.9753324511328997 0.2499999898004078	0.112240
C	0.1979808964315648 0.0252581409202931 0.2499971054388949	0.067409
C	0.2942058699654712 0.1154211439800748 0.2499964319375978	0.069523
C	0.3441693021919463 0.1588516904910999 0.2499972851577687	0.100174
C	0.6508488324138979 0.5245528055043525 0.7499965599884805	0.109747
C	0.6978748399266874 0.4743609821341501 0.7500056801251140	0.064530
C	0.7943036419478109 0.3844479206599488 0.7500008334897418	0.068389
C	0.8445346922559742 0.3414164110674002 0.7499947845868831	0.100654
C	0.1508453643200050 0.0245662027398762 0.7500086897605964	0.109851
C	0.1978586273834405 0.9743583245566014 0.7500148528783368	0.064812
C	0.2942939389486457 0.8844426265420733 0.7500046402606095	0.068176
C	0.3445361320330713 0.8414281660491083 0.7500064128906369	0.100646
C	0.3493131300903279 0.4754890762971634 0.2500075250270835	0.113758
C	0.3020709669635179 0.5253263179675404 0.2499969238500262	0.069926
C	0.2058131917749663 0.6155387549008916 0.2499910303790099	0.065052
C	0.1560206415692815 0.6592340747941008 0.2499701035791648	0.102852
C	0.8493218190483658 0.9754622523522468 0.2500150880516541	0.114807
C	0.8020789753418683 0.0253151931622833 0.2500046833230095	0.069240
C	0.7058205289604099 0.1155520652530950 0.2499975434586464	0.065788
C	0.6560274403674889 0.1592555928405338 0.2499924091442043	0.101712
H	0.4346199237033598 0.6165717605230829 0.5276795899947702	0.118681
H	0.3604268325166590 0.5390790985324705 0.5188483598499273	0.107753
H	0.2931788629271693 0.4602479241059167 0.5199946298860808	0.087975
H	0.2158536718914414 0.3903638643175395 0.5194153236140937	0.103741
H	0.1468587174605189 0.3340129108287045 0.5178437075481713	0.120668
H	0.0641656628347216 0.2590012925684899 0.5282708561495830	0.117291
H	0.9346653071655217 0.1165231104111831 0.5276766746171820	0.118376
H	0.8604428157464586 0.0390539232057089 0.5188485738446702	0.107671
H	0.7931718697941634 0.9602583029324522 0.5199896994021879	0.088015
H	0.7158477995961454 0.8903720726050793 0.5194159794289743	0.103785
H	0.6468274588339171 0.8340498251221997 0.5178474360211485	0.120811
H	0.5641231595628181 0.7590461203087746 0.5282826324815635	0.117635
H	0.5650698149345440 0.3830238406192744 0.0285325522143162	0.118456
H	0.6394766335726706 0.4612121527894977 0.0190193387684134	0.105955
H	0.7073121437990345 0.5390690496617161 0.0199182910871526	0.087256
H	0.7843487695259035 0.6093515920282861 0.0194546194233668	0.104861
H	0.8531937871574725 0.6660262140619105 0.0175894355136200	0.122300
H	0.9354818882400595 0.7405567627341568 0.0272815289646083	0.118908
H	0.0649688566624444 0.8831606996334329 0.0284991306116333	0.118055
H	0.1394267610604859 0.9612930569504172 0.0190130998805468	0.105701
H	0.2073282531306438 0.0390454064693254 0.0199218120912099	0.087170
H	0.2843567422436478 0.1093382709951326 0.0194521022577872	0.104973
H	0.3532344001607431 0.1659707956150004 0.0175930971657756	0.122162
H	0.4355257560600689 0.2405063913716455 0.0273184049524638	0.118809
H	0.5658803746172955 0.6173719025294649 -0.0280475009565208	0.119060
H	0.6397657419912773 0.5390648876878148 -0.0189932600146614	0.107135
H	0.7071612220504273 0.4604340251717565 -0.0199571139778437	0.087031
H	0.7843354522192081 0.3903873868209219 -0.0194267401434914	0.104447
H	0.8538509934123784 0.3347993548829394 -0.0177070074411397	0.121201
H	0.9366305759042850 0.2604344443727413 -0.0277637690680324	0.117741
H	0.0658761779112298 0.1173999915801619 -0.0280692713333619	0.118863
H	0.1397877864466482 0.0391223129145505 -0.0189876233106046	0.107151
H	0.2071270518182817 0.9604035161616608 -0.0199523567963409	0.087088
H	0.2843087379697700 0.8903690150734411 -0.0194198003988412	0.104332
H	0.3538515976282875 0.8348156483027862 -0.0176987188370261	0.121246
H	0.4366452637481281 0.7604599201142156 -0.0277472010066470	0.117958
H	0.4355001193471061 0.3841261655363397 0.4719209900014995	0.118877
H	0.3610265393315926 0.4617454694894277 0.4811114213512070	0.106477
H	0.2926795153671609 0.5390510266041881 0.4800519937575853	0.087480
H	0.2155796975882347 0.6092806390119829 0.4805457013541741	0.104121
H	0.1473070181634658 0.6668691215039861 0.4822684423363174	0.121138
H	0.0649299127487840 0.7416584468831581 0.4722156832924170	0.118351
H	0.9355475572677767 0.8840915554141030 0.4718660818078699	0.118958
H	0.8610293090900371 0.9617067600224137 0.4810988303515210	0.106447
H	0.7926874331221971 0.0390547838588346 0.4800554073282697	0.087356
H	0.7156036610359332 0.1092890671242519 0.4805555189097828	0.104300
H	0.6473369252235014 0.1668892558014985 0.4822700633792113	0.120922
H	0.5649286834613859 0.2416924375133331 0.4722299201255141	0.118442
H	0.5650762720858227 0.3830311904606265 0.4715088221958798	0.118484
H	0.6394880593530242 0.4612173532121011 0.4809894361402470	0.105864
H	0.7073104304209046 0.5390751679175573 0.4800793467622553	0.087278
H	0.7843494271303622 0.6093553668099516 0.4805366287016273	0.104788
H	0.8532020882399857 0.6660347593264083 0.4823958899979781	0.122342
H	0.9354922791848929 0.7405622445380297 0.4726656651454686	0.118797
H	0.0649624271244960 0.8831616595295728 0.4714865797813272	0.118142
H	0.1394212156321589 0.9612931210128518 0.4809761538242975	0.105840
H	0.2073305748039841 0.0390480726744531 0.4800746286048915	0.087180
H	0.2843565885802430 0.1093411797472683 0.4805361852583769	0.105000
H	0.3532256364916566 0.1659665034509730 0.4824078741764759	0.122037
H	0.4355153958404710 0.2405005293567416 0.4727120011690107	0.118855
H	0.4346275473505065 0.6165825438736269 -0.0277128967375180	0.118741
H	0.3604383387683461 0.5390837596758656 -0.0188425670308443	0.107874
H	0.2931801336085223 0.4602454662665286 -0.0199862545748298	0.087987
H	0.2158514680292157 0.3903642025752009 -0.0194041026512440	0.103796
H	0.1468456441001751 0.3339962871301574 -0.0178588782406049	0.120800
H	0.0641513411823065 0.2589857606594440 -0.0283504011654934	0.117096
H	0.9346745153583960 0.1165387856374311 -0.0277163039151525	0.118348
H	0.8604568112833942 0.0390665394920191 -0.0188361482344734	0.107716
H	0.7931706637342728 0.9602542153222238 -0.0199746235406074	0.087952
H	0.7158458092665507 0.8903700671613025 -0.0194059234332777	0.103729
H	0.6468171084523963 0.8340390204621304 -0.0178553081454523	0.120780
H	0.5641142322220991 0.7590365060888010 -0.0283238135145090	0.117349
H	0.4355034419290338 0.3841158414403717 0.0281387671056460	0.119060
H	0.3610323188947329 0.4617391359244967 0.0189047232392238	0.106400
H	0.2926836359855782 0.5390505081293514 0.0199476658580370	0.087439
H	0.2155837878777969 0.6092784726197700 0.0194298311016248	0.104093
H	0.1473138212764120 0.6668571055602290 0.0176827148984769	0.120966
H	0.0649371856975231 0.7416519228476026 0.0276846500494067	0.118359
H	0.9355389542698113 0.8840926049273974 0.0281516827445364	0.118987
H	0.8610255466084586 0.9617149425088560 0.0189198808492237	0.106393
H	0.7926914288971038 0.0390523761525009 0.0199544862812822	0.087427
H	0.7156042079197334 0.1092865619614953 0.0194300205779801	0.104251
H	0.6473256524638005 0.1668966152083509 0.0177245069240973	0.120892
H	0.5649162987266557 0.2416988701056788 0.0277907227140425	0.118326
H	0.5658876233388251 0.6173620081715707 0.5279955497018438	0.118992
H	0.6397738071607681 0.5390546154939880 0.5189872652204609	0.107137
H	0.7071634197012265 0.4604457657867277 0.5199673946568009	0.087031
H	0.7843329867723365 0.3903963296958974 0.5194333912067893	0.104396
H	0.8538368776107804 0.3348198125787353 0.5176940281259479	0.121275
H	0.9366173231662909 0.2604606832973649 0.5276867533269408	0.117944
H	0.0658881206809412 0.1173923044947073 0.5280138297776865	0.118862
H	0.1398018721057755 0.0391130501680405 0.5189953398436834	0.107095
H	0.2071227472312474 0.9604120345487838 0.5199726796968521	0.086962
H	0.2843041997942219 0.8903760636270762 0.5194347064435916	0.104322
H	0.3538423158877935 0.8348268629816616 0.5177009599600294	0.121243
H	0.4366348293442585 0.7604710288811927 0.5277262860148340	0.117941
Ni	0.4999275963590661 0.6889731377376545 0.7499379946888030	0.472956
Ni	-0.0000518712415702 0.1889859654661324 0.7498417821518419	0.477504
Ni	0.4998779375635333 0.3108642378751840 0.2501011983666090	0.473375
Ni	-0.0000888882316008 0.8108411217725715 0.2499016697440757	0.467880
F	0.4994317930535841 0.6877239584523411 0.4618715731839253	-0.646933
F	-0.0004917476729741 0.1877534961302429 0.4620411480390149	-0.646236
F	0.4993655426481441 0.3114565352227752 0.9616657925076767	-0.640898
F	-0.0004938318012797 0.8112452158006018 0.9618651706744893	-0.646626
F	0.4994298431880825 0.6877091331403274 0.0384212467860047	-0.646856
F	-0.0005063981343581 0.1878026644458652 0.0384552057542450	-0.646312
F	0.4993752785982918 0.3114282127453984 0.5380195059083777	-0.640707
F	-0.0005034381138977 0.8112254085227835 0.5383140284945354	-0.646669
F	0.4768444049637973 0.7664166686220593 0.2500973450254578	-0.669194
F	0.5698145880363743 0.6657221604673831 0.2500649264888116	-0.665350
F	0.9758900983717010 0.2662306458366450 0.2502953789695350	-0.667450
F	0.0701967107032881 0.1668964110054298 0.2500603103475025	-0.664602
F	0.5693805836982565 0.2892337308362205 0.7498674382628948	-0.666718
F	0.4781844181895228 0.3916349977391768 0.7498593834704188	-0.661106
F	0.0689380355055145 0.7860332861728261 0.7500391597064375	-0.667283
F	0.9810384592268178 0.8918403125166614 0.7499936858870228	-0.662511
F	0.4477852213430844 0.6262755687430112 0.2500972781334505	-0.657381
F	0.9485889450108521 0.1256443546821218 0.2501041596683492	-0.656785
F	0.4456794329007139 0.2531092735914461 0.7499329515881192	-0.663719
F	0.9447325384707119 0.7541596196433785 0.7501415456635947	-0.664531
N	0.4388230468352362 0.6202022527077904 0.7499823208501566	-0.157916
N	0.5618178379117847 0.7568261976339502 0.7499796362561535	-0.165602
N	0.9388477118798395 0.1201814376608761 0.7499713510377147	-0.159501
N	0.0618393316750700 0.2568092570879187 0.7499580491980365	-0.166936
N	0.5611182481870882 0.3797468940616930 0.2500243138009918	-0.160591
N	0.4381150041378722 0.2430780645687877 0.2500189609047525	-0.167755
N	0.0610773898082174 0.8797997002838039 0.2499867562635491	-0.156420
N	0.9381076502619428 0.7431023392840486 0.2499721060659653	-0.163863
N	0.5613471806509436 0.6203612422080427 0.7499758358204709	-0.156553
N	0.4385970650592468 0.7573808519743397 0.7499850113543952	-0.165248
N	0.0613433686259113 0.1203653161838584 0.7499684513532929	-0.158167
N	0.9385926870038432 0.2573596636566279 0.7499612563810567	-0.167341
N	0.4390905174639160 0.3800784109432711 0.2500291665483859	-0.160393
N	0.5620091651010910 0.2434710674346077 0.2500160452216258	-0.168191
N	0.9391114352886597 0.8800635460681988 0.2499986982277657	-0.156139
N	0.0620213579876695 0.7434625109130525 0.2499513615352540	-0.163544
Al	0.4985535260880678 0.6867003979686984 0.2500364055614011	1.688469
Al	-0.0013181930869023 0.1868822308818603 0.2500297328925249	1.684479
Al	0.4983614764377848 0.3113736524393699 0.7499613916600136	1.681896
Al	-0.0012933819873560 0.8108592728645405 0.7499986543134667	1.689275
	  	
