#======================================================================

# CRYSTAL DATA

#----------------------------------------------------------------------

data_VESTA_phase_1


_pd_phase_name                         ALFFIVE_13_Co_i
_cell_length_a                         15.00624
_cell_length_b                         15.00417
_cell_length_c                         7.91442
_cell_angle_alpha                      90.03075
_cell_angle_beta                       89.88910
_cell_angle_gamma                      89.91192
_symmetry_space_group_name_H-M         P 1
_symmetry_Int_Tables_number            1

loop_
_symmetry_equiv_pos_as_xyz
   x, y, z

loop_
   _atom_site_label
   _atom_site_fract_x
   _atom_site_fract_y
   _atom_site_fract_z
   _atom_site_charge
C	0.5405404784066687 0.6779979184183375 0.8702267034830730	0.101929
C	0.5436565985063903 0.7705606777813896 0.8679958618375052	-0.146570
C	0.4632574352426453 0.3249081396973797 0.8765085177129166	0.094652
C	0.4599868145922397 0.2323543634946143 0.8772864558351317	-0.140257
C	0.8242285756470736 0.9730000063252598 0.3637554130870791	0.097045
C	0.7317666985629391 0.9704383609951766 0.3609116648339354	-0.138558
C	0.3247495564454201 0.5416313774711737 0.8675623200124727	0.098092
C	0.2321723674543031 0.5454837774380247 0.8651433115983606	-0.149585
C	0.1782953864735804 0.9716697717563244 0.3573813156958306	0.079321
C	0.2708201792891439 0.9698914585652926 0.3546846554383901	-0.134166
C	0.6775903261249709 0.4629726691831498 0.8812745005685156	0.095800
C	0.7700234113865974 0.4597976845325349 0.8815058549988575	-0.139520
C	0.4551180930524196 0.6784052230253103 0.1165412198085199	0.097681
C	0.4514060336808740 0.7708553426996972 0.1173856036336917	-0.137533
C	0.5397971274444310 0.3268754478035713 0.1331126598208097	0.096972
C	0.5425911309624981 0.2342667018484902 0.1380837527560091	-0.148801
C	0.1764722705479768 0.0200564047322470 0.6371326303339329	0.100342
C	0.2688316251555645 0.0222416749088929 0.6430341921278964	-0.136384
C	0.6754485433622949 0.5435978405475320 0.1331400002415341	0.104767
C	0.7680299173991595 0.5470269659790264 0.1371126594083416	-0.148093
C	0.8241041300449751 0.0292756714177159 0.6383818812869344	0.096249
C	0.7316410837984794 0.0303839362747483 0.6442025300048889	-0.138614
C	0.3234457286490594 0.4585309217341534 0.1168519871829007	0.095806
C	0.2309144694198443 0.4557199629872349 0.1175780108718844	-0.139507
C	0.9660338713356896 0.8223313868590394 0.6359368234807620	0.097765
C	0.9644594622083785 0.7297339119352545 0.6411245498745490	-0.137213
C	0.9833459821405386 0.1751394902936053 0.6386236935712903	0.077915
C	0.9799699182221596 0.2674921269236304 0.6420380801476727	-0.136181
C	0.0215136926919184 0.8210959681329190 0.3607258224065794	0.093683
C	0.0238632676850291 0.7287239538101123 0.3573969911560040	-0.138122
C	0.0305372672866385 0.1746794727206833 0.3579916758831930	0.102106
C	0.0311495781467398 0.2672167938732614 0.3527310311252397	-0.137633
C	0.0038734451320228 0.3146089531853251 0.4964859386877455	0.040219
C	0.0010911034543701 0.4121178362181779 0.4968261458949914	0.256696
C	0.4977067143826356 0.8180980904564528 0.9927802598159483	0.052855
C	0.4988751416563456 0.9163027743420601 0.9976984198666394	0.249666
C	0.9950626925155138 0.6818874320112375 0.5003688304534537	0.036015
C	0.9970177525941104 0.5841883034947407 0.5002532882379266	0.247696
C	0.5010522388333192 0.1859509686155859 0.0092510688462081	0.053944
C	0.5004683877561154 0.0875972443940583 0.0099271546256012	0.251460
C	0.6844148185018573 -0.0002064259757979 0.5031915517020770	0.037484
C	0.5867646732591207 0.9977630393382053 0.5043622506163875	0.247714
C	0.1841686216483027 0.5010738132097458 0.9911397523507546	0.055453
C	0.0859060239341033 0.5021871895159846 0.9938900178480741	0.247041
C	0.3171400558077138 0.9959783302041524 0.4997740386293352	0.036835
C	0.4146850736861872 0.9960423943087002 0.5023721789658763	0.258954
C	0.8163801559427215 0.5035587492532496 0.0102890746495248	0.054502
C	0.9146512074258299 0.5034928972861703 0.0077043422936679	0.249275
H	0.5710817633292202 0.6378268433983429 0.7714307945652635	0.109914
H	0.5805201695820004 0.8044623641104760 0.7683677299536551	0.124290
H	0.4365354753846517 0.3637930173823191 0.7714006598752835	0.115410
H	0.4283328289995388 0.1967813855303574 0.7736269147393130	0.120378
H	0.8636706568487124 0.9520322273562307 0.2548210415095793	0.113872
H	0.6976280718686982 0.9465024062895705 0.2483802141722937	0.121369
H	0.3652614287644806 0.5719219956963680 0.7685186458002736	0.109178
H	0.1984904848722122 0.5818357907453775 0.7646422009789151	0.125728
H	0.1408904796704739 0.9564529700378431 0.2430880292943122	0.110560
H	0.3049425991302134 0.9502138122136914 0.2388343375740095	0.117602
H	0.6387152362054525 0.4356717986055256 0.7773854282275745	0.115773
H	0.8055198540725900 0.4265353901362116 0.7792987563983613	0.119709
H	0.4260684260343189 0.6389354496729386 0.2180833241441968	0.116174
H	0.4164136992197073 0.8056408734435468 0.2183166505624993	0.118902
H	0.5678698804832943 0.3677189452839991 0.2337999276565412	0.109259
H	0.5755829637824849 0.2008778241292998 0.2430122127003470	0.124807
H	0.1363318908906633 0.0361576623953337 0.7472944740460379	0.110356
H	0.3019540744137216 0.0426406920176524 0.7591099917029202	0.119255
H	0.6348410698100767 0.5719126524749839 0.2336860906465509	0.110092
H	0.8011712100974001 0.5818412944230271 0.2400873911488694	0.125133
H	0.8635502842154316 0.0492481194971096 0.7470223785592759	0.100537
H	0.6976910596457450 0.0532458274433545 0.7581315345304638	0.122234
H	0.3626011243255238 0.4292563687076433 0.2189025213650800	0.114884
H	0.1955982581462355 0.4217956215841071 0.2191083812410587	0.117861
H	0.9449446493377305 0.8620714716181048 0.7443858660876319	0.114214
H	0.9410321339890642 0.6961751376227472 0.7549176107190240	0.121259
H	0.9693168413779574 0.1370904600658467 0.7528281766574517	0.109556
H	0.9602054530715266 0.3010790648390547 0.7582480341045613	0.121364
H	0.0401063473412125 0.8602224177091647 0.2506998558840362	0.101084
H	0.0470096100506547 0.6943874638941275 0.2442336956996314	0.119544
H	0.0473843171415565 0.1349914274409257 0.2476033319146802	0.111637
H	0.0506624572136969 0.3010820479936657 0.2366165670365691	0.119031
N	0.9439127771622478 0.5404075025773177 0.6106057830418563	-0.139557
N	0.4201917549904214 0.0468057277164614 0.0088707795195026	-0.149388
N	0.5436350975565561 0.0508212778367875 0.6160002836856546	-0.142313
N	0.9557575617310626 0.4232923219963941 0.0026161109728950	-0.143905
N	0.0520979222166160 0.5437672965705900 0.3883081877682961	-0.140665
N	0.5798999461871842 0.0451029130960960 0.0116947400109512	-0.153616
N	0.9567392033701859 0.5830292135149708 0.0053305032108859	-0.147988
N	0.5457564450330449 0.9421136314257170 0.3947785735818531	-0.137067
N	0.0545646765931198 0.4559526591860311 0.3874330895053187	-0.134549
N	0.5790983148363503 0.9570899515897372 0.0008509657940547	-0.146159
N	0.4579056256684213 0.9412404948211347 0.3940373773396307	-0.132791
N	0.0447332763669436 0.5823477705222214 0.9940776789974910	-0.148679
N	0.9455743947088283 0.4525183281140582 0.6078449693115010	-0.132707
N	0.4194801532293503 0.9587111658661148 0.0063829863907874	-0.141505
N	0.0438288967992625 0.4226254729260603 0.9989463091843163	-0.147309
N	0.4557640996157748 0.0499935465696975 0.6146152446709102	-0.138570
N	0.0061734706516061 0.1294101646081177 0.4981005034047951	-0.170869
N	0.4982798105557222 0.6327440783722954 0.9939995061268884	-0.184082
N	0.9949164658017724 0.8672866175382582 0.4982643791445169	-0.168725
N	0.5015029134005861 0.3712715484961365 0.0036914985675246	-0.181034
N	0.8696964183867086 0.0016831255804315 0.5006537164186035	-0.169322
N	0.3695043563977368 0.5000397196986552 0.9928182082267513	-0.179870
N	0.1318743528088241 0.9953846128089447 0.4967036219668623	-0.169939
N	0.6310664145438897 0.5032284783538680 0.0062557283989356	-0.186211
Co	0.0006486998433390 0.9983627528735149 0.4980568995650699	0.576974
Co	0.5001236225443142 0.5019135890820399 0.9992114221277031	0.597264
Al	0.9982213734661806 0.9957004437672148 0.9983163075795666	1.660749
Al	0.4982223495573092 0.5019571102111696 0.4994116174844361	1.678505
F	0.9998367990764576 -0.0010167399646420 0.2272602200778853	-0.589939
F	0.5064791636293826 0.4988188001423345 0.7288221668178999	-0.596585
F	0.0001273156917747 0.9956584366344953 0.7692794709800947	-0.589306
F	0.4927534794791455 0.5066070432975749 0.2698645779758478	-0.598035
F	0.9159777637209362 0.9142665958356663 0.0008846491957211	-0.628588
F	0.4181961837859697 0.4175065966427453 0.5030623992280422	-0.648607
F	0.9665546699974634 0.1075661091746902 0.9954739736003509	-0.620913
F	0.4634178850240773 0.6130136902140876 0.5107537343691466	-0.652161
F	0.1097968209470242 0.9632609801405607 -0.0006904540556451	-0.621388
F	0.6110755284112273 0.4732690913797066 0.4849728866079260	-0.651313
	  	
