#======================================================================

# CRYSTAL DATA

#----------------------------------------------------------------------

data_VESTA_phase_1


_pd_phase_name                         ALFFIVE_2_Cu_i
_cell_length_a                         13.72467
_cell_length_b                         13.72465
_cell_length_c                         8.16688
_cell_angle_alpha                      89.99993
_cell_angle_beta                       90.00017
_cell_angle_gamma                      89.91189
_symmetry_space_group_name_H-M         P 1
_symmetry_Int_Tables_number            1

loop_
_symmetry_equiv_pos_as_xyz
   x, y, z

loop_
   _atom_site_label
   _atom_site_fract_x
   _atom_site_fract_y
   _atom_site_fract_z
   _atom_site_charge
C	0.0002242027065549 0.3001368972995629 0.3520948104136249	-0.154202
C	0.0001635455376972 0.1990761115886363 0.3572875323330290	0.092192
C	0.5002237126783401 0.8001439729875800 0.8520584605381217	-0.154125
C	0.5001522157664542 0.6990953208449336 0.8572529478303762	0.092441
C	0.0001000454683376 0.7002176541789872 0.3519995944845751	-0.158500
C	-0.0001191079772193 0.8013011040330548 0.3574189458213559	0.100098
C	0.5000861793461663 0.2002288849782931 0.8519600392745830	-0.158325
C	0.4998626269905514 0.3013004109447379 0.8573864112480445	0.099976
C	0.7002174041392798 0.0001000273061704 0.3519994254883761	-0.158528
C	0.8013008752245163 -0.0001191336353719 0.3574189187649036	0.100105
C	0.2002282468936237 0.5000862126907663 0.8519604444304809	-0.158353
C	0.3012995443124056 0.4998625256376567 0.8573865361711408	0.099990
C	0.3001365461143127 0.0002242808116520 0.3520951145388512	-0.154150
C	0.1990758272091167 0.0001635975157025 0.3572875920972429	0.092175
C	0.8001429003147306 0.5002235942400837 0.8520589545666790	-0.154104
C	0.6990943422258334 0.5001521076106492 0.8572538975735765	0.092448
C	0.0002241827022656 0.3001365752865321 0.6479042017589665	-0.154158
C	0.0001635358522989 0.1990758403834105 0.6427113500580162	0.092176
C	0.5002234988306018 0.8001438881198445 0.1479408671743739	-0.154143
C	0.5001521530479497 0.6990950493986510 0.1427467468950804	0.092481
C	0.0001000714328567 0.7002176035951466 0.6479990224188216	-0.158507
C	-0.0001190604760996 0.8013010340425201 0.6425797267245118	0.100086
C	0.5000859003984136 0.2002285453419051 0.1480384856673631	-0.158385
C	0.4998623490021854 0.3013001705256129 0.1426130420061905	0.100035
C	0.3001366675006968 0.0002242619645818 0.6479045536602489	-0.154168
C	0.1990760168328581 0.0001635588379556 0.6427114528806147	0.092143
C	0.8001438344278112 0.5002234898191820 0.1479414443027657	-0.154141
C	0.6990949922065568 0.5001520344240281 0.1427472202431516	0.092479
C	0.7002178601760796 0.0001001049395602 0.6479989793523855	-0.158482
C	0.8013011906456254 -0.0001190642969039 0.6425796978360181	0.100059
C	0.2002287047344335 0.5000861954448946 0.1480393668657145	-0.158332
C	0.3013001438748284 0.4998624857807611 0.1426141268347933	0.099971
C	0.0001657463583140 0.4557434633642700 0.5000001269498502	-0.087065
C	0.0003043022969008 0.3528066575597078 0.4999997359750659	0.155996
C	0.5001794208672118 0.9557431266345345 -0.0000008945462542	-0.086980
C	0.5003115491420157 0.8527864526620135 -0.0000005034596768	0.155906
C	0.0002421688657200 0.5445867430414759 0.4999998611203774	-0.100171
C	0.0003279552314437 0.6475543054064415 0.4999994541913592	0.161584
C	0.5002451618989030 0.0446018899084291 -0.0000004853225890	-0.100719
C	0.5003192249298375 0.1476002089110112 -0.0000006538114961	0.162128
C	0.5445865649197607 0.0002423128854570 0.4999997116766082	-0.100388
C	0.6475543027866847 0.0003279714359442 0.4999990855582637	0.161601
C	0.0446017665550261 0.5002454320481642 -0.0000000945583577	-0.100914
C	0.1476000862002672 0.5003196391465383 -0.0000001329026568	0.162143
C	0.4557436085447877 0.0001659221983042 0.5000004883218716	-0.086828
C	0.3528065801818906 0.0003044121895265 0.5000002124437867	0.155941
C	0.9557428179163941 0.5001792627942959 -0.0000005319027269	-0.086792
C	0.8527857701382364 0.5003115875939023 -0.0000000082823090	0.155925
H	-0.0002464718259840 0.3372945121262480 0.2342162467765220	0.119803
H	-0.0012523048209746 0.1563902692511661 0.2447262888218346	0.111022
H	0.4997559405928194 0.8373336670363432 0.7342154834385506	0.119913
H	0.4987592218995451 0.6563317582029955 0.7447703916648301	0.111060
H	-0.0003343154573594 0.6626700754267086 0.2344859389479030	0.120411
H	-0.0016514686008416 0.8450335753178371 0.2461522720030759	0.106530
H	0.4996579421107927 0.1626560367811297 0.7344870091335782	0.120402
H	0.4983360308302608 0.3450786153631431 0.7461939386088929	0.106620
H	0.6626695533014575 -0.0003343560730399 0.2344854778848011	0.120440
H	0.8450331944621440 -0.0016515027745351 0.2461525184024288	0.106534
H	0.1626553276018455 0.4996575238145653 0.7344872893992376	0.120415
H	0.3450773214196977 0.4983341214466633 0.7461938820641048	0.106609
H	0.3372941415384714 -0.0002464751399936 0.2342166906033050	0.119786
H	0.1563899198573469 -0.0012523268322111 0.2447260870174545	0.111018
H	0.8373329001731518 0.4997554535164401 0.7342164924522973	0.119876
H	0.6563299669580605 0.4987571676329299 0.7447724624373737	0.111040
H	-0.0002465029767144 0.3372943338428456 0.7657824633726690	0.119789
H	-0.0012523900976194 0.1563901854578311 0.7552726874010804	0.111034
H	0.4997557893489283 0.8373337442873965 0.2657832951110945	0.119904
H	0.4987593421398130 0.6563310407816609 0.2552288949421803	0.111047
H	-0.0003342767774786 0.6626699326826355 0.7655128697793185	0.120419
H	-0.0016514195373298 0.8450333720234917 0.7538462658180588	0.106524
H	0.4996578128738773 0.1626555131257195 0.2655116468957762	0.120400
H	0.4983360663271051 0.3450788415153718 0.2538045891720853	0.106611
H	0.3372947781447138 -0.0002465086274568 0.7657829045632208	0.119796
H	0.1563904283889831 -0.0012523382350811 0.7552726772339506	0.111043
H	0.8373344573362825 0.4997551880194175 0.2657834624305601	0.119882
H	0.6563306783244410 0.4987570536971100 0.2552280298055409	0.111029
H	0.6626702425763014 -0.0003342879696339 0.7655126577024973	0.120424
H	0.8450336553628199 -0.0016514894327200 0.7538465400312154	0.106550
H	0.1626559245401862 0.4996575618645939 0.2655123007650034	0.120395
H	0.3450786042248172 0.4983340742856002 0.2538062623747414	0.106629
Cu	0.0004558342701581 0.0004559163008133 0.4999995240729609	0.716728
Cu	0.5004566106442864 0.5004584839521440 0.0000028187122760	0.716320
Al	-0.0002270814872971 -0.0002267536997906 -0.0000014408107629	1.666214
Al	0.4997826489097026 0.4997816207947911 0.5000061294390421	1.669098
N	0.0002543998390922 0.1495205314393058 0.4999994016081767	-0.217066
N	0.5002425494840212 0.6495825226721037 -0.0000001507517787	-0.217652
N	0.0000841355945645 0.8509367628700775 0.4999991915566795	-0.215875
N	0.5000700493126640 0.3508861762898764 -0.0000004475062825	-0.215905
N	0.8509368073206582 0.0000841134042111 0.4999994896530126	-0.215891
N	0.3508851407120230 0.5000707111898571 0.0000002845892432	-0.215885
N	0.1495204301719544 0.0002543929619842 0.4999993207779028	-0.217035
N	0.6495817716855531 0.5002433520367757 0.0000007125452395	-0.217618
F	0.0003436038207628 0.0003436048176737 0.7764244195196659	-0.620376
F	0.5003040778473199 0.5002986405661428 0.2767594564749800	-0.620518
F	0.0003430134810149 0.0003436506881889 0.2235737129907089	-0.620357
F	0.5003036517186029 0.5003083241298566 0.7232544265897413	-0.620517
F	0.6224981347069206 0.4662074478902455 0.5000061203335123	-0.624619
F	0.4662785322081668 0.6225228026389433 0.5000011627641362	-0.624631
F	0.4100290671409207 0.4100712336362737 0.5000066704603541	-0.640245
F	0.9101117741177649 0.9101119863782269 -0.0000023677683145	-0.639168
F	0.9661448158741319 0.1223799691345644 0.0000003162679087	-0.623786
F	0.1223817644140102 0.9661454100717827 0.0000000247213448	-0.623787
	  	
