#======================================================================

# CRYSTAL DATA

#----------------------------------------------------------------------

data_VESTA_phase_1


_pd_phase_name                         BFFIVE_2_Co
_cell_length_a                         13.54277
_cell_length_b                         13.54251
_cell_length_c                         8.83365
_cell_angle_alpha                      89.70703
_cell_angle_beta                       90.38772
_cell_angle_gamma                      90.04973
_symmetry_space_group_name_H-M         P 1
_symmetry_Int_Tables_number            1

loop_
_symmetry_equiv_pos_as_xyz
   x, y, z

loop_
   _atom_site_label
   _atom_site_fract_x
   _atom_site_fract_y
   _atom_site_fract_z
   _atom_site_charge
C	0.5241553514093104 0.6966523350492239 0.1312412161142864	0.076621
C	0.5244848900808088 0.7989587726819907 0.1318687667826585	-0.166640
C	0.4735422491386480 0.3029401313238873 0.1303982635565150	0.078433
C	0.4736211662718161 0.2006313832395948 0.1305910060303368	-0.166776
C	0.3039073878237199 0.5260406964836661 0.1302386151227592	0.079532
C	0.2016079353330877 0.5260802415905311 0.1308417220225231	-0.166653
C	0.6975588417842234 0.4756288192409535 0.1312245907113359	0.076872
C	0.7998851012972447 0.4753323525953256 0.1313821120064494	-0.166783
C	0.4777370660978105 0.6928751348640514 0.8765244170479944	0.080473
C	0.4763409797512491 0.7951909001015710 0.8686937613669057	-0.165864
C	0.5232890356493374 0.3087971497709642 0.8781213356691591	0.082908
C	0.5247435024217347 0.2065837088968373 0.8697540685411157	-0.165984
C	0.6916785888878595 0.5221093969397067 0.8765519719216917	0.083119
C	0.7939338210400123 0.5234549852986190 0.8683524035156768	-0.165218
C	0.3076011529498225 0.4764375712609676 0.8778391183557097	0.083801
C	0.2053148335185044 0.4749926062130612 0.8698418485521855	-0.165516
C	0.4998386815630106 0.1496685203481909 -0.0019630663678475	0.163354
C	0.5002739290785281 0.0454159831714779 -0.0047815208662454	-0.095939
C	0.5000937859977602 0.8510408786388219 -0.0017444524926297	0.163885
C	0.4999426442033268 0.9553118935218936 -0.0045968123208550	-0.096531
C	0.8508672957471412 0.4998707629330122 0.9977437388605175	0.165290
C	0.9551142089845968 0.5001595403026541 0.9949786395162721	-0.097160
C	0.1494943281488925 0.5000445246411085 -0.0017481671457169	0.164182
C	0.0452500973269030 0.4998140076215136 -0.0047231236119234	-0.096723
H	0.5413894342187338 0.6542186374610756 0.2329478956500602	0.105638
H	0.5438567001311257 0.8381464603679850 0.2351353718796439	0.127849
H	0.4535475384493424 0.3445320798981658 0.2308618895918336	0.105674
H	0.4529021380647599 0.1604198028344697 0.2325723420374327	0.127371
H	0.3466349113353819 0.5455888354293451 0.2305451739591962	0.105345
H	0.1623411909144268 0.5466266845114919 0.2330297001644101	0.127647
H	0.6561201668598653 0.4577644209893765 0.2330512823953973	0.104667
H	0.8399555177768799 0.4557222557702368 0.2344182541485165	0.127148
H	0.4625028826418902 0.6450656529849215 0.7796045337253579	0.123154
H	0.4563622979273735 0.8318983971361329 0.7629490233770622	0.127788
H	0.5392818600155542 0.3575063482603668 0.7821391980114367	0.122115
H	0.5455249540247514 0.1708205089221817 0.7646043847819273	0.127487
H	0.6430183086892904 0.5370256366523599 0.7797078683615785	0.121492
H	0.8296757028877826 0.5431684561398805 0.7624039196463390	0.126797
H	0.3554841122294843 0.4602250562259569 0.7818162343957938	0.122495
H	0.1685776371066594 0.4539714697080316 0.7648357926371433	0.127141
Co	0.5000684029955060 0.5002631171688303 0.0041177153821672	0.555346
B	0.5008354337819557 0.4982601667118045 0.4374495090128550	1.052956
F	0.4985777496845669 0.5011055749876534 0.7741316140448933	-0.572038
F	0.5023921397564212 0.4979739543310016 0.2696091569487361	-0.462864
F	0.4741249762609557 0.5946466302637605 0.4780296511033285	-0.462507
F	0.4300778242216874 0.4275924947864097 0.4791109493483041	-0.463184
F	0.5967485394571349 0.4728345228219235 0.4843398178088795	-0.459806
N	0.4985939287409101 0.3564111784622471 0.0068573551284900	-0.175135
N	0.5010598993286043 0.6441833286821491 0.0062052833792133	-0.173442
N	0.6440813264078473 0.4990241256684352 0.0063863468846808	-0.175546
N	0.3563176175857443 0.5013019370941358 0.0065093733064529	-0.176270
	  	
