#======================================================================

# CRYSTAL DATA

#----------------------------------------------------------------------

data_VESTA_phase_1


_pd_phase_name                         BFFIVE_2_Co_i
_cell_length_a                         13.54599
_cell_length_b                         13.54599
_cell_length_c                         8.72353
_cell_angle_alpha                      90.01926
_cell_angle_beta                       90.00977
_cell_angle_gamma                      89.87695
_symmetry_space_group_name_H-M         P 1
_symmetry_Int_Tables_number            1

loop_
_symmetry_equiv_pos_as_xyz
   x, y, z

loop_
   _atom_site_label
   _atom_site_fract_x
   _atom_site_fract_y
   _atom_site_fract_z
   _atom_site_charge
C	-0.0000143835254566 0.2949562366568981 0.3613539977576473	-0.162078
C	-0.0001622492998536 0.1927508524468345 0.3698519564293629	0.082905
C	0.4999432655113007 0.7950144569884823 0.8615233562750874	-0.162877
C	0.4998366736697014 0.6928070019809535 0.8696668521819741	0.081881
C	-0.0000753010695679 0.7053867281172517 0.3613647054056089	-0.162882
C	-0.0000691932039631 0.8075842785839245 0.3699871571941923	0.083837
C	0.4998813466524217 0.2053525234473299 0.8614895254867411	-0.164167
C	0.4999001925792497 0.3075574014613893 0.8697827332477180	0.084839
C	0.7054046825693913 -0.0000710349020502 0.3613618733421147	-0.162776
C	0.8076008155329006 -0.0000682859107518 0.3699795871907272	0.083641
C	0.2053643736938089 0.4998842716804966 0.8614808459025585	-0.163676
C	0.3075669483708388 0.4998993834554069 0.8697684288197696	0.084590
C	0.2949713016147641 -0.0000080336729709 0.3613416341676290	-0.162037
C	0.1927651462549671 -0.0001611457252322 0.3698467309359704	0.082754
C	0.7950245023317549 0.4999462426787336 0.8615228603873373	-0.162690
C	0.6928147815455601 0.4998355710104940 0.8696748015164140	0.081807
C	-0.0001588760134793 0.2997829117702724 0.6379366042652392	-0.162275
C	-0.0004616515284979 0.1975631055069333 0.6372508054800229	0.077800
C	0.4998652388039646 0.7996280002549501 0.1380185087912365	-0.163885
C	0.4995778495831118 0.6974031974331553 0.1371540857074182	0.077700
C	-0.0002566190957604 0.7005058195880749 0.6379871075118437	-0.164791
C	-0.0004590259569095 0.8027220661282111 0.6373233922066893	0.080320
C	0.4997461548771918 0.2006762278400452 0.1379937871763979	-0.164714
C	0.4995510134580381 0.3028994696972526 0.1371565360056325	0.081131
C	0.2997729769820466 -0.0001529767731919 0.6379237702360799	-0.162118
C	0.1975529513590066 -0.0004605481444511 0.6372438915157911	0.077646
C	0.7996135896173457 0.4998671292575999 0.1380176354021271	-0.163828
C	0.6973869813032227 0.4995759765099163 0.1371533174506890	0.077710
C	0.7004934544568006 -0.0002557898353040 0.6379826161634933	-0.164822
C	0.8027094526953511 -0.0004617929005960 0.6373140933102365	0.080248
C	0.2006581755436947 0.4997459135933536 0.1379792755578991	-0.164306
C	0.3028805654102246 0.4995492064836718 0.1371457937968106	0.080877
C	0.0003961129721849 0.4551006673103860 0.4944453430858223	-0.097192
C	0.0001978966909597 0.3511003492574021 0.4974558437420277	0.160131
C	0.5003780966086026 0.9550946065202557 -0.0051227405722860	-0.097939
C	0.5001957347368861 0.8510898360484057 -0.0023226426871251	0.161461
C	0.0003306583148514 0.5452409653681459 0.4943923001246672	-0.100100
C	0.0001084470432361 0.6492152376768585 0.4973964995986690	0.160791
C	0.5003082519124853 0.0452203429718768 -0.0052017411315410	-0.100092
C	0.5000758910413389 0.1492165832313155 -0.0024408538660561	0.160784
C	0.5452430217021683 0.0003400998354906 0.4943871787155192	-0.100025
C	0.6492177925216385 0.0001138067341475 0.4973942263967801	0.160657
C	0.0452237394879615 0.5003114798182933 -0.0052091976060763	-0.100286
C	0.1492133909343895 0.5000764776952964 -0.0024528459883694	0.160651
C	0.4551045160343776 0.0004078126562636 0.4944255473508948	-0.097133
C	0.3511036382085668 0.0002086445062591 0.4974409270678670	0.159949
C	0.9550918173324549 0.5003823727560252 -0.0051282748050625	-0.097827
C	0.8510898571833870 0.5002004427495129 -0.0023239367944177	0.161541
H	-0.0000991567997631 0.3311113491080561 0.2497661348787369	0.121558
H	-0.0004516845746623 0.1446421939500843 0.2691041340339037	0.121999
H	0.4998402469923453 0.8313784868267869 0.7502021753056105	0.120887
H	0.4995100641094688 0.6446960519705279 0.7688392897813532	0.122829
H	-0.0002537380726764 0.6692282580545933 0.2497579697150917	0.121458
H	-0.0003298570725623 0.8560300744118017 0.2696142408225111	0.122972
H	0.4996904436015842 0.1690436699794323 0.7500935950036757	0.121145
H	0.4996291859446901 0.3559781026569302 0.7693258010967358	0.122840
H	0.6692567326585868 -0.0002487343834947 0.2497548744615424	0.121418
H	0.8560560228286346 -0.0003312992859154 0.2696050289805455	0.123084
H	0.1690722441663456 0.4996912933571989 0.7500867656721362	0.120934
H	0.3560060253862821 0.4996313530993220 0.7693145315675776	0.122932
H	0.3311365268130246 -0.0000926037616995 0.2497534491072075	0.121516
H	0.1446632609994072 -0.0004550117603924 0.2691035109336184	0.122122
H	0.8314027517976019 0.4998417252219883 0.7501963447451733	0.120784
H	0.6447164551621722 0.4995106911780549 0.7688488558339862	0.122789
H	-0.0002686961580194 0.3392956992990877 0.7467316429888239	0.120443
H	-0.0013856633873821 0.1560766286972175 0.7439533470704884	0.102692
H	0.4997998527442771 0.8391729659339828 0.2467455954992387	0.120491
H	0.4986245444927799 0.6557336532766178 0.2437381753706810	0.103078
H	-0.0004678547436825 0.6608507650260056 0.7465945595128127	0.120621
H	-0.0014673030577875 0.8446379547675233 0.7436312623211779	0.103754
H	0.4995777605968321 0.1610234714430882 0.2465861210123318	0.120232
H	0.4985631956964058 0.3449787451842312 0.2433478523719071	0.103693
H	0.3392737815047110 -0.0002623427462369 0.7467189488710688	0.120427
H	0.1560575215322813 -0.0013895846707096 0.7439472495859932	0.102708
H	0.8391462312706387 0.4998006964284470 0.2467498248707977	0.120418
H	0.6557120185734092 0.4986243313157995 0.2437382961896256	0.103110
H	0.6608268056704415 -0.0004675490622139 0.7465910930569853	0.120723
H	0.8446170863615404 -0.0014732262563682 0.7436189033822144	0.103691
H	0.1609945542609595 0.4995736451928923 0.2465661821282715	0.120084
H	0.3449566759177730 0.4985646527395678 0.2433330015801348	0.103645
Co	0.0001050025603898 0.0001036106131507 0.5040530935650056	0.557839
Co	0.5001317439029527 0.5001332041984050 0.0033982146620655	0.557111
B	0.0003570386760424 0.0003555489253576 -0.0576712510967105	1.048627
B	0.5003191182770547 0.5003353734795071 0.4427095373618787	1.048443
N	-0.0002233933990280 0.1444552431189921 0.5059203929361108	-0.172415
N	0.4997744268588050 0.6444011850788759 0.0056632837917954	-0.171993
N	-0.0000748698778863 0.8558276114202875 0.5061130111846464	-0.172197
N	0.4999405004456856 0.3559154428444447 0.0058067247121985	-0.173634
N	0.8558293244835966 -0.0000763517619208 0.5061043736681642	-0.171966
N	0.3559079103883661 0.4999428205713813 0.0057951078397884	-0.173617
N	0.1444573239702382 -0.0002228646798644 0.5059170503534266	-0.172310
N	0.6443931445045019 0.4997779944202711 0.0056678872439051	-0.171972
F	0.0009675128312844 0.0009794346773027 0.7722107017663182	-0.451267
F	0.5008488596858830 0.5008167614952536 0.2721864793047373	-0.452223
F	0.0000815822117291 0.0000450971982478 0.2703762173714941	-0.566808
F	0.5001878268548233 0.5001824656405820 0.7700970639243943	-0.566125
F	0.5966198132940044 0.4739938189937921 0.4858919698702859	-0.451479
F	0.4739556283213129 0.5965792810224605 0.4858854414736511	-0.451128
F	0.4295912414190008 0.4295594060857006 0.4840915541113143	-0.456144
F	0.9295915480859982 0.9296138463257682 -0.0164359614185098	-0.456116
F	0.9740092098038116 0.0966330913663390 -0.0142077507825395	-0.451427
F	0.0966194710371331 0.9739777449304554 -0.0142457240451277	-0.451411
	  	
