#======================================================================

# CRYSTAL DATA

#----------------------------------------------------------------------

data_VESTA_phase_1


_pd_phase_name                         BFFIVE_2_Fe_i
_cell_length_a                         14.03444
_cell_length_b                         14.03444
_cell_length_c                         8.15309
_cell_angle_alpha                      89.99978
_cell_angle_beta                       90.00048
_cell_angle_gamma                      89.86911
_symmetry_space_group_name_H-M         P 1
_symmetry_Int_Tables_number            1

loop_
_symmetry_equiv_pos_as_xyz
   x, y, z

loop_
   _atom_site_label
   _atom_site_fract_x
   _atom_site_fract_y
   _atom_site_fract_z
   _atom_site_charge
C	0.0001238038307627 0.3045402608068765 0.3517500279494409	-0.168980
C	0.0001204527766871 0.2057524457381250 0.3576985039746014	0.090537
C	0.5001067728547407 0.8045151816815532 0.8517250327359075	-0.168536
C	0.5000856241264408 0.7057415182847215 0.8576685249612576	0.090788
C	-0.0000119649088234 0.6960044425331761 0.3516947152344047	-0.171937
C	-0.0000727372192166 0.7947844203776983 0.3577279957370813	0.097045
C	0.4999443488786587 0.1960779708651330 0.8516753723248220	-0.171806
C	0.4998703873588534 0.2948425256079545 0.8576971928936470	0.096885
C	0.6960032036215619 -0.0000117148253322 0.3516943910552628	-0.171928
C	0.7947832044562515 -0.0000723634578480 0.3577282124662716	0.096966
C	0.1960777475518840 0.4999449601356339 0.8516764564426754	-0.171736
C	0.2948428046063083 0.4998710230655506 0.8576992834263161	0.096839
C	0.3045392670213625 0.0001246359682480 0.3517511724280555	-0.169003
C	0.2057512570860868 0.0001212313253080 0.3576987472387030	0.090532
C	0.8045148270831413 0.5001079424349296 0.8517256517935879	-0.168526
C	0.7057411890790832 0.5000870103388051 0.8576684104381296	0.090795
C	0.0001237666337671 0.3045398144652524 0.6482460980168880	-0.168902
C	0.0001204476216934 0.2057519892627498 0.6422975408976288	0.090435
C	0.5001063501768591 0.8045118008118584 0.1482699427375381	-0.168549
C	0.5000851981058719 0.7057371932733322 0.1423254382656889	0.090800
C	-0.0000119924465154 0.6960041571815588 0.6483023240955439	-0.171947
C	-0.0000727558496146 0.7947842287931888 0.6422690367965956	0.097138
C	0.4999437754503637 0.1960801556848318 0.1483212872068833	-0.171646
C	0.4998699054519732 0.2948461322769016 0.1422984372026578	0.096847
C	0.3045397983798809 0.0001250590511719 0.6482472469789281	-0.169002
C	0.2057520340201340 0.0001213899871171 0.6422977785417516	0.090549
C	0.8045129977768413 0.5001071125362822 0.1482708053561942	-0.168549
C	0.7057381943051548 0.5000864028838338 0.1423256407279967	0.090872
C	0.6960043509562800 -0.0000110181137701 0.6483024425815117	-0.171900
C	0.7947843702104795 -0.0000720015990176 0.6422695998174666	0.097034
C	0.1960816620739692 0.4999448444270407 0.1483225369206274	-0.171617
C	0.2948477217313513 0.4998708588016654 0.1423007218631618	0.096801
C	0.0001918642447706 0.4567837999012599 0.4999982345249738	-0.099624
C	0.0001589733145426 0.3563786344148973 0.4999979747341018	0.153484
C	0.5002564425082927 0.9567887818771800 -0.0000006358970850	-0.099702
C	0.5001607510244197 0.8563350911754417 -0.0000015706863788	0.153208
C	0.0001763028829389 0.5437808482828874 0.4999985252532020	-0.105061
C	0.0001052911289485 0.6441899387548170 0.4999986720694504	0.157545
C	0.5002346471765627 0.0438169578141288 -0.0000007260528580	-0.104915
C	0.5000923283233963 0.1442714102704586 -0.0000011812044162	0.157398
C	0.5437803366714368 0.0001777539856431 0.4999981124531852	-0.105363
C	0.6441898971376376 0.0001058519542511 0.4999984973882204	0.157608
C	0.0438174872781817 0.5002352366150570 0.0000002902599449	-0.105173
C	0.1442720467796863 0.5000931623462197 0.0000003301738310	0.157369
C	0.4567831831194856 0.0001933408780524 0.4999998204563692	-0.099391
C	0.3563779959792686 0.0001601968510306 0.4999998668012099	0.153539
C	0.9567890459235052 0.5002567703542001 0.0000005038196807	-0.099433
C	0.8563353588024716 0.5001615438182920 -0.0000007177871766	0.153158
H	0.0000143803078511 0.3413515087141025 0.2340606317233931	0.115939
H	-0.0002185826083995 0.1628375750280166 0.2462386914899226	0.099196
H	0.5000239755927686 0.8415209945538557 0.7342171461401708	0.115915
H	0.4997615738010766 0.6629560506140316 0.7461571863378430	0.099298
H	-0.0001312719750065 0.6591495841371121 0.2340361494496479	0.116781
H	-0.0005629241094616 0.8379221527485026 0.2464314381366713	0.096744
H	0.4998475476324043 0.1590494359625577 0.7341746189844296	0.117011
H	0.4993926203684125 0.3378570547448758 0.7463653935667377	0.097190
H	0.6591477711373538 -0.0001303271195338 0.2340357267157893	0.116795
H	0.8379204290077189 -0.0005621008439300 0.2464320435788451	0.096777
H	0.1590484221517355 0.4998481055414879 0.7341756276022106	0.116992
H	0.3378566025404897 0.4993930344124214 0.7463676867077214	0.097152
H	0.3413503522222183 0.0000147045692025 0.2340629390878058	0.115925
H	0.1628362198132882 -0.0002181361393183 0.2462381645264284	0.099227
H	0.8415199111797800 0.5000246996077931 0.7342176144805060	0.115922
H	0.6629550871312724 0.4997624074531257 0.7461569414162930	0.099318
H	0.0000142804171019 0.3413508279850456 0.7659353811442171	0.115904
H	-0.0002185757078156 0.1628368442335873 0.7537576665667540	0.099246
H	0.5000234060833177 0.8415178635029296 0.2657779872075176	0.115965
H	0.4997618309977463 0.6629465591829201 0.2538329723546915	0.099359
H	-0.0001313520366933 0.6591491737836774 0.7659612811565458	0.116752
H	-0.0005629671838658 0.8379218830291033 0.7535653967528682	0.096706
H	0.4998472261384740 0.1590504214056340 0.2658225606291610	0.116970
H	0.4993928468060091 0.3378648606909308 0.2536266838039803	0.097227
H	0.3413516804228739 0.0000158985680215 0.7659369786353272	0.115924
H	0.1628371047617483 -0.0002177294746877 0.7537577833012730	0.099204
H	0.8415191740905231 0.5000242344104265 0.2657792982356670	0.115936
H	0.6629475534357590 0.4997621552558545 0.2538323898540644	0.099367
H	0.6591495518599786 -0.0001300458823173 0.7659609091179922	0.116751
H	0.8379225061959021 -0.0005622603034887 0.7535659263131796	0.096747
H	0.1590518937017769 0.4998476900130668 0.2658234765658204	0.116952
H	0.3378666597621020 0.4993932254522790 0.2536300059409343	0.097223
Fe	0.0003165632401246 0.0003177692652772 0.4999969603110019	0.831453
Fe	0.5003344292158538 0.5003323603432744 0.0000031746801475	0.830931
B	-0.0013249433397506 -0.0013191221540885 0.0000047022416503	1.098781
B	0.4987208855506850 0.4987092180195177 0.5003007094877634	1.098738
N	0.0001572564948272 0.1564526439271475 0.4999981495022914	-0.237670
N	0.5001209273516342 0.6564801610872911 -0.0000068747221120	-0.237591
N	0.0000480486445729 0.8440849907733892 0.4999982300974422	-0.240377
N	0.4999988461390449 0.3441057555245598 -0.0000059384526036	-0.240113
N	0.8440842507739045 0.0000488357785819 0.4999987827441421	-0.240307
N	0.3441066358448136 0.4999994594679034 -0.0000035758622908	-0.239968
N	0.1564519995297439 0.0001579550514305 0.4999979366767440	-0.237722
N	0.6564806805301492 0.5001219030314321 -0.0000073162824997	-0.237654
F	-0.0001023660156950 -0.0001015454206168 0.7391466131065675	-0.548711
F	0.4999127291674105 0.4998990486626516 0.2389809515097445	-0.549122
F	-0.0001027944775325 -0.0000994781021558 0.2608407205726025	-0.548644
F	0.4999011335234993 0.4998957829652413 0.7608070655277692	-0.548688
F	0.5918627728542604 0.4731950432570447 0.5000382848417150	-0.396377
F	0.4732105017808340 0.5918544723105575 0.5000225403257963	-0.396359
F	0.4305348717060389 0.4305274160194667 0.5000295607583657	-0.400565
F	0.9304766563745647 0.9304841407315697 -0.0000036118782739	-0.400682
F	0.9731642266483631 0.0918439936876686 -0.0000049061995669	-0.396312
F	0.0918437864264105 0.9731718830372312 0.0000006530757345	-0.396398
	  	
