#======================================================================

# CRYSTAL DATA

#----------------------------------------------------------------------

data_VESTA_phase_1


_pd_phase_name                         BFFIVE_13_Ni_i
_cell_length_a                         15.24761
_cell_length_b                         15.24826
_cell_length_c                         8.25719
_cell_angle_alpha                      92.57291
_cell_angle_beta                       87.90074
_cell_angle_gamma                      90.17110
_symmetry_space_group_name_H-M         P 1
_symmetry_Int_Tables_number            1

loop_
_symmetry_equiv_pos_as_xyz
   x, y, z

loop_
   _atom_site_label
   _atom_site_fract_x
   _atom_site_fract_y
   _atom_site_fract_z
   _atom_site_charge
C	0.5384180283157982 0.6772898148291013 0.8792159849399821	0.107588
C	0.5432523341473211 0.7683103713845348 0.8726929444011128	-0.153995
C	0.4678458067578141 0.3191185886631555 0.8925938714438850	0.105197
C	0.4636523144820962 0.2278850109857755 0.8864646555921827	-0.147226
C	0.8248014823457859 0.9774122143903591 0.3705314037925775	0.104855
C	0.7338396498642312 0.9754578086317275 0.3609812251533908	-0.140865
C	0.3257287550750785 0.5364913557742478 0.8785839384387678	0.108881
C	0.2347726575776868 0.5426397010536016 0.8725848220619876	-0.154557
C	0.1828340436988591 0.9790215928115918 0.3677462247478763	0.096462
C	0.2741334607276814 0.9781862693094699 0.3575376075481307	-0.142993
C	0.6827938624021103 0.4654330278517876 0.8919448019603630	0.104505
C	0.7739943229180809 0.4618824601221999 0.8845706914079124	-0.146867
C	0.4567644158912729 0.6877412774905912 0.1225233466744581	0.096813
C	0.4539610132269871 0.7788164106598640 0.1200999197900713	-0.148680
C	0.5419056434120322 0.3216037483644580 0.1341014763675879	0.102771
C	0.5449080891365911 0.2302234550078121 0.1321773226526854	-0.155337
C	0.1819836097500446 0.0146194702429748 0.6448170173700247	0.100813
C	0.2730569783560352 0.0174327359763486 0.6447050144974347	-0.141430
C	0.6820460542623754 0.5469003321884702 0.1365907114577385	0.104043
C	0.7734026288265408 0.5506210064851750 0.1339817169160297	-0.158264
C	0.8148094477644737 0.0229606024110003 0.6433884909422373	0.098263
C	0.7237642415735744 0.0246769472702429 0.6437384464513644	-0.144595
C	0.3147943358100681 0.4593790317018197 0.1151174008144875	0.099275
C	0.2236434494760776 0.4577750380762542 0.1123057036586869	-0.148715
C	0.9714295797590953 0.8153879154835270 0.6415516854440857	0.100850
C	0.9698120990010333 0.7241840696108305 0.6399927579657109	-0.140725
C	0.9875578481455557 0.1839022445634449 0.6472791657410402	0.093057
C	0.9852857561064088 0.2749551604215947 0.6466057710146818	-0.145023
C	0.0186853217700598 0.8145554126296396 0.3704202482129337	0.096868
C	0.0207288167052809 0.7233056825453810 0.3589781066448463	-0.143079
C	0.0203199232004463 0.1719570168130266 0.3694152307759520	0.103971
C	0.0216299695226605 0.2628039359766901 0.3587643157066232	-0.140620
C	0.0028317709317382 0.3152745215900266 0.4995832023541183	0.038694
C	-0.0011590687984199 0.4111490384488782 0.4938103467724647	0.254019
C	0.4994585144510426 0.8200044703328766 0.9943642614776358	0.054804
C	0.5007817621809666 0.9167487099467022 0.9918214055768922	0.252300
C	0.9955968391470429 0.6770899190429486 0.4963481577956333	0.034665
C	0.9949190067267488 0.5807365216280092 0.4913189549628314	0.249034
C	0.5037121119297450 0.1825697329099098 0.0077372015654095	0.054005
C	0.5027477474635720 0.0855999239625126 0.0012194611971913	0.251324
C	0.6823001495759187 0.9998569469771087 0.4998836010254649	0.036752
C	0.5861288228704469 0.0009326127308222 0.4956758347221135	0.250188
C	0.1828028165141758 0.5016950393052362 0.9904033808624484	0.054281
C	0.0860536931243574 0.5034300863510361 0.9870710012306273	0.253428
C	0.3201885014788206 0.9983079225989435 0.4984929425198757	0.037441
C	0.4163995034094005 0.0005633106490513 0.4946979347247074	0.255293
C	0.8202299876421431 0.5061427043209432 0.0069290144494932	0.055421
C	0.9172344115233410 0.5055882703983787 -0.0017979814643414	0.251124
H	0.5655039653955132 0.6325459575281318 0.7833617931152400	0.114069
H	0.5792600297944250 0.7984551909443851 0.7731162893583181	0.121116
H	0.4436495804134468 0.3588944929304218 0.7969339696216368	0.115005
H	0.4322033150533606 0.1920198606387695 0.7872051126535223	0.115966
H	0.8693552381245332 0.9622151877818483 0.2663964602860146	0.118134
H	0.7034150647779878 0.9563843794830217 0.2472688183901734	0.120908
H	0.3701298433962055 0.5617690248714480 0.7847678078539964	0.112764
H	0.2048495226263630 0.5773683540374085 0.7761533274440446	0.121174
H	0.1424040085148602 0.9679060492965503 0.2621084691283865	0.114892
H	0.3086211664287929 0.9637713215465679 0.2414678459441479	0.115388
H	0.6420098276399714 0.4382421705253457 0.7957123519311462	0.115458
H	0.8092288455875716 0.4278779995185931 0.7831978778023458	0.114736
H	0.4268938669990480 0.6523127590059540 0.2222557585279355	0.103858
H	0.4200475428276619 0.8175447198676845 0.2169632268445994	0.112657
H	0.5696019044864888 0.3620423518750684 0.2320940930319016	0.100641
H	0.5774035341494769 0.1971975894987608 0.2277606928870307	0.120775
H	0.1429064625801717 0.0265188570869121 0.7565836144922252	0.102572
H	0.3066981727851609 0.0332415401220202 0.7564692202618029	0.116752
H	0.6423244812191010 0.5767014471852152 0.2366617184661153	0.100971
H	0.8070291424130803 0.5861605213742497 0.2309600612108602	0.120460
H	0.8498763185047513 0.0399952986823140 0.7530223519742393	0.098093
H	0.6860237132805983 0.0443181556978686 0.7538495536305415	0.113565
H	0.3499087248905562 0.4305675007348783 0.2125301873636338	0.102097
H	0.1847026364080055 0.4254936186959440 0.2055546138398555	0.113935
H	0.9527250266537626 0.8545107835707477 0.7510676213639942	0.102455
H	0.9494899940466698 0.6903802070594630 0.7487117191122742	0.116569
H	0.9758792885276261 0.1498564403647766 0.7594466826876284	0.098506
H	0.9704113915013143 0.3135051347104196 0.7584225108361272	0.113381
H	0.0336359803787016 0.8553105196557889 0.2674428784501751	0.114270
H	0.0405213061621513 0.6889852906384326 0.2449920277936686	0.116145
H	0.0301082759252768 0.1266703337948793 0.2639983912115133	0.118220
H	0.0346991633894788 0.2924645657363552 0.2426205316054535	0.121564
N	0.9490626503424282 0.5411745283400972 0.6113228839269930	-0.131731
N	0.4237277984003092 0.0454009792966100 -0.0037087599663359	-0.146884
N	0.5417814218172257 0.0470440857974793 0.6164156618048744	-0.135013
N	0.9571486559458776 0.4264275629092661 0.9890782490129683	-0.146452
N	0.0367564249999844 0.5365753880555235 0.3654629883925281	-0.139031
N	0.5808354446006448 0.0436822121369898 -0.0066947988325919	-0.149357
N	0.9593857938409248 0.5834446431513481 0.9899932119594030	-0.148075
N	0.5472155655825709 0.9587687411353305 0.3697249590439024	-0.135637
N	0.0397248530792819 0.4502356737490945 0.3682061847205053	-0.131844
N	0.5798227964074788 0.9568059469573794 0.9840946994511464	-0.149344
N	0.4607597060869462 0.9583495919535600 0.3697996936097876	-0.134232
N	0.0462228972830551 0.5821136384669063 0.9804344397599610	-0.153957
N	0.9501511720104359 0.4550162621800972 0.6114956623692485	-0.131528
N	0.4226586618497363 0.9586211159202014 -0.0049287463431202	-0.152092
N	0.0439199267400839 0.4252678694062278 0.9863718690419173	-0.151310
N	0.4555598441335377 0.0472050542575231 0.6154216461361376	-0.131785
N	0.0039360610664941 0.1336041564461101 0.5114820368993561	-0.214408
N	0.4975666268392795 0.6382391024112116 0.0040382212285453	-0.220256
N	0.9956882664510212 0.8595652823933093 0.5096512184309339	-0.213010
N	0.5046466062916439 0.3647138094709101 0.0161438435270803	-0.223525
N	0.8641678017524824 -0.0000290796777367 0.5100005606614421	-0.211994
N	0.3644811942719166 0.4973246769185303 -0.0000186019979561	-0.220316
N	0.1378678978798323 0.9959752912194115 0.5093086639603293	-0.213366
N	0.6379764681266208 0.5057855313567509 0.0175693434370706	-0.224099
Ni	0.0007571950218137 0.9966380637672242 0.5069071901654503	0.702567
Ni	0.5013472372356883 0.5011054893512752 0.0063979987605693	0.710905
B	0.9938030111682590 0.9976999898698929 0.9425381405533988	1.058287
B	0.4910085224824466 0.5033039251377089 0.4351151530176945	1.065358
F	0.0059167031565126 0.9900037653363742 0.2771107249778023	-0.575138
F	0.5121227089753285 0.4905027556127797 0.7781809289480847	-0.584749
F	0.9939068915083543 0.0010563442604345 0.7618208240890598	-0.453707
F	0.4828080435358387 0.5156723584828902 0.2580257333748743	-0.455823
F	0.9301426266137912 0.9349363825455183 0.9828925632360326	-0.445063
F	0.4288398999853856 0.4392670505910743 0.4753926242072053	-0.462769
F	0.9709027955847599 0.0828178941539207 -0.0004036951793163	-0.446133
F	0.4726623711805715 0.5860586169430627 0.5092361579519358	-0.462542
F	0.0790640539634580 0.9734877014273058 0.9779737964798404	-0.443237
F	0.5776834897256615 0.4754404698881887 0.4526084797033127	-0.459820
	  	
