#======================================================================

# CRYSTAL DATA

#----------------------------------------------------------------------

data_VESTA_phase_1


_pd_phase_name                         BFFIVE_6_Zn_i
_cell_length_a                         17.80654
_cell_length_b                         17.80659
_cell_length_c                         16.55174
_cell_angle_alpha                      89.99728
_cell_angle_beta                       90.00417
_cell_angle_gamma                      89.98054
_symmetry_space_group_name_H-M         P 1
_symmetry_Int_Tables_number            1

loop_
_symmetry_equiv_pos_as_xyz
   x, y, z

loop_
   _atom_site_label
   _atom_site_fract_x
   _atom_site_fract_y
   _atom_site_fract_z
   _atom_site_charge
N	0.2424850352508550 0.1292996550329554 0.1329219501804060	-0.220883
N	0.2584986031438887 0.3706531636160625 0.1313168853663773	-0.219908
N	0.3705653583605045 0.2416975527351414 0.1324517655505385	-0.220379
N	0.1292130809750383 0.2577256839183230 0.1316674494512948	-0.221710
N	0.7583075714360443 0.6294355701252272 0.3675367300684166	-0.220489
N	0.7422862776968052 0.8707830818451679 0.3683323306135249	-0.221045
N	0.6293499096747004 0.7415073624393219 0.3686785526017420	-0.219796
N	0.8707089426587032 0.7575164762094685 0.3670839498741931	-0.220727
N	0.7585011608504626 0.8706500679627865 0.8686966435795822	-0.219834
N	0.7424908665886276 0.6292923923328395 0.8670783321835956	-0.221255
N	0.6292100152461779 0.7577191995241236 0.8683382157668905	-0.221409
N	0.8705613709947583 0.7417005386904294 0.8675454578774555	-0.220475
N	0.2422842978967562 0.3707894509237014 0.6316645286243434	-0.221574
N	0.2583111188610312 0.1294419725270492 0.6324610506429101	-0.220195
N	0.3707144596094254 0.2575157130838717 0.6329047255558692	-0.220354
N	0.1293542801464676 0.2415042890735494 0.6313328300350713	-0.219789
C	0.2041274548894463 0.0919507394094782 0.1899667880308926	0.099678
C	0.1955342523884822 0.0143203326496653 0.1879638475745706	-0.187927
C	0.2308590406523351 0.9730639589653680 0.1265659517770424	0.107120
C	0.2717806458640537 0.0128422328029131 0.0681357738870555	-0.184817
C	0.2748709202613013 0.0907970208325118 0.0723345606444676	0.101745
C	0.2254501684140924 0.8904290940930863 0.1236905016813702	0.066367
C	0.2899863319093213 0.8471631371780382 0.1197243015282303	-0.175983
C	0.2861900302801939 0.7678251555068183 0.1204495688249626	0.084154
C	0.1483837688286105 0.7777530017249443 0.1229932056744551	-0.123207
C	0.1540438722642966 0.8547763999807929 0.1262140035526924	-0.137997
C	0.2963258268939117 0.4076352334699264 0.1891429607065564	0.098550
C	0.3044675210815327 0.4853540754758643 0.1880042309806514	-0.188974
C	0.2693180706499332 0.5269879431967485 0.1267624882696620	0.105530
C	0.2289829213412523 0.4875176205736010 0.0676025474705953	-0.184645
C	0.2262664802227513 0.4094850778665569 0.0708584753384747	0.099794
C	0.2745625920651912 0.6096391602542869 0.1244007794779255	0.067189
C	0.2100315203414062 0.6528862882187438 0.1202223870502733	-0.177554
C	0.2138268246828342 0.7322217670577182 0.1205254805158237	0.085110
C	0.3516298831397050 0.7223145645529755 0.1233860509596076	-0.123191
C	0.3459697260705152 0.6453132130239747 0.1270013044237191	-0.138656
C	0.4076989906420690 0.2034201266302914 0.1897445106848486	0.099038
C	0.4854057398394866 0.1951192737722796 0.1884270535860563	-0.188315
C	0.5269266692757816 0.2305599068390631 0.1273084013298159	0.107629
C	0.4873230255863233 0.2712630202685700 0.0685015629776714	-0.183888
C	0.4093284003245228 0.2741456217663639 0.0721147293525533	0.102701
C	0.6095899885646942 0.2252656792902991 0.1246775959395734	0.066256
C	0.6527840498564295 0.2898132323626295 0.1204437559982997	-0.177210
C	0.7321249867845229 0.2860202069989064 0.1205080062195085	0.084932
C	0.7223002978119527 0.1482192820971230 0.1232088374455703	-0.123874
C	0.6453002138771349 0.1538597976825887 0.1270503030441796	-0.137657
C	0.0919024765181720 0.2956868607261803 0.1891443384159185	0.097888
C	0.0142409954691732 0.3040395880801213 0.1873188403109706	-0.188591
C	0.9729917721491625 0.2689720727423422 0.1257892983738148	0.109167
C	0.0127381023007108 0.2283431465779207 0.0670710116424392	-0.186899
C	0.0907346349380227 0.2254995455909418 0.0709625116149856	0.101500
C	0.8903568222933864 0.2743193324957411 0.1231738640275423	0.064003
C	0.8470953533483736 0.2098216758810608 0.1192627003112353	-0.176822
C	0.7677614732888322 0.2136499920461876 0.1202177245659294	0.085376
C	0.7776472358699102 0.3514257358320508 0.1229568600642377	-0.123949
C	0.8546767894559983 0.3457406125507717 0.1259348896339691	-0.137161
C	0.7965881039858875 0.5923018631131375 0.3102547067805781	0.098930
C	0.8048886694006353 0.5145937286875942 0.3115873561143609	-0.188103
C	0.7694421785085660 0.4730713021647096 0.3727008808158106	0.108375
C	0.7287441440388602 0.5126758974068412 0.4314970704086633	-0.183729
C	0.7258591797144095 0.5906713664942449 0.4278780947334781	0.102694
C	0.7747353498274460 0.3904059504381719 0.3753302989257516	0.063476
C	0.7101866358018040 0.3472128257165417 0.3795607415583532	-0.176245
C	0.7139795342715233 0.2678712989520331 0.3794905206091704	0.084840
C	0.8517764229931805 0.2776906220163732 0.3767877855200337	-0.123772
C	0.8461384961424754 0.3546912862365142 0.3729527486940160	-0.136818
C	0.7043186279282493 0.9080970394266447 0.3108530865320951	0.097797
C	0.6959587101908775 0.9857583128885575 0.3126788067650760	-0.188667
C	0.7310311297804286 0.0270008063672128 0.3742078964032282	0.109291
C	0.7716597345308133 0.9872530796250151 0.4329333189122699	-0.186986
C	0.7745133200848335 0.9092586952936821 0.4290390561061504	0.101202
C	0.7256783939500283 0.1096343547856273 0.3768226716617109	0.064166
C	0.7901740495590006 0.1528967418346449 0.3807343855361631	-0.177006
C	0.7863461002439851 0.2322327490231199 0.3797754773828012	0.085561
C	0.6485723289932898 0.2223477447959765 0.3770396033465142	-0.123807
C	0.6542565696124090 0.1453177109451239 0.3740609005305393	-0.137316
C	0.5923610722444256 0.7036774379517849 0.3108558238504967	0.098524
C	0.5146444053972538 0.6955322857182973 0.3120033981102903	-0.188938
C	0.4730229302477978 0.7306811632132119 0.3732419596798627	0.105318
C	0.5124943052486345 0.7710129819880953 0.4323986475781064	-0.184451
C	0.5905256699527376 0.7737360856291172 0.4291380356376628	0.099702
C	0.3903726053253609 0.7254359493058089 0.3756044009557363	0.067175
C	0.3471260054507957 0.7899688059907852 0.3797743726557256	-0.177387
C	0.2677879804195806 0.7861742922646633 0.3794748773304485	0.085206
C	0.2776921696780464 0.6483728551574495 0.3766187482532432	-0.122916
C	0.3546944263094217 0.6540300722717360 0.3730006257418483	-0.138557
C	0.9080527835389635 0.7958761740213660 0.3100367470939380	0.099621
C	0.9856825339715423 0.8044695486226946 0.3120439230244374	-0.187971
C	0.0269409755000466 0.7691387059698253 0.3734414725979054	0.107262
C	0.9871682033466905 0.7282211527054711 0.4318752907351830	-0.184969
C	0.9092159822255915 0.7251294188273953 0.4276742481962753	0.101730
C	0.1095770282746552 0.7745511439525506 0.3763170743513056	0.066409
C	0.1528456123489322 0.7100159540533880 0.3802847814770045	-0.175938
C	0.2321838751688027 0.7138100967861882 0.3795535151655141	0.083838
C	0.2222544903710793 0.8516146788637695 0.3770043919592234	-0.123206
C	0.1452311516388094 0.8459567731396233 0.3737883879993301	-0.138123
C	0.7963308706287419 0.9076334588453978 0.8108713089512392	0.098330
C	0.8044736699839709 0.9853509478060454 0.8120120527235593	-0.188779
C	0.7693233702520343 0.0269808486686017 0.8732454890323296	0.105288
C	0.7289894956545675 0.9875108304013208 0.9324030669281739	-0.184502
C	0.7262688657459163 0.9094789145531953 0.9291514784093624	0.099765
C	0.7745645821371817 0.1096292376384374 0.8756015362670097	0.067224
C	0.7100327558439883 0.1528769549087699 0.8797714042149086	-0.177483
C	0.7138265527056682 0.2322155468720430 0.8794702128135932	0.085201
C	0.8516281132750027 0.2223113546327546 0.8766141957608587	-0.123183
C	0.8459692312571042 0.1453081760433405 0.8729963567235708	-0.138480
C	0.7041253618183354 0.5919477653472925 0.8100344170803299	0.099326
C	0.6955309244387911 0.5143184735803444 0.8120459228111323	-0.187998
C	0.7308619359293745 0.4730618977578937 0.8734461578142976	0.107258
C	0.7717838275496922 0.5128378164661517 0.9318772625585502	-0.185039
C	0.7748778971264232 0.5907894821047581 0.9276719378011634	0.102028
C	0.7254484238378204 0.3904265523816343 0.8763207930646181	0.066679
C	0.7899842073493544 0.3471585809143745 0.8802860155303931	-0.176117
C	0.7861899332262652 0.2678212542789010 0.8795521618371109	0.084108
C	0.6483860753764463 0.2777473465198406 0.8770005347303911	-0.123286
C	0.6540436181700992 0.3547711965613013 0.8737874435597497	-0.138195
C	0.5918945482938166 0.7956844496463710 0.8108567786925508	0.097667
C	0.5142342575413537 0.8040413751514291 0.8126835976232301	-0.188758
C	0.4729948065588103 0.7689715089653989 0.8742137484917725	0.109328
C	0.5127437960783696 0.7283453375571545 0.9329386808093418	-0.187053
C	0.5907385236645165 0.7254963149056382 0.9290477526736129	0.101412
C	0.3903609490776330 0.7743213907329363 0.8768227918752822	0.064171
C	0.3470991108294466 0.7098264567848197 0.8807335717165120	-0.176853
C	0.2677630728271491 0.7136535593534643 0.8797775714329198	0.085189
C	0.2776454071401142 0.8514300585508461 0.8770441792900416	-0.123918
C	0.3546778216229413 0.8457430585799339 0.8740651396417700	-0.137358
C	0.9076905295979487 0.7034201739339097 0.8102594700421747	0.099198
C	0.9853982721164313 0.6951197458863825 0.8115842096597750	-0.188383
C	0.0269254599893225 0.7305629485359366 0.8726993476869238	0.107790
C	0.9873249946071279 0.7712645790711409 0.9315010167831339	-0.183967
C	0.9093300635505186 0.7741492579685864 0.9278828308422833	0.102753
C	0.1095899448017188 0.7252677521015920 0.8753269143044414	0.066237
C	0.1527840073999616 0.7898140290872528 0.8795591194201032	-0.177207
C	0.2321256212128956 0.7860215896965705 0.8794922834538069	0.085011
C	0.2223024649993539 0.6482230187402248 0.8767889588788734	-0.123459
C	0.1453016618111956 0.6538635293752636 0.8729519835066490	-0.137872
C	0.2043230361146367 0.4080990959499094 0.6891419361100383	0.097852
C	0.1959653668663508 0.4857594051289958 0.6873165372814926	-0.188629
C	0.2310303005600335 0.5270056992453125 0.6257866781673186	0.109216
C	0.2716564014421275 0.4872621394606967 0.5670649342023780	-0.187019
C	0.2745069672226063 0.4092664542550502 0.5709583976740846	0.101532
C	0.2256796144951467 0.6096375798711383 0.6231726204312171	0.064028
C	0.2901782547915847 0.6528992229711038 0.6192619653877692	-0.176774
C	0.2863504787076044 0.7322342601196958 0.6202172384450519	0.085268
C	0.1485764423211144 0.7223508832007218 0.6229564396752157	-0.123851
C	0.1542594549006317 0.6453202491116510 0.6259361890198513	-0.137253
C	0.2965894765861521 0.0923031541668676 0.6897559422240288	0.098843
C	0.3048837173604282 0.0145973054718184 0.6884336936410912	-0.188190
C	0.2694437046579000 0.9730738528789064 0.6273092707988347	0.108420
C	0.2287408383938802 0.0126803888508912 0.5685081356623067	-0.183578
C	0.2258584057620749 0.0906773646411791 0.5721255086265026	0.102523
C	0.2747389570528318 0.8904068164841468 0.6246775774949841	0.063281
C	0.2101927883181438 0.8472120082123095 0.6204417973959492	-0.176130
C	0.2139819502353825 0.7678707097934719 0.6205081438620346	0.084904
C	0.3517830075019748 0.7776936776513098 0.6232093257741236	-0.123643
C	0.3461426793429018 0.8546934794131689 0.6270512752368296	-0.136871
C	0.4080623537529053 0.2958733173889720 0.6899517020175103	0.099731
C	0.4856928158832591 0.3044646783503932 0.6879528789400221	-0.187989
C	0.5269489098512934 0.2691386777748801 0.6265564691993469	0.107243
C	0.4871696228268046 0.2282185792462310 0.5681221207372199	-0.185062
C	0.4092159530220373 0.2251302540174766 0.5723188598371133	0.101654
C	0.6095819141233357 0.2745486749608373 0.6236840282425290	0.066470
C	0.6528472790282391 0.2100112857913695 0.6197175260763824	-0.176154
C	0.7321859216823646 0.2138102984369092 0.6204480861129902	0.084017
C	0.7222559959417519 0.3516132382457088 0.6229964200221286	-0.123297
C	0.6452333386373243 0.3459540404543615 0.6262088455418034	-0.138138
C	0.0923718440803656 0.2036764359788707 0.6891593805313402	0.098538
C	0.0146529129732863 0.1955373310869176 0.6880162330750595	-0.188836
C	0.9730203888230162 0.2306790532442460 0.6267691862058882	0.105346
C	0.0124900007167755 0.2710138831661562 0.5676133825464245	-0.184536
C	0.0905215114069461 0.2737366804280735 0.5708744058437356	0.099585
C	0.8903715068695323 0.2254349351393107 0.6244012124759641	0.067109
C	0.8471233144187968 0.2899673691524646 0.6202266246897429	-0.177400
C	0.7677874073953512 0.2861722757413062 0.6205266539868580	0.085233
C	0.7776914156058676 0.1483690743359273 0.6233835551082437	-0.123125
C	0.8546927723270323 0.1540282304395487 0.6270020817335051	-0.138507
H	0.1808613168146005 0.1259935785678830 0.2387143066831135	0.099455
H	0.1638358000304087 0.9856194122200692 0.2351506030069582	0.111017
H	0.2992235289280915 0.9828724855233015 0.0187996501777797	0.111773
H	0.3017135630700288 0.1251900416059863 0.0258783610263970	0.107827
H	0.3449029967495807 0.8745364885666853 0.1188887395684364	0.107496
H	0.0933611674118770 0.7506781082637857 0.1232921623626266	0.105763
H	0.1036344401478747 0.8895854279653975 0.1288959500910137	0.100196
H	0.3198296751373876 0.3732125404636775 0.2376242471761192	0.099735
H	0.3357383025178607 0.5137677260537309 0.2357041341324601	0.111696
H	0.2016868986112169 0.5178790937698513 0.0184701101063348	0.112322
H	0.2000091305506682 0.3755073351426619 0.0236278357509263	0.109497
H	0.1551510345075673 0.6255311845437315 0.1193243135325321	0.107872
H	0.4066423225142007 0.7494062234652367 0.1236141781090408	0.105046
H	0.3964232114382318 0.6105666922562916 0.1299767758117662	0.101168
H	0.3732903497678728 0.1793180843000639 0.2378062772315388	0.098888
H	0.5138916181348080 0.1634076683207294 0.2357930892784799	0.111088
H	0.5175600255896841 0.2986364882679124 0.0193168135918647	0.112158
H	0.3752115835365054 0.3006440430145023 0.0252101681275341	0.108127
H	0.6253876269700206 0.3446940332637701 0.1197004097897430	0.107874
H	0.7494267182511066 0.0932029924054261 0.1232856086446257	0.105505
H	0.6106109950460459 0.1033980694922938 0.1299990894049362	0.101018
H	0.1258869191615039 0.3184976902196324 0.2382515566972504	0.099817
H	0.9855423802452380 0.3353679633873732 0.2347704895532772	0.111702
H	0.9826967345659419 0.2009725737395318 0.0177582178729244	0.111775
H	0.1250614406953740 0.1988674812678702 0.0242391027001695	0.109335
H	0.8744621263567213 0.1548947138169915 0.1182755448767770	0.107650
H	0.7505672548533417 0.4064458327744412 0.1234409189793520	0.105914
H	0.8894921995024614 0.3961296745495459 0.1286310650385873	0.099882
H	0.8206900235654071 0.6267141109911757 0.2621912567786625	0.098855
H	0.8365964049840231 0.4861079757472355 0.2642282693286012	0.111031
H	0.7013706320103215 0.4824409770965024 0.4806829449192788	0.112132
H	0.6993654153168158 0.6247835677242848 0.4747764659913060	0.108185
H	0.6553074518137176 0.3746043088284487 0.3803043879104492	0.107866
H	0.9067904499668977 0.2505633212098119 0.3767044938782068	0.105421
H	0.8966009121107955 0.3893783769511887 0.3700035919198089	0.100975
H	0.6815037747385164 0.8741136883594511 0.2617475115307116	0.099793
H	0.6646254706378015 0.0144582956561894 0.2652276113566281	0.111725
H	0.7990264602788012 0.0172924049475912 0.4822460724971734	0.111781
H	0.8011455673625671 0.8749297288264271 0.4757666548625957	0.109340
H	0.8451017463955897 0.1255276241130607 0.3817175284851547	0.107720
H	0.5935514778624009 0.2494270414960454 0.3765581733617392	0.105888
H	0.6038658023423835 0.1105034043152576 0.3713685076855537	0.099885
H	0.6267801170511756 0.6801789794791382 0.2623729865002876	0.099672
H	0.4862225453259848 0.6642622778165735 0.2643097044211065	0.111718
H	0.4821356629640830 0.7983074621982599 0.4815310405901185	0.112221
H	0.6245067992840881 0.7999865687920058 0.4763695335334712	0.109524
H	0.3744785349100000 0.8448481483461447 0.3806704232810591	0.107844
H	0.2505995331252310 0.5933635279780586 0.3763917162700099	0.104912
H	0.3894388391667304 0.6035774745417423 0.3700266832448293	0.101145
H	0.8740029981423425 0.8191486201017761 0.2612892345053516	0.099443
H	0.0143829760921107 0.8361700207419938 0.2648617966607845	0.111055
H	0.0171387665848526 0.7007819902658105 0.4812179964610135	0.111836
H	0.8748301247687272 0.6982842025951763 0.4741337798274791	0.107941
H	0.1254763866092181 0.6550989365709423 0.3811245222150795	0.107452
H	0.2493297226113455 0.9066389369683869 0.3767009285602580	0.105722
H	0.1104242003582003 0.8963672973802087 0.3711058573628931	0.100225
H	0.8198331047163945 0.8732069504945826 0.7623994704518724	0.099725
H	0.8357427825783784 0.0137674808167688 0.7643157974995557	0.111684
H	0.7016926402711470 0.0178717860971048 0.9815296267643123	0.112280
H	0.7000160140887156 0.8754997923402497 0.9763797880631359	0.109481
H	0.6551526960861129 0.1255242415171570 0.8806694054579255	0.107913
H	0.9066370552485066 0.2494055759352119 0.8763863659422499	0.104968
H	0.8964233827806594 0.1105655456548890 0.8700229284818654	0.101112
H	0.6808564025573731 0.6259922252782329 0.7612817489748912	0.099775
H	0.6638264545901011 0.4856165498891562 0.7648659398419845	0.111110
H	0.7992294830759782 0.4828677961239628 0.9812175593401370	0.111829
H	0.8017239615443391 0.6251781355065164 0.9741304611042185	0.107868
H	0.8448999961528252 0.3745278785452445 0.8811263127748910	0.107487
H	0.5933611011532697 0.2506729183335531 0.8766959650135204	0.105759
H	0.6036330984777251 0.3895781255881536 0.8711058132434635	0.100228
H	0.6258780135373359 0.8184970884979019 0.7617529953803404	0.099893
H	0.4855333896350288 0.8353767508496429 0.7652347490679252	0.111772
H	0.4827055763114248 0.7009790710258430 0.9822531709435059	0.111818
H	0.6250700631470079 0.6988696169632157 0.9757779099528121	0.109463
H	0.3744648708401391 0.6548965831752358 0.8817192212794953	0.107677
H	0.2505678476012614 0.9064498380402993 0.8765615579667790	0.105924
H	0.3894928047509674 0.8961348423066230 0.8713732321408491	0.099902
H	0.8732774922650163 0.6793163292329290 0.7621969482070431	0.098847
H	0.0138809785982499 0.6634140569488166 0.7642234523706907	0.111066
H	0.0175673173603091 0.7986388114920785 0.9806810998414561	0.112176
H	0.8752209556553912 0.8006480399102549 0.9747848422203755	0.108122
H	0.1253916685631926 0.8446950805387428 0.8803055182260235	0.107848
H	0.2494300706875374 0.5932066697808220 0.8767052312393775	0.105366
H	0.1106126885231585 0.6034017539720763 0.8700026314653204	0.100987
H	0.1815100816034455 0.3741122002094884 0.7382448776299904	0.099806
H	0.1646341571528824 0.5144571236257596 0.7347666260319471	0.111727
H	0.2990243002949602 0.5173069180185150 0.5177544672769763	0.111785
H	0.3011259895614861 0.3749334422086248 0.5242328025457712	0.109298
H	0.3451049234321000 0.6255292068783265 0.6182779871780112	0.107677
H	0.0935561329181383 0.7494293952455136 0.6234396489893355	0.105883
H	0.1038711859402062 0.6105039187664963 0.6286314888555430	0.099931
H	0.3206897723688884 0.1267080031306847 0.7378234479236770	0.098929
H	0.3365939184026880 0.9861103146014266 0.7358009317310862	0.111120
H	0.2013603209857442 0.9824437280605145 0.5193245458198228	0.112139
H	0.1993471115624711 0.1247861547596248 0.5252263171427654	0.108045
H	0.1553098685490780 0.8746074030919319 0.6196969300316150	0.107789
H	0.4067959872629539 0.7505648225691305 0.6232848531461405	0.105478
H	0.3966066853031614 0.8893793419875707 0.6299990621117382	0.101037
H	0.3740179438905329 0.3191413999656591 0.7386969635028634	0.099283
H	0.5143956518729673 0.3361643937353496 0.7351382076725620	0.111014
H	0.5171380297859990 0.2007762040835972 0.5187879777421280	0.111851
H	0.3748258154345299 0.1982881002732444 0.5258581818580755	0.107861
H	0.6254744551734974 0.1550935665687305 0.6188808813155983	0.107564
H	0.7493302457150309 0.4066353462428747 0.6232959723754705	0.105752
H	0.6104247106922773 0.3963616569721982 0.6288951547453938	0.100287
H	0.1267894357805819 0.1801782459190708 0.7376473679879691	0.099709
H	0.9862349574789907 0.1642710687315538 0.7357163026677963	0.111700
H	0.9821256637152287 0.2983082017469417 0.5184774851425890	0.112225
H	0.1245025521709401 0.2999926483425849 0.5236469917503027	0.109559
H	0.8744767271700613 0.3448483992632653 0.6193295114936890	0.107861
H	0.7505996558662832 0.0933571360083769 0.6236109175199827	0.105042
H	0.8894423320846006 0.1035752896739499 0.6299785817201979	0.101101
F	0.2551844208681541 0.1768234755203012 0.3651515832334376	-0.470557
F	0.1823204510749534 0.2869812113806715 0.3677147727588738	-0.468292
F	0.3137892500865938 0.2951485728220968 0.3643774508956548	-0.470861
F	0.7045798090696246 0.6863099086846404 0.1356585633522212	-0.470418
F	0.7130160768611058 0.8177411052560771 0.1321438911489120	-0.468197
F	0.8230503585898880 0.7446447841170730 0.1347147560955653	-0.470462
F	0.6823201692994681 0.7870801910931680 0.6321351781107251	-0.468001
F	0.7550173371287794 0.6768106358005467 0.6349234440914499	-0.470712
F	0.8137959959671685 0.7950033700025499 0.6356092209145704	-0.470453
F	0.2047667398126458 0.1862556506164329 0.8642317592526986	-0.470712
F	0.3231438063658323 0.2447606609603743 0.8652377044646832	-0.470558
F	0.2129822308353141 0.3176760750129715 0.8677946663850091	-0.468235
F	0.2479179239409495 0.2531737883536049 0.2541620786523403	-0.456454
F	0.2511163520933766 0.2498394389170746 0.5095398183358940	-0.578248
F	0.7468488911041306 0.7521948038898190 0.2457742727566889	-0.456661
F	0.7502225434282953 0.7488285836863147 -0.0095226267923336	-0.578527
F	0.7477819405547238 0.7532827111276613 0.7458205985818136	-0.456657
F	0.7511458427674989 0.7497347893269862 0.4904734659032604	-0.578471
F	0.2469454844668651 0.2522617841129617 0.7541563531484585	-0.456551
F	0.2502419744435047 0.2488417134929114 0.0095549840547349	-0.578376
Zn	0.2498494005955773 0.2500170083947851 0.1241550588806530	0.688171
Zn	0.7499874401340197 0.7501550673385688 0.3758374651098111	0.687976
Zn	0.7498330943377491 0.7500088269518558 0.8758493227576322	0.688197
Zn	0.2499930925311526 0.2501644207435669 0.6241181376873253	0.687912
B	0.2499007366222485 0.2529168060779607 0.3438727519399299	1.071263
B	0.7469695822168171 0.7500857855290132 0.1560544409191743	1.070868
B	0.7498631252862668 0.7529524068126201 0.6561043526751397	1.070862
B	0.2470711669925375 0.2501096602578520 0.8438706521753639	1.071038
	  	
