#======================================================================

# CRYSTAL DATA

#----------------------------------------------------------------------

data_VESTA_phase_1


_pd_phase_name                         BFFIVE_6_Cd_i
_cell_length_a                         18.25573
_cell_length_b                         18.25570
_cell_length_c                         16.98475
_cell_angle_alpha                      90.00070
_cell_angle_beta                       89.99863
_cell_angle_gamma                      89.98517
_symmetry_space_group_name_H-M         P 1
_symmetry_Int_Tables_number            1

loop_
_symmetry_equiv_pos_as_xyz
   x, y, z

loop_
   _atom_site_label
   _atom_site_fract_x
   _atom_site_fract_y
   _atom_site_fract_z
   _atom_site_charge
N	0.2442898684351871 0.1201633069540605 0.1335014701939218	-0.231325
N	0.2566262329013531 0.3796515622859528 0.1329073301619594	-0.230049
N	0.3797312270010157 0.2432360902251372 0.1329223342566506	-0.231674
N	0.1202507819284283 0.2556083971562474 0.1332717922151381	-0.233534
N	0.7567666143479901 0.6202705528009075 0.3670749370661846	-0.231687
N	0.7443857649630872 0.8797476838239143 0.3667280887910079	-0.233490
N	0.6203537290336483 0.7433720626529391 0.3670861334747673	-0.230012
N	0.8798359398932443 0.7557239433083516 0.3665051996179058	-0.231401
N	0.7566308877837593 0.8796454365146844 0.8670953637785688	-0.230056
N	0.7442843740473158 0.6201632341035871 0.8665101329842924	-0.231242
N	0.6202498942749243 0.7556195644340816 0.8667268869797754	-0.233422
N	0.8797270538427890 0.7432413272199124 0.8670935702727004	-0.231699
N	0.2443823301867225 0.3797480188226039 0.6332624045717828	-0.233528
N	0.2567580567304869 0.1202667533598794 0.6329346348529359	-0.231855
N	0.3798371845992181 0.2557218001610303 0.6334993456624083	-0.231398
N	0.1203484063804330 0.2433835304643227 0.6329127605565686	-0.230053
C	0.2045558285371553 0.0836273566877868 0.1871333944104132	0.099044
C	0.1955712929673484 0.0080077938537662 0.1840499656751137	-0.187097
C	0.2317747703248344 0.9677838064787609 0.1253318829984737	0.110326
C	0.2735723867660996 0.0067784055795020 0.0700124003952687	-0.184327
C	0.2770766745907764 0.0827874060795958 0.0751987904793028	0.100895
C	0.2263908440908876 0.8871123330046585 0.1231195997032627	0.061010
C	0.2892192820642926 0.8445891113735315 0.1204936236446807	-0.174977
C	0.2853042603546412 0.7672021226945647 0.1217962876188416	0.085084
C	0.1509604302131226 0.7773188439964538 0.1243615098063661	-0.125379
C	0.1566375958627488 0.8524750084442921 0.1261607646891357	-0.135930
C	0.2958409249200603 0.4161095847782464 0.1870669530158061	0.098637
C	0.3043935910813942 0.4917952538142097 0.1843997342344173	-0.188169
C	0.2683188188770761 0.5320893732499820 0.1256415750614320	0.108020
C	0.2270260690574656 0.4931574544629326 0.0698569131234433	-0.183784
C	0.2239350083336357 0.4170694848412893 0.0745658749715015	0.098563
C	0.2735523803062809 0.6127839565376214 0.1235772187642389	0.062097
C	0.2107527883767817 0.6553275105741936 0.1208603686487581	-0.175376
C	0.2146506974667471 0.7327031415289147 0.1218753723978453	0.085808
C	0.3489666052138664 0.7225924162109363 0.1244788957955832	-0.125524
C	0.3433203593105556 0.6474556660796829 0.1265470756886558	-0.136291
C	0.4162661447102703 0.2037408568185138 0.1867117328937039	0.098445
C	0.4919277755251033 0.1952479230546575 0.1841424078396613	-0.188108
C	0.5322074053810243 0.2316906165478138 0.1256324709200749	0.109457
C	0.4932306855939096 0.2732234050254908 0.0700797284981798	-0.182566
C	0.4171449299034562 0.2762685614527342 0.0747947023019181	0.101630
C	0.6128923381419887 0.2264469675010198 0.1235777361392135	0.060972
C	0.6554065832597192 0.2892633256880855 0.1208893478702397	-0.174577
C	0.7327712921855996 0.2853203230844707 0.1218719156290125	0.085982
C	0.7227006022375707 0.1509966170578845 0.1244228533269645	-0.124912
C	0.6475765429710780 0.1566805827939891 0.1265095749263484	-0.135814
C	0.0837403143483624 0.2950355752388112 0.1872351092765754	0.100742
C	0.0080950242364047 0.3040365165891581 0.1841240248225156	-0.187080
C	0.9678849866202649 0.2681411920679321 0.1251721443248045	0.106908
C	0.0068861130004464 0.2266134434897998 0.0696305308130227	-0.182814
C	0.0829059419850900 0.2231100874559063 0.0747390013092629	0.098296
C	0.8872038744634956 0.2735662648678650 0.1230148276438374	0.062269
C	0.8446737032856706 0.2107406123717607 0.1203903614932033	-0.175691
C	0.7672952953535749 0.2146707615206685 0.1217447600293643	0.085157
C	0.7773824618779449 0.3490072340323437 0.1243705747828648	-0.125948
C	0.8525422521430381 0.3433146330097934 0.1261092348808162	-0.135762
C	0.7962604632302585 0.5837370233046697 0.3132829236655622	0.098503
C	0.8047560401666369 0.5080744848662953 0.3158505484242385	-0.187945
C	0.7683136237372287 0.4677964925566704 0.3743645068417545	0.109398
C	0.7267791290970457 0.5067739351845845 0.4299150349725898	-0.182423
C	0.7237303668463214 0.5828593604243036 0.4252025982098443	0.101569
C	0.7735585186632780 0.3871105136234390 0.3764200823481644	0.061096
C	0.7107409398761093 0.3445957304379755 0.3791096269437337	-0.174669
C	0.7146836308966211 0.2672305991392454 0.3781307968921110	0.086022
C	0.8490064737884797 0.2773000088271662 0.3755792612115930	-0.124959
C	0.8433231849360368 0.3524236038075656 0.3734910252658010	-0.136007
C	0.7049607341541250 0.9162560158440969 0.3127598247679058	0.100613
C	0.6959662556797649 0.9919049309769382 0.3158701909081163	-0.187088
C	0.7318585878301139 0.0321142125948407 0.3748210025422993	0.107053
C	0.7733875723762418 0.9931147191565749 0.4303612534880527	-0.182940
C	0.7768885829645613 0.9170949502302603 0.4252521774459134	0.098339
C	0.7264351035243326 0.1127966353665853 0.3769821492713670	0.062191
C	0.7892615385438325 0.1553264322162848 0.3796101261327497	-0.175666
C	0.7853316289720105 0.2327042987207196 0.3782590165694821	0.085235
C	0.6509957715282340 0.2226187370719305 0.3756301944624469	-0.126008
C	0.6566877291366131 0.1474590674097007 0.3738885253577807	-0.135643
C	0.5838971826981749 0.7041568840631328 0.3129245577731236	0.098515
C	0.5082102758123918 0.6956053345228909 0.3155928992038642	-0.188171
C	0.4679156099447289 0.7316792899460566 0.3743565594214155	0.108058
C	0.5068488008984526 0.7729724399595810 0.4301393264829306	-0.183631
C	0.5829347872647074 0.7760666126963981 0.4254283479414260	0.098426
C	0.3872207262143265 0.7264469640147520 0.3764217993557000	0.062173
C	0.3446759272258842 0.7892469710840896 0.3791396238543535	-0.175521
C	0.2673002742704572 0.7853494049149534 0.3781259331800715	0.085979
C	0.2774099327833861 0.6510338930623892 0.3755203230152224	-0.125493
C	0.3525464941731059 0.6566795780140907 0.3734538673993642	-0.136387
C	0.9163717281457019 0.7954541072859038 0.3128665174173282	0.098876
C	0.9919929249678610 0.8044320428739743 0.3159450201085062	-0.186874
C	0.0322161289772769 0.7682320771513871 0.3746616921664229	0.110501
C	0.9932196907311935 0.7264341758547269 0.4299827826924004	-0.184577
C	0.9172118543924095 0.7229329994680441 0.4247994334598860	0.101066
C	0.1128890408934952 0.7736125035035634 0.3768763145249973	0.060910
C	0.1554115802818720 0.7107841193225679 0.3795044987610966	-0.174997
C	0.2327991588136428 0.7146965528078385 0.3782042596240870	0.085121
C	0.2226856322518269 0.8490404732023830 0.3756389691329934	-0.125495
C	0.1475284794302459 0.8433664893217259 0.3738387177552602	-0.135759
C	0.7958443231923814 0.9161033891965036 0.8129308934417462	0.098608
C	0.8043945553521135 0.9917913112096434 0.8155934935879857	-0.188142
C	0.7683208435289355 0.0320868460674758 0.8743555056659683	0.108151
C	0.7270271079555745 0.9931554435332962 0.9301409439156882	-0.183885
C	0.7239370579118147 0.9170683199643588 0.9254351379240212	0.098511
C	0.7735535281064660 0.1127816631140794 0.8764190318594507	0.062065
C	0.7107533914902747 0.1553237579006166 0.8791391204359216	-0.175417
C	0.7146518854080423 0.2327000326365790 0.8781250125674304	0.085879
C	0.8489670692095310 0.2225893247974805 0.8755202461297198	-0.125453
C	0.8433211218421494 0.1474515452289306 0.8734517410899673	-0.136405
C	0.7045549804300817 0.5836303142823461 0.8128723807392636	0.099061
C	0.6955736524478947 0.5080094205259195 0.8159480823948032	-0.187132
C	0.7317721052962732 0.4677828269520726 0.8746633786094747	0.110485
C	0.7735688482885829 0.5067757931326634 0.9299850588476540	-0.184549
C	0.7770703548054719 0.5827846454471250 0.9248055543607060	0.100943
C	0.7263903339929453 0.3871097618047675 0.8768751665239832	0.060934
C	0.7892181353477448 0.3445888347555638 0.8795041926736602	-0.175024
C	0.7853045755616745 0.2671989128200091 0.8782034560866293	0.085021
C	0.6509616694199751 0.2773140103437140 0.8756390269512261	-0.125416
C	0.6566359236294209 0.3524721887175088 0.8738389339474227	-0.135723
C	0.5837388988911093 0.7950411652274914 0.8127594483774073	0.100566
C	0.5080920746648095 0.8040367182841442 0.8158693845188359	-0.187152
C	0.4678821762441682 0.7681422133623770 0.8748202888514730	0.107099
C	0.5068818325708004 0.7266128485113089 0.9303589218889854	-0.183067
C	0.5829022535116659 0.7231148382989383 0.9252541102948059	0.098420
C	0.3872012319326333 0.7735655780472237 0.8769814224470678	0.062225
C	0.3446733688005829 0.7107391704107968 0.8796084036250683	-0.175602
C	0.2672954386834915 0.7146698433380471 0.8782563489237287	0.085184
C	0.2773817002381131 0.8490065582345566 0.8756303296279968	-0.125816
C	0.3525413298969175 0.8433140663950752 0.8738898973349992	-0.135749
C	0.9162571815678260 0.7037445846773059 0.8133004931439588	0.098314
C	0.9919209509891622 0.6952487651849325 0.8158588746591174	-0.187890
C	0.0322050949687349 0.7316899175769532 0.8743670771719093	0.109390
C	0.9932313866919869 0.7732255726460934 0.9299224846068795	-0.182616
C	0.9171457376535768 0.7762740588495088 0.9252160557320775	0.101628
C	0.1128912409969207 0.7264449453353354 0.8764175858446946	0.061031
C	0.1554061017650527 0.7892615780882809 0.8791070426981937	-0.174622
C	0.2327711732184446 0.7853187250414425 0.8781282774218387	0.085898
C	0.2227004545250785 0.6509962464631370 0.8755773528568409	-0.125012
C	0.1475763724125262 0.6566787799886131 0.8734876694993905	-0.135834
C	0.2049596748995956 0.4162550867292416 0.6872341924736153	0.100511
C	0.1959657931457513 0.4919036797557593 0.6841265596729492	-0.186966
C	0.2318593574725222 0.5321128264359969 0.6251755572743116	0.106961
C	0.2733876384171522 0.4931152244805166 0.5696315360191875	-0.182926
C	0.2768879731255973 0.4170940183122675 0.5747375183015058	0.098451
C	0.2264354981183554 0.6127960993746699 0.6230153764569756	0.062214
C	0.2892613440380278 0.6553266613871298 0.6203906748024135	-0.175709
C	0.2853319095720854 0.7327051000555637 0.6217435819615477	0.085223
C	0.1509955650032304 0.7226192624557111 0.6243708521501687	-0.125910
C	0.1566873975005391 0.6474590509314694 0.6261094496951989	-0.135640
C	0.2962581940363325 0.0837347451570367 0.6867211402099561	0.098486
C	0.3047556635357596 0.0080733699576780 0.6841461081115190	-0.187966
C	0.2683138923851860 0.9677961464284308 0.6256352147800814	0.109404
C	0.2267795865760434 0.0067721973284866 0.5700840971057504	-0.182514
C	0.2237285617073645 0.0828580389984188 0.5748039527368496	0.101796
C	0.2735581246236340 0.8871105426012925 0.6235780117657274	0.060996
C	0.2107413696077408 0.8445961932124968 0.6208909025337448	-0.174656
C	0.2146830692046316 0.7672308000802811 0.6218712954952109	0.086016
C	0.3490068032310011 0.7772997910274747 0.6244227857943270	-0.124945
C	0.3433230802177711 0.8524244211437246 0.6265090278037496	-0.135925
C	0.4163728999840902 0.2954518459176196 0.6871363557261844	0.099027
C	0.4919923494692242 0.3044297424421012 0.6840534645991092	-0.186969
C	0.5322154351759757 0.2682290731050905 0.6253345952583325	0.110300
C	0.4932194612528663 0.2264319212971212 0.5700132050591710	-0.184403
C	0.4172115278482178 0.2229309298392214 0.5752011325061840	0.101046
C	0.6128884319862048 0.2736102770010377 0.6231190163408136	0.061060
C	0.6554114571171246 0.2107818963817800 0.6204940539031939	-0.174976
C	0.7327989568618594 0.2146948494629418 0.6217961987956728	0.084946
C	0.7226844042471375 0.3490395250096868 0.6243606038318872	-0.125411
C	0.6475270143517217 0.3433641067423316 0.6261591858942970	-0.135943
C	0.0838928474383969 0.2041649995038516 0.6870735935689773	0.098648
C	0.0082071584186704 0.1956093486358710 0.6844045251319907	-0.188334
C	0.9679124556953540 0.2316810883960801 0.6256445584946927	0.108046
C	0.0068435903878157 0.2729746793128620 0.5698582026683519	-0.183622
C	0.0829295835883553 0.2760711820509805 0.5745702660700106	0.098410
C	0.8872185837985942 0.2264466111148477 0.6235785684486264	0.062080
C	0.8446742824575388 0.2892459592592399 0.6208605101822803	-0.175364
C	0.7672991149901791 0.2853484357145360 0.6218748711292185	0.085968
C	0.7774093833414587 0.1510322448155393 0.6244807436968124	-0.125410
C	0.8525462012967261 0.1566787465380541 0.6265476942493415	-0.136402
H	0.1804448014161405 0.1166055798815555 0.2340733208292200	0.099908
H	0.1624052222827607 0.9801938640140482 0.2283324719599868	0.111203
H	0.3012103461729730 0.9781814884967506 0.0220295151463901	0.112938
H	0.3052944147666423 0.1162156459014488 0.0312167593214013	0.103744
H	0.3429157219844720 0.8709722672275070 0.1199686020152767	0.107276
H	0.0972718564842963 0.7510769980917409 0.1253676844279456	0.107979
H	0.1074813091189990 0.8864829693979760 0.1283317979588386	0.100852
H	0.3201026556917222 0.3829642236944850 0.2339023222343363	0.100221
H	0.3371415013604832 0.5196731045143692 0.2290092469881282	0.111378
H	0.1995810135260654 0.5218222098099953 0.0218033191054486	0.113502
H	0.1963614365180405 0.3837426216631996 0.0300157008235690	0.105759
H	0.1570110560626173 0.6290053370533927 0.1203760629453396	0.107248
H	0.4026590715994027 0.7488631948146404 0.1253649526578722	0.107296
H	0.3924916885118731 0.6134776244856593 0.1287927778395165	0.101559
H	0.3830936071520753 0.1788822924356604 0.2330963613976454	0.099050
H	0.5197617407119179 0.1621820711428753 0.2285127524288613	0.111436
H	0.5218805906197409 0.3009314377890566 0.0221881419992793	0.113123
H	0.3837332973800560 0.3040047497016842 0.0304637020520477	0.104621
H	0.6290227091997792 0.3429794796392411 0.1204499902436552	0.107304
H	0.7489529517062051 0.0972809825859499 0.1252897196079053	0.107442
H	0.6135873430974541 0.1075207973822407 0.1287038890721327	0.101381
H	0.1166725916155868 0.3186594600906329 0.2345661745068850	0.100295
H	0.9802039903895680 0.3369179598183978 0.2285971655277409	0.111714
H	0.9783090826159497 0.1992448580210562 0.0214490964496994	0.112817
H	0.1162872208105098 0.1951202331431043 0.0305255720479292	0.105498
H	0.8710422019240793 0.1570321283249081 0.1198123069604697	0.107096
H	0.7510883028773033 0.4026726901522863 0.1254441263771768	0.107733
H	0.8865210538584952 0.3924771194666756 0.1283215946193782	0.100799
H	0.8211136588780726 0.6169106368373922 0.2668962209787551	0.099001
H	0.8378204421835683 0.4802425251192736 0.2714770845816080	0.111320
H	0.6990666983766237 0.4781305730856780 0.4778073652318904	0.113076
H	0.6959878081915357 0.6162703616329044 0.4695310738317942	0.104602
H	0.6570256134406444 0.3709796699321388 0.3795456989808743	0.107335
H	0.9027212504253673 0.2510454704113390 0.3747095583034208	0.107458
H	0.8924847862404872 0.3864115077043911 0.3712978036435193	0.101494
H	0.6813443918441943 0.8833224280101726 0.2654264242161234	0.100415
H	0.6630892791258087 0.0197920611573692 0.2713911100931082	0.111748
H	0.8007576387699972 0.0216869298642437 0.4785420249523614	0.112838
H	0.8048876716022851 0.8837168224400238 0.4694611542040575	0.105422
H	0.8429691721957719 0.1289567971213962 0.3801879510931548	0.107100
H	0.5973304191046277 0.2489137621504541 0.3745530662930133	0.107668
H	0.6075244967955730 0.1134810924475957 0.3716767827721866	0.100748
H	0.6170432775220206 0.6798978454519494 0.2660860865964115	0.100330
H	0.4803333606745637 0.6628605333004596 0.2709805361601955	0.111367
H	0.4781892538367074 0.8004220871993455 0.4781970446138850	0.113465
H	0.6162604201372249 0.8036468366053553 0.4699758354451670	0.105822
H	0.3709984348343256 0.8429886706297191 0.3796220217882306	0.107266
H	0.2511391505213365 0.5973411370300755 0.3746305645992584	0.107304
H	0.3865230554443395 0.6075064203202279 0.3712068049747528	0.101527
H	0.8833926925925216 0.8195586586891079 0.2659266623069410	0.099918
H	0.0198055985453054 0.8375917588517847 0.2716561494387900	0.111147
H	0.0218091924801404 0.6987936647905190 0.4779645587873032	0.113029
H	0.8837839073015852 0.6947075892125280 0.4687785325522092	0.103643
H	0.1290279973788454 0.6570875291057360 0.3800285988558601	0.107240
H	0.2489279939217796 0.9027287170789049 0.3746309541617614	0.107964
H	0.1135240499263404 0.8925241026105524 0.3716694853622274	0.100828
H	0.8201047377025645 0.8829577739677309 0.7660943310788245	0.100243
H	0.8371359237029120 0.0196726671055717 0.7709793058607314	0.111337
H	0.6995755944732074 0.0218246190388458 0.9781914209297650	0.113540
H	0.6963549815637163 0.8837471586994184 0.9699860162225618	0.105833
H	0.6570125618658547 0.1290010603965407 0.8796234416684918	0.107279
H	0.9026591831450613 0.2488584640680436 0.8746346801388546	0.107308
H	0.8924920323662149 0.1134728844459046 0.8712056967712211	0.101570
H	0.6804533179611733 0.6166112534817039 0.7659309057463529	0.099883
H	0.6624135780007638 0.4801972570666738 0.7716595101189069	0.111190
H	0.8012094155258938 0.4781780684539863 0.9779628819776980	0.112916
H	0.8052902469614087 0.6162101260372055 0.9687900877176382	0.103735
H	0.8429153951173296 0.3709687238149396 0.8800301812877902	0.107313
H	0.5972735287729840 0.2510722985135478 0.8746316063987561	0.107948
H	0.6074800513646903 0.3864780235091089 0.8716679314307906	0.100802
H	0.6166710882697434 0.8186582506788656 0.7654238560696937	0.100408
H	0.4801980604041182 0.8369133505751802 0.7713933136041561	0.111701
H	0.4783004539721800 0.6992414738240901 0.9785356964191719	0.112860
H	0.6162814578136776 0.6951239799284847 0.9694669734007448	0.105459
H	0.3710443751338022 0.6570318824351002 0.8801877807956708	0.107045
H	0.2510886601786148 0.9026716817156607 0.8745550529784696	0.107709
H	0.3865223180246408 0.8924751175732318 0.8716798180528771	0.100751
H	0.8830813646324007 0.6788921377135261 0.7669171730551125	0.099113
H	0.0197510199886118 0.6621886902282009 0.7714790845683248	0.111335
H	0.0218834034033846 0.8009372049966570 0.9778094589886946	0.113139
H	0.8837436297279593 0.8040216800371475 0.9695483246798899	0.104684
H	0.1290247157410282 0.8429791107087548 0.8795463115233397	0.107323
H	0.2489526309942888 0.5972808421054810 0.8747109631345593	0.107460
H	0.1135873498466161 0.6075182821106591 0.8712960270661884	0.101429
H	0.1813390054617370 0.3833221734631578 0.7345651821308906	0.100464
H	0.1630875707314575 0.5197898826400438 0.7286066432920530	0.111729
H	0.3007579850384536 0.5216862973460004 0.5214485523732337	0.112841
H	0.3048862399434878 0.3837159908422936 0.5305273366729244	0.105418
H	0.3429690369991896 0.6289574676056501 0.6198145815169487	0.107065
H	0.0973297388009269 0.7489152118000829 0.6254456836250132	0.107617
H	0.1075239834403241 0.6134827828251177 0.6283204580127379	0.100738
H	0.3211131476529841 0.1169084945519060 0.7331047340802046	0.099015
H	0.3378255269871571 0.9802419913242695 0.7285142626566881	0.111360
H	0.1990738978079219 0.9781284546955744 0.5221894085532238	0.113080
H	0.1959965268071954 0.1162746668687215 0.5304749383772294	0.104522
H	0.1570263112398633 0.8709807366348427 0.6204558875186592	0.107335
H	0.4027218714802869 0.7510459653496990 0.6252909101723967	0.107495
H	0.3924839066132174 0.8864120071376091 0.6287022863167246	0.101465
H	0.3833936947944040 0.3195607024220780 0.7340768855149847	0.099882
H	0.5198039896374221 0.3375937614777663 0.7283385427683114	0.111175
H	0.5218099110429324 0.1987945642249642 0.5220277740547182	0.112963
H	0.3837767307660581 0.1947142688989834 0.5312215749236251	0.103656
H	0.6290279358312071 0.1570856286555928 0.6199719590747045	0.107292
H	0.7489271284134558 0.4027277055010630 0.6253690699468497	0.107957
H	0.6135229631673915 0.3925218379215318 0.6283313236217475	0.100847
H	0.1170396902388895 0.1799030241896278 0.7339074581978757	0.100301
H	0.9803327721214051 0.1628589367906239 0.7290146957581891	0.111450
H	0.9781842888169935 0.3004167728298850 0.5217995807914197	0.113465
H	0.1162542206752449 0.3036451439347200 0.5300181747535082	0.105831
H	0.8709972959463224 0.3429874348259944 0.6203784889343100	0.107251
H	0.7511385738157129 0.0973393517274589 0.6253690849473847	0.107290
H	0.8865228465761208 0.1075062550489228 0.6287949389771981	0.101532
F	0.2529203882882482 0.1779516697387193 0.3636327835824628	-0.476279
F	0.1826115954121511 0.2862190348675084 0.3649374092066794	-0.477447
F	0.3113961557067985 0.2931174919046969 0.3647493142588202	-0.477509
F	0.7068424815106903 0.6886200511178132 0.1353862115824572	-0.477242
F	0.7137232925739284 0.8174077043442726 0.1352094989575326	-0.477196
F	0.8220032736830243 0.7471470940935486 0.1362865440914130	-0.476104
F	0.6826097058738809 0.7862282671495870 0.6351663489488151	-0.477322
F	0.7528784300337332 0.6779185737739840 0.6362799035175103	-0.476339
F	0.8113944060496575 0.7930877312139303 0.6353817299038537	-0.477460
F	0.2068678896377638 0.1886244440667275 0.8646304202481204	-0.477147
F	0.3220434649380574 0.2470917128912400 0.8636571474400961	-0.476175
F	0.2137834872247179 0.3173980476605165 0.8647748523028989	-0.477169
F	0.2491058413946511 0.2532940129190356 0.2564526782025074	-0.467286
F	0.2500977033165604 0.2483588707539818 0.5021642444412941	-0.598110
F	0.7468450989151871 0.7508949785965917 0.2435988758503437	-0.466754
F	0.7514515944130920 0.7498938351963482 -0.0021715434739368	-0.598223
F	0.7490633074712412 0.7530774475425496 0.7435775602567265	-0.467220
F	0.7500204652119544 0.7484876421164857 0.4978388685019623	-0.598169
F	0.2468363229840198 0.2508709747392919 0.7563890953723327	-0.466490
F	0.2514826317863750 0.2499592628905820 0.0021853746741802	-0.597964
Cd	0.2498919018106324 0.2498836667454576 0.1242357445839401	0.771890
Cd	0.7501186089159412 0.7501094712495022 0.3758237312440375	0.772091
Cd	0.7498883319912079 0.7498806792672450 0.8757881192363525	0.772119
Cd	0.2501162561879506 0.2501118863238485 0.6241801622913111	0.772039
B	0.2490958906911346 0.2524609417351159 0.3439281037645532	1.080931
B	0.7475259400233899 0.7509301090288706 0.1561579283148888	1.079442
B	0.7490751998569151 0.7524121735264712 0.6561083982288830	1.080692
B	0.2475536188725344 0.2509063784062840 0.8438172446074429	1.079119
	  	
