#======================================================================

# CRYSTAL DATA

#----------------------------------------------------------------------

data_VESTA_phase_1


_pd_phase_name                         BFFIVE_5_Cu_i
_cell_length_a                         19.73033
_cell_length_b                         19.73027
_cell_length_c                         17.12446
_cell_angle_alpha                      90.00083
_cell_angle_beta                       90.00798
_cell_angle_gamma                      89.95013
_symmetry_space_group_name_H-M         P 1
_symmetry_Int_Tables_number            1

loop_
_symmetry_equiv_pos_as_xyz
   x, y, z

loop_
   _atom_site_label
   _atom_site_fract_x
   _atom_site_fract_y
   _atom_site_fract_z
   _atom_site_charge
F	0.2789567563308551 0.1838894331574287 0.3474476374483294	-0.463471
F	0.1834480375256240 0.2552928111887705 0.3474717913925214	-0.465714
F	0.2933499072734089 0.3020691203630856 0.3459572078603154	-0.467530
F	0.6978837430370128 0.7066500780693801 0.1541046782244747	-0.466814
F	0.7445889699119453 0.8166156931956247 0.1525445748557874	-0.465457
F	0.8161195511850337 0.7210961377899414 0.1525482240915253	-0.462942
F	0.6833854660326537 0.7554487165588802 0.6525224995457727	-0.466216
F	0.7786704498904738 0.6837249231569681 0.6526691447089416	-0.463742
F	0.7933559773540863 0.8019610022496414 0.6539647553990033	-0.467663
F	0.1977863973481017 0.2067784046640820 0.8459366366494003	-0.467105
F	0.3160395196727164 0.2210721157270525 0.8475840604210574	-0.463493
F	0.2446723642762707 0.3166070968474962 0.8474766514183786	-0.465766
F	0.2501786101444859 0.2508577665294698 0.4865553331832963	-0.624924
F	0.2507863580363798 0.2467742466138911 0.2393939917880500	-0.487013
F	0.7490852777880388 0.7498013442739323 0.0134915492199781	-0.625264
F	0.7532542392545554 0.7492415653876924 0.2607031762147394	-0.487670
F	0.7501949957257560 0.7508579519249798 0.5134954288264107	-0.625416
F	0.7507107670479048 0.7468360274791809 0.7605542712188733	-0.486664
F	0.2491057533444336 0.2497683373553199 0.9865930397739049	-0.625024
F	0.2532365372922498 0.2492033595811957 0.7393974572099987	-0.487499
N	0.3539462908654851 0.2456166273196888 0.6078102553118392	-0.218854
N	0.1472098716769914 0.2553608669726660 0.6091833487937781	-0.220046
N	0.2549467394909813 0.3539900885220402 0.6090081829026507	-0.222071
N	0.2452405737737667 0.1472896701017588 0.6085433426602842	-0.220156
N	0.6459977625634657 0.7450557095106927 0.8910247452694380	-0.221788
N	0.8526830881133244 0.7547890898614332 0.8915037111491911	-0.220290
N	0.7446050396421655 0.8527992675950493 0.8908542199223469	-0.220043
N	0.7543776753228368 0.6460676455014930 0.8922141791826147	-0.219185
N	0.6471837731856911 0.7553902058284149 0.3908294603086300	-0.220156
N	0.8539308866524372 0.7456434396026465 0.3921934533310700	-0.219119
N	0.7452109343916102 0.6473105240813768 0.3914848972296496	-0.219948
N	0.7549323071970807 0.8540134008474599 0.3909865607208607	-0.222103
N	0.3527026990427788 0.2547579286316000 0.1085383039596154	-0.220088
N	0.1460028177427388 0.2450574042856146 0.1090036473011395	-0.222110
N	0.2543786869807678 0.1460535593945464 0.1078214533795230	-0.218821
N	0.2446399629737629 0.3527915231737742 0.1091625456255472	-0.220225
C	0.3896232767100996 0.2251637346384117 0.6704319126005573	0.094192
C	0.4600177790305277 0.2237264257111940 0.6700547979144968	-0.183540
C	0.4955038906867640 0.2454820363382491 0.6036823726118465	0.103610
C	0.4571856538459531 0.2664365619099148 0.5389272707272442	-0.181393
C	0.3867586396421775 0.2650510726519987 0.5425287494440010	0.096359
C	0.5701890824482106 0.2466562138504932 0.6033331327922752	0.056521
C	0.6073365461317063 0.1919122753419578 0.6338032523969328	-0.128942
C	0.6777991952151944 0.1931332393759475 0.6343949198752460	-0.126477
C	0.7132251908374166 0.2498371535731852 0.6064041974411752	0.067605
C	0.6761591727043139 0.3049845397999829 0.5769092836093507	-0.122217
C	0.6056749571278608 0.3029567644475575 0.5743499719352759	-0.129705
C	0.1118986409308869 0.2743779850602843 0.6725796651989302	0.095632
C	0.0414998683589128 0.2756366393661543 0.6729117261289386	-0.183949
C	0.0056859895534505 0.2549635980884197 0.6062508230513988	0.104924
C	0.0436813774225341 0.2353876474962128 0.5407003946002450	-0.179749
C	0.1141075837292976 0.2370005367909807 0.5437067864378339	0.097587
C	0.9309534891007297 0.2537477488940192 0.6058225013535874	0.054754
C	0.8936576173034056 0.3084247848108262 0.6361446865781381	-0.130961
C	0.8231756751143439 0.3073997766261180 0.6356792594870331	-0.124736
C	0.7878897842923406 0.2509078962933057 0.6069366781843695	0.067750
C	0.8251429760745695 0.1957766371927636 0.5777141981102601	-0.124282
C	0.8956302625974466 0.1976195779208168 0.5760933466154811	-0.128586
C	0.2734803619837350 0.3895412805088164 0.6724200693321891	0.096190
C	0.2747752633139037 0.4599437423374678 0.6723220174875082	-0.181836
C	0.2545857638927036 0.4955151128393648 0.6053114341031264	0.103428
C	0.2351749912311913 0.4572943174479036 0.5398755729512347	-0.179920
C	0.2368677735551882 0.3869014090551728 0.5432778354309686	0.097274
C	0.2534913562822020 0.5702450417497545 0.6047714175525547	0.054594
C	0.3082133774318109 0.6073534721560594 0.6351858998300445	-0.130374
C	0.3071977757168036 0.6778273244362318 0.6351943402863690	-0.126311
C	0.2506355483598606 0.7133227956845622 0.6068105144481403	0.068474
C	0.1955169906357856 0.6762723984030674 0.5773898494763452	-0.124015
C	0.1973423822466714 0.6057780897827586 0.5752773889577191	-0.128680
C	0.2244839225132707 0.1120167013824498 0.6712678477309112	0.095224
C	0.2229488186416916 0.0416191523354304 0.6714204059282756	-0.181805
C	0.2449295982535636 0.0057564227642903 0.6053289281831952	0.103557
C	0.2659006007299506 0.0437075762913350 0.5403528018135471	-0.179014
C	0.2646909343596943 0.1141464615568042 0.5434685733459454	0.097307
C	0.2462169010755905 0.9310795321013641 0.6050627490484509	0.055630
C	0.1915802491836776 0.8937959270903810 0.6354294951219636	-0.130926
C	0.1928047598769379 0.8233231520041123 0.6354270191620132	-0.125954
C	0.2494594689345421 0.7879988981249538 0.6069831027202162	0.066402
C	0.3045638829683330 0.8252087473294279 0.5777146375322881	-0.123480
C	0.3025369648405565 0.8956972398001017 0.5757372642787335	-0.127479
C	0.6104441675560004 0.7265192276580730 0.8276135774878155	0.096360
C	0.5400426732856617 0.7252394387542566 0.8276996691681210	-0.181596
C	0.5044728907852655 0.7454484644561397 0.8946976562785053	0.103679
C	0.5426877292785404 0.7648462801385887 0.9601389323387441	-0.180515
C	0.6130852084415811 0.7631444520082341 0.9567451455121058	0.097410
C	0.4297412133802150 0.7465395522395366 0.8952190868023238	0.054609
C	0.3926385402466649 0.6918184533643971 0.8647987860308604	-0.130401
C	0.3221636271721617 0.6928278797857758 0.8647827108469618	-0.126133
C	0.2866655925702832 0.7493844573452276 0.8931648690995977	0.067925
C	0.3237148808351013 0.8045048485461417 0.9225845407875651	-0.123269
C	0.3942094325424133 0.8026845962602563 0.9247071723626648	-0.128925
C	0.8879472981308651 0.7755545027079961 0.8287720736980132	0.094481
C	0.9583458979497979 0.7770812006414237 0.8286094025296575	-0.181684
C	0.9942202004979646 0.7550813110769656 0.8946925770286418	0.103507
C	0.9562801876545121 0.7341083277803573 0.9596775126160885	-0.178775
C	0.8858390254321044 0.7353264379965594 0.9565731075644627	0.097143
C	0.0689043757281528 0.7537874980174405 0.8949405461080070	0.055993
C	0.1061762242955633 0.8084339084879399 0.8645636739080299	-0.131144
C	0.1766520732623757 0.8072080114439580 0.8645545925580722	-0.125690
C	0.2119831539505287 0.7505488384515285 0.8929948039134679	0.066389
C	0.1747846166799365 0.6954442332576525 0.9222705763183207	-0.123424
C	0.1042946521248881 0.6974641437750670 0.9242609616517524	-0.127590
C	0.7255679688153044 0.8881230851441515 0.8274681327056068	0.095697
C	0.7243233579291466 0.9585189602537193 0.8271294078366527	-0.183852
C	0.7450362443911163 0.9943277273630816 0.8937816556544834	0.104918
C	0.7646211641484099 0.9563239015186236 0.9593352638735492	-0.179314
C	0.7629943313878994 0.8859017711392123 0.9563248344209271	0.097278
C	0.7462610699948242 0.0690598922463345 0.8941883630981436	0.054515
C	0.6915736647919919 0.1063509635179045 0.8638593274736814	-0.130669
C	0.6925985217668391 0.1768336922245228 0.8643102506653315	-0.124821
C	0.7490975840005117 0.2121165343121816 0.8930427438838983	0.067817
C	0.8042320315785059 0.1748645488665618 0.9222798652199657	-0.124468
C	0.8023921664231082 0.1043810150488088 0.9239113136569213	-0.128486
C	0.7748104656302960 0.6104059221107605 0.8295793549452593	0.094637
C	0.7762429729790481 0.5400091658975619 0.8299345028244719	-0.183630
C	0.7545058836702979 0.5045019341885434 0.8963037272555594	0.103972
C	0.7335742957074851 0.5428012308681994 0.9610772497131438	-0.181843
C	0.7349613401553466 0.6132298320497305 0.9574903451496714	0.096663
C	0.7533363395460473 0.4298160561837147 0.8966359207516427	0.056299
C	0.8080791012605132 0.3926816532300985 0.8661613200706123	-0.128684
C	0.8068663177833778 0.3222190855663984 0.8655726681645592	-0.126242
C	0.7501635625801015 0.2867847360552986 0.8935674199812569	0.067697
C	0.6950211234300562 0.3238483310240194 0.9230680464823490	-0.122243
C	0.6970389086162729 0.3943262341717701 0.9256274046090384	-0.129681
C	0.6118536475278146 0.7744225743326062 0.3274439448515138	0.096007
C	0.5414586656810221 0.7756752915885796 0.3271075767380467	-0.184227
C	0.5056579443418131 0.7549719687689654 0.3937587284333108	0.105275
C	0.5436655947950213 0.7353910892388287 0.4593038527455622	-0.179751
C	0.6140915193893353 0.7370181327704115 0.4563018572276955	0.097458
C	0.4309294740266411 0.7537518656858256 0.3941749997100492	0.055020
C	0.3936339421800852 0.8084312393813454 0.3638521321093766	-0.131185
C	0.3231493823123672 0.8074076904441413 0.3643046000879921	-0.124281
C	0.2878649342210213 0.7509201268008717 0.3930339116444404	0.067389
C	0.3251257959679976 0.6957852491750018 0.4222524210351212	-0.124144
C	0.3956097515813553 0.6976248340249882 0.4238807760912964	-0.128773
C	0.8895858049507667 0.7252139765304989 0.3295552515978485	0.094614
C	0.9599764806733427 0.7237943363044061 0.3299110656820447	-0.183546
C	0.9954884919369548 0.7455166219425693 0.3962934334626778	0.103645
C	0.9571949959755222 0.7664386267491298 0.4610674449491788	-0.181700
C	0.8867696976502852 0.7650574690003126 0.4574764490033828	0.096627
C	0.0701709704515369 0.7466782563098149 0.3966350630237342	0.056577
C	0.1073079261626770 0.6919355343757111 0.3661651131737050	-0.128949
C	0.1777670601106479 0.6931458016884582 0.3655770478486481	-0.126308
C	0.2132014597577623 0.7498587456061657 0.3935648928506941	0.067272
C	0.1761443980944442 0.8049998755661135 0.4230668526108854	-0.121833
C	0.1056670814535663 0.8029794186837065 0.4256308394497590	-0.129806
C	0.7244547588305558 0.6120446621157661 0.3287449467401994	0.094526
C	0.7229266357391581 0.5416453990926094 0.3285855334524001	-0.181968
C	0.7449158710836786 0.5057849481192145 0.3946767978034296	0.103456
C	0.7658829987345123 0.5437246232674116 0.4596661575566394	-0.178936
C	0.7646628014771765 0.6141654124429430 0.4565644264778477	0.097168
C	0.7462093192477453 0.4311043637153745 0.3949284543810577	0.056115
C	0.6915715915226415 0.3938183623940202 0.3645513216507836	-0.131158
C	0.6927978899284153 0.3233451179730076 0.3645491658516958	-0.126001
C	0.7494616009549645 0.2880244221374227 0.3929967726677242	0.066510
C	0.8045661651309547 0.3252341726466845 0.4222722723145450	-0.123397
C	0.8025375583040756 0.3957224924811636 0.4242566774145187	-0.127782
C	0.7734743780950885 0.8895591538356064 0.3275804125604712	0.096058
C	0.7747728301093239 0.9599626338509846 0.3276734366539056	-0.181800
C	0.7545823841464100 0.9955378812801629 0.3946724891751582	0.103764
C	0.7351623066304361 0.9573337607246366 0.4601019980417063	-0.180590
C	0.7368470853755738 0.8869365462377514 0.4567062316467044	0.097495
C	0.7534937144212853 0.0702686440999684 0.3952076947068737	0.054454
C	0.8082092891642969 0.1073755026357170 0.3647977767509945	-0.130557
C	0.8071957201254217 0.1778536296890499 0.3647873963716204	-0.126106
C	0.7506374860721708 0.2133446430665319 0.3931670526043056	0.068135
C	0.6955226504795609 0.1762970892553495 0.4225785796512267	-0.123819
C	0.6973505191501352 0.1058012405035139 0.4246928582329745	-0.128629
C	0.3879849476415252 0.2755244398503011 0.1712626264729206	0.094554
C	0.4583840953435350 0.2770647863501324 0.1714115084899977	-0.181614
C	0.4942350090646918 0.2550768690587098 0.1053186135485308	0.103428
C	0.4562759794879100 0.2340885059746552 0.0403432349134940	-0.179006
C	0.3858356275648145 0.2352961947083196 0.0434614776399373	0.097121
C	0.5689216568710102 0.2537894404616631 0.1050542379057408	0.055805
C	0.6061989275531855 0.3084360518009571 0.1354285115870210	-0.131096
C	0.6766722177280834 0.3072107924462553 0.1354281709912798	-0.125675
C	0.7119916440226057 0.2505486288534273 0.1069864766877371	0.066420
C	0.6747866062810242 0.1954399846312664 0.0777099414959685	-0.123351
C	0.6042994242322220 0.1974616031401512 0.0757284350301387	-0.127530
C	0.1104649102518441 0.2265250164768276 0.1724178000164971	0.096343
C	0.0400574496814810 0.2252403183036838 0.1723281868470560	-0.181787
C	0.0044774827747126 0.2454401918076042 0.1053239776714866	0.103666
C	0.0426787030637492 0.2648402579134754 0.0398844234274053	-0.180512
C	0.1130802710497967 0.2631424802550192 0.0432760111480569	0.097462
C	0.9297442178422224 0.2465333819354025 0.1047833126717003	0.054623
C	0.8926442660576867 0.1918102997456421 0.1351955210096624	-0.130566
C	0.8221709411102746 0.1928215378550174 0.1351980197323860	-0.126279
C	0.7866717235969504 0.2493840363079075 0.1068178241491133	0.068102
C	0.8237178496320920 0.3045008277290963 0.0774015965447281	-0.123259
C	0.8942084258685389 0.3026781949712645 0.0752839225954321	-0.128943
C	0.2748277786512390 0.1103838242601895 0.1704491684469012	0.094654
C	0.2762632624299310 0.0399865365748147 0.1700798710743248	-0.183860
C	0.2545158266108098 0.0044920055660357 0.1037014135504691	0.103745
C	0.2335630100990380 0.0427957992411495 0.0389385207370770	-0.181517
C	0.2349488667571144 0.1132271805664692 0.0425372730621992	0.096254
C	0.2533426076964495 0.9298040153671433 0.1033476453700785	0.056488
C	0.3080938969037770 0.8926639973277298 0.1338213018270376	-0.128705
C	0.3068695633054696 0.8222047755898152 0.1344007804845489	-0.126591
C	0.2501573825455515 0.7867822242687145 0.1064072121113479	0.067692
C	0.1950074381769560 0.8238433297855755 0.0769036271932603	-0.122105
C	0.1970357912145446 0.8943241468803751 0.0743435547090455	-0.129806
C	0.2256117172604675 0.3881161788053006 0.1725475099188975	0.095954
C	0.2243555775105164 0.4585167843986798 0.1728812637922006	-0.184081
C	0.2450402708504008 0.4943190615506209 0.1062212576073078	0.105181
C	0.2646244621435151 0.4563127259375338 0.0406764189851572	-0.179674
C	0.2630048170024732 0.3858866160623526 0.0436884667993675	0.097609
C	0.2462587671770431 0.5690582201410713 0.1058051823062187	0.054501
C	0.1915769560100863 0.6063494709734026 0.1361272457741752	-0.131102
C	0.1925994479623368 0.6768299472611112 0.1356740095669234	-0.124557
C	0.2490905898311205 0.7121109236960917 0.1069357276200573	0.067731
C	0.3042223818299704 0.6748610330178106 0.0777090377354689	-0.124378
C	0.3023876734528511 0.6043767235811455 0.0760823204673399	-0.128346
H	0.3606265965756665 0.2111816550786709 0.7222103051875768	0.102631
H	0.4870300098976100 0.2077645968476907 0.7224438306471500	0.113550
H	0.4820353327302311 0.2824162012484613 0.4851286463307784	0.114239
H	0.3535297368950844 0.2777928823833652 0.4933726679197869	0.117441
H	0.5803867600919409 0.1477094302262726 0.6561939536939679	0.099369
H	0.7061781239006034 0.1503338110355352 0.6581346351764553	0.102666
H	0.7030892688506698 0.3489240073108770 0.5538454139639558	0.101204
H	0.5775444061543373 0.3460761179589190 0.5510455766566335	0.104522
H	0.1414920029647627 0.2877193299353371 0.7240766971316538	0.102971
H	0.0146601814275676 0.2905384574158392 0.7258140097666588	0.114231
H	0.0185330631000738 0.2203091940509508 0.4867399742514481	0.115265
H	0.1471065524101044 0.2254865837567178 0.4939471818581042	0.118570
H	0.9204840609563628 0.3525019970952725 0.6590196996461188	0.100711
H	0.7946805413237039 0.3502378449354219 0.6591023020453699	0.102622
H	0.7983043202004193 0.1519954539915389 0.5541080986187360	0.101962
H	0.9238429881492439 0.1545309997225088 0.5529008488329232	0.105162
H	0.2859329320721030 0.3603386160901084 0.7245179589578392	0.103331
H	0.2893244663569489 0.4869350847585819 0.7252427978569005	0.113526
H	0.2203144941163985 0.4822777422085919 0.4857230866765560	0.113482
H	0.2254816433398670 0.3535754490097993 0.4937984750556057	0.117224
H	0.3522766661443995 0.5803568626675251 0.6578897413741664	0.100823
H	0.3500260041789442 0.7061593363194105 0.6587912737306525	0.102273
H	0.1517130135990046 0.7032310742811017 0.5539862115403074	0.102037
H	0.1542483722132654 0.5777147079509320 0.5519400398867572	0.104669
H	0.2099263569449825 0.1415142550928025 0.7225243528747447	0.101878
H	0.2067474862078660 0.0148610440972210 0.7238661770111900	0.112917
H	0.2818700929508369 0.0185666561871341 0.4867097125365720	0.114975
H	0.2774907568625417 0.1469653948458101 0.4939642581530565	0.117715
H	0.1473526325412565 0.9206393027570818 0.6580357307988237	0.100739
H	0.1500064904534575 0.7948297452541023 0.6589046463654061	0.102725
H	0.3484613825830245 0.7983351006873617 0.5543086075632564	0.101613
H	0.3456017771926606 0.9238889287197473 0.5525041790904657	0.104095
H	0.6396550900361253 0.7140557627154853 0.7755281746039359	0.102815
H	0.5130528786289215 0.7106803945360952 0.7747789689342983	0.113546
H	0.5177002752889009 0.7797038864764486 0.0142861425998310	0.113642
H	0.6464090619491358 0.7745247574633327 0.0062316473873594	0.117247
H	0.4196382221796265 0.6477581524639331 0.8420984252202602	0.100740
H	0.2938322153467938 0.6499970977357273 0.8411867667906120	0.102259
H	0.2967485760135415 0.8483075647516904 0.9459786929732894	0.101881
H	0.4222684522635284 0.8457813408907382 0.9480468266326141	0.104689
H	0.8584369887972482 0.7901048384066374 0.7775134720281067	0.102227
H	0.9850954438782086 0.7932885533246514 0.7761562210897192	0.112937
H	0.9814385935429496 0.7181177248920994 0.0133109237876138	0.114904
H	0.8530414046124702 0.7225101554677906 0.0060775446489915	0.117940
H	0.0793292382111236 0.8526625893581313 0.8419695351713827	0.100832
H	0.2051418925032469 0.8500128027394913 0.8410824535265083	0.102640
H	0.2016692018900765 0.6515460436817215 0.9456753448684545	0.101657
H	0.0761159879004777 0.6543911001955824 0.9475096466271171	0.104112
H	0.7121939269190435 0.8585237647581792 0.7759839629993656	0.102922
H	0.7094037686864091 0.9853639703277012 0.7742304753593747	0.114135
H	0.7797230076648520 0.9814740822809009 0.0132864304569480	0.115176
H	0.7745211939374795 0.8529047823502262 0.0060878982346100	0.118663
H	0.6474902025921710 0.0795229057755044 0.8409926659845796	0.100601
H	0.6497577824906160 0.2053262210351681 0.8408818479789479	0.102651
H	0.8480148766118769 0.2017023355191679 0.9458813752230321	0.102018
H	0.8454806570558612 0.0761669877800973 0.9471131181005317	0.105174
H	0.7887707847462243 0.6394169385515083 0.7777988067353383	0.102328
H	0.7921969818629288 0.5130180637193552 0.7775383621728000	0.113640
H	0.7176129931613781 0.5179279903485418 0.0148661691195337	0.114325
H	0.7222310024305042 0.6464450668339795 0.0066546334222640	0.117354
H	0.8522805092878287 0.4196365144104397 0.8437677007262855	0.099261
H	0.8496649908024283 0.2938407550080073 0.8418342591383815	0.102498
H	0.6510844352938658 0.2969110131633281 0.9461320242854487	0.101186
H	0.6539226325471480 0.4224513659783097 0.9489362071447138	0.104520
H	0.6414510129826650 0.7877825542862656 0.2759615122650749	0.102759
H	0.5146136913123778 0.7905874166085595 0.2742092745899447	0.114156
H	0.5185319480988642 0.7202932931762491 0.5132549961268305	0.115249
H	0.6470907950145983 0.7254933148972967 0.5060639941730828	0.118682
H	0.4204556468401015 0.8525095170333818 0.3409814460235942	0.100615
H	0.2946549849224609 0.8502450766313059 0.3408738058238328	0.102597
H	0.2982840379707056 0.6520049283017640 0.4458446331315211	0.101881
H	0.4238251163172422 0.6545303385563586 0.4470658220130932	0.105182
H	0.8605702372048937 0.7112443076652294 0.2777780363376528	0.102402
H	0.9869657167513576 0.7078470714182523 0.2775188222014434	0.113559
H	0.9820676800233806 0.7823984404644819 0.5148656077296275	0.114246
H	0.8535601614805034 0.7777845142166135 0.5066494326822468	0.117380
H	0.0803452177087514 0.6477293100152884 0.3437777256094988	0.099322
H	0.2061413033850672 0.6503462614174909 0.3418460259222871	0.102636
H	0.2030873864467551 0.8489338767477941 0.4461388373792068	0.101088
H	0.0775413849582929 0.8460939073656227 0.4489362297270824	0.104611
H	0.7099003121662001 0.6415476957807313 0.2774897358870270	0.102241
H	0.7067270492627319 0.5148922386050758 0.2761307609616440	0.112988
H	0.7818625003856365 0.5185831246260303 0.5133063262127181	0.115029
H	0.7774559307288019 0.6469754557624446 0.5060774268518611	0.117879
H	0.6473409948550175 0.4206582072344948 0.3419419192986004	0.100804
H	0.6499985589211726 0.2948501261498035 0.3410650880788273	0.102827
H	0.8484655797822337 0.2983612811986627 0.4456809132962022	0.101547
H	0.8456021754559609 0.4239127729483737 0.4474966071314609	0.104116
H	0.7859298243289516 0.8603428786600390 0.2754926998907545	0.103405
H	0.7893302374169465 0.9869405222585315 0.2747596480037217	0.113480
H	0.7203112770489811 0.9823222023385312 0.5142458818195181	0.113698
H	0.7254513633392011 0.8536314334166151 0.5061959413149714	0.117448
H	0.8522683913085236 0.0803823930119034 0.3420944290134923	0.100717
H	0.8500175055111686 0.2061828644947755 0.3411967866116861	0.102363
H	0.6517225160726956 0.2032570613754545 0.4459648366231030	0.102009
H	0.6542570074336408 0.0777380988932206 0.4480206189173315	0.104667
H	0.3584990983682377 0.2900794859320389 0.2225278262527610	0.102153
H	0.4851594943403259 0.2932705408683828 0.2238616940066497	0.112934
H	0.4814107216320171 0.2181022397970896 0.9867003236655008	0.115032
H	0.3530135747292180 0.2224812785214711 0.9939584499946069	0.117894
H	0.5793503965860748 0.3526638563200876 0.1580316068673881	0.100772
H	0.7051671197238034 0.3500150480785662 0.1589096898234621	0.102614
H	0.7016622178565366 0.1515393619837178 0.0543085678939954	0.101557
H	0.5761036412023649 0.1543948563978697 0.0524944172510537	0.104073
H	0.1396763965018819 0.2140603773202163 0.2245098299917659	0.103361
H	0.0130729863039273 0.2106886564330607 0.2252478950109531	0.113458
H	0.0176826707259333 0.2796954320787968 0.9857279888412862	0.113588
H	0.1463908137987187 0.2745206242377600 0.9937884463753933	0.117240
H	0.9196520234427422 0.1477484054980885 0.1579006852767280	0.100869
H	0.7938427624115717 0.1499925207730995 0.1587973104821959	0.102358
H	0.7967492019515272 0.3483029886695203 0.0539996068181436	0.101817
H	0.9222703746318627 0.3457712458487102 0.0519536340859151	0.104663
H	0.2888118336464013 0.1393833242163303 0.2222366269251003	0.102433
H	0.2922217621995608 0.0129833082242488 0.2224740124916958	0.113654
H	0.2175899988998952 0.0179380084438946 0.9851308043250014	0.114222
H	0.2222028524441287 0.1464556564755716 0.9933807043982179	0.117369
H	0.3522999299251843 0.9196231121445883 0.1562166791783341	0.099245
H	0.3496732708619338 0.7938259784105510 0.1581419238255619	0.102665
H	0.1510668055947461 0.7969131348839633 0.0538284462352280	0.101196
H	0.1539192144064968 0.9224611565567210 0.0510424650763673	0.104464
H	0.2122599691611053 0.3585312335474480 0.2240403725936453	0.102873
H	0.2094474240720137 0.4853699769956229 0.2257756493989862	0.114138
H	0.2797130385312315 0.4814479614076487 0.9867179874299394	0.115279
H	0.2745258324630765 0.3528850138411159 0.9939291795021994	0.118576
H	0.1475033349380585 0.5795171572812051 0.1590008202146030	0.100735
H	0.1497628326646475 0.7053217348693551 0.1591027725506426	0.102612
H	0.3480018502129980 0.7017028527162391 0.0541120949384518	0.101915
H	0.3454769820504577 0.5761633327834816 0.0528952797955727	0.105170
Cu	0.2505625013442079 0.2505475261298906 0.6042299290125970	0.699808
Cu	0.7494293223153385 0.7494406280233916 0.8957439987605181	0.699552
Cu	0.7505515700960075 0.7505667801270719 0.3957048863801244	0.699745
Cu	0.2494384673427160 0.2494347545257470 0.1042414851350462	0.699850
B	0.2516651360127278 0.2470177542751717 0.3252798396703466	1.066253
B	0.7529404580962265 0.7483579859797872 0.1746621080723857	1.065749
B	0.7515824357183306 0.7469890157953768 0.6747708004638238	1.067124
B	0.2529141833730362 0.2483740503269538 0.8253561730558410	1.066229
	  	
