#======================================================================

# CRYSTAL DATA

#----------------------------------------------------------------------

data_VESTA_phase_1


_pd_phase_name                         BFFIVE_7_Zn
_cell_length_a                         19.32326
_cell_length_b                         19.32658
_cell_length_c                         8.86410
_cell_angle_alpha                      90.43936
_cell_angle_beta                       89.56781
_cell_angle_gamma                      90.02180
_symmetry_space_group_name_H-M         P 1
_symmetry_Int_Tables_number            1

loop_
_symmetry_equiv_pos_as_xyz
   x, y, z

loop_
   _atom_site_label
   _atom_site_fract_x
   _atom_site_fract_y
   _atom_site_fract_z
   _atom_site_charge
C	0.6563160348583476 0.8641410871310284 0.6793242587837116	0.096448
C	0.6064244668536022 0.9160004692355379 0.6845306279711612	-0.181372
C	0.5846219724173887 0.8944956205408819 0.4223400353109400	-0.176438
C	0.6353956449484585 0.8438265322832892 0.4253659287232849	0.096351
C	0.8426748160715851 0.6371929510878237 0.6800703961583500	0.096373
C	0.8925861250098133 0.5854381155846836 0.6852388345020423	-0.181547
C	0.9164805958202782 0.6056400976249213 0.4233044298310241	-0.177765
C	0.8657206012795733 0.6564091854814564 0.4265177105043062	0.093907
C	0.6370050953378301 0.6561810155538961 0.6832167809421510	0.093602
C	0.5852310440490177 0.6062109202706027 0.6891017716207978	-0.180963
C	0.6038326737307881 0.5848963706624701 0.4250200646988033	-0.175526
C	0.6545295051569356 0.6357126764162853 0.4272906778355653	0.090903
C	0.8642020681121724 0.8419717869573381 0.6756298157300317	0.096337
C	0.9162385666460715 0.8916745588028792 0.6801505409131312	-0.180707
C	0.8927313435368480 0.9166577071671704 0.4209106342663351	-0.177041
C	0.8417843351875284 0.8660814520240645 0.4247668818675510	0.094703
C	0.3419548822717569 0.3642158550645552 0.3243893461176480	0.096495
C	0.3916480852981637 0.4162575857282992 0.3199096341886159	-0.181021
C	0.4166423143815044 0.3927461188929136 0.5791674833069633	-0.177088
C	0.3660763245928508 0.3417940269623894 0.5752324947015715	0.094873
C	0.1561316165628564 0.1369977164981388 0.3167861334296747	0.094316
C	0.1061666758180855 0.0852232106106763 0.3109052564133283	-0.181123
C	0.0848673446084066 0.1038501412088928 0.5749692709430904	-0.175459
C	0.1356770076961097 0.1545494827023110 0.5726960476808887	0.091384
C	0.3641561859539827 0.1563132289198252 0.3206097555537856	0.096776
C	0.4160209816814641 0.1064313934120785 0.3154333381885237	-0.182078
C	0.3944887957763143 0.0846467093495821 0.5776100162159459	-0.176322
C	0.3438147268317887 0.1354116534960341 0.5745574099742572	0.096706
C	0.1371575868879130 0.3426728269536813 0.3199795100778838	0.096601
C	0.0854080578684797 0.3925886154231950 0.3148272165995158	-0.181490
C	0.1056394802017889 0.4164552311384920 0.5767880859105354	-0.178080
C	0.1563995651655639 0.3656948556763287 0.5735444524373569	0.094158
C	0.4327677734840711 0.0692134443130519 0.4459232017814769	0.139651
C	0.4868143658165293 0.0166286831190297 0.4396583425221895	-0.120390
C	0.0679273252694133 0.4307192101933365 0.4455116346079403	0.140057
C	0.0138541573818473 0.4831888082257643 0.4397521841136608	-0.121839
C	0.4302597290101230 0.4321853826881650 0.4494963190919660	0.140193
C	0.4825161970228473 0.4864961890101759 0.4439147933140575	-0.121093
C	0.0691201045857578 0.0670503564740152 0.4420455607242442	0.138708
C	0.0163573865438829 0.0131832325145933 0.4355968428247993	-0.119720
C	0.5670490403730027 0.5691570790802510 0.5579596356979828	0.138890
C	0.5131892455544741 0.5163927718692941 0.5644496778215836	-0.119831
C	0.9321731721393997 0.9302869299169989 0.5505943919379783	0.139792
C	0.9864886170488033 0.9825329279589891 0.5561694059143837	-0.120853
C	0.5691908613926299 0.9327623346728389 0.5540593759281804	0.139325
C	0.5166134613112865 0.9868182986025269 0.5603106679043722	-0.119933
C	0.9307283848286382 0.5679363760134182 0.5545919127429261	0.140094
C	0.9831805864343952 0.5138658838858027 0.5603555957415965	-0.121195
H	0.6858332054893838 0.8482985412869067 0.7782406821233697	0.110950
H	0.5964748048601743 0.9435656279910125 0.7902918369647182	0.113493
H	0.5566574130625320 0.9031935088085544 0.3179462818643554	0.114196
H	0.6490461663485448 0.8140144981398632 0.3246595032351515	0.098158
H	0.8125905852761786 0.6536438101074357 0.7790570848675740	0.110325
H	0.9019476573671366 0.5585216778100149 0.7909358578665666	0.113713
H	0.9453937155647557 0.5966784984701412 0.3191111303013079	0.114284
H	0.8534313223479360 0.6863012471381805 0.3262272645102141	0.098799
H	0.6539846215347037 0.6853810360205441 0.7826114502119260	0.112033
H	0.5589268582911262 0.5959347128411978 0.7959585952560675	0.114184
H	0.5941770149470292 0.5571466243486889 0.3199095927052779	0.113892
H	0.6832021880311986 0.6495780226202610 0.3254129612687843	0.099173
H	0.8489447786729685 0.8115029829378635 0.7739453993453047	0.110868
H	0.9445333778198662 0.9005088271407956 0.7846008572052232	0.113402
H	0.9005054194890899 0.9459981199944104 0.3177902445061389	0.114254
H	0.8102771101251665 0.8543564855525907 0.3262629049093317	0.098582
H	0.3114788640325463 0.3489543199672764 0.2260739454384109	0.110822
H	0.4004713858102632 0.4445506554325400 0.2154780037219425	0.113473
H	0.4459916015460212 0.4005416993872932 0.6822948398215020	0.114193
H	0.3543770870855418 0.3102896122990970 0.6737244141022212	0.098372
H	0.1853330082687353 0.1539563815318106 0.2173978547868538	0.111870
H	0.0958936361103299 0.0589068465889182 0.2040705086229064	0.114202
H	0.0571391689853652 0.0942027537795141 0.6800992368425189	0.113794
H	0.1495431665011013 0.1832166664484741 0.6745780165881330	0.099150
H	0.3483148643756601 0.1858345684016475 0.2217167749517223	0.110876
H	0.4435964989394185 0.0964874840277269 0.2096869458530002	0.113829
H	0.4031917901515052 0.0566991003068035 0.6820055161386714	0.113946
H	0.3140015816621062 0.1490529358837256 0.6752639404526263	0.097984
H	0.1535958458684003 0.3125994441174126 0.2210015655736990	0.110323
H	0.0584845865197443 0.4019541966198878 0.2091404184224757	0.113758
H	0.0966775314376059 0.4453686567587737 0.6809909891193687	0.114326
H	0.1862878415364391 0.3534038330497407 0.6738367228368145	0.098660
H	0.5043761390223024 0.0020484100016982 0.3261151955230184	0.100654
H	0.9970397349891807 0.4970136544342931 0.3263391946294165	0.100886
H	0.4961520285516566 0.5042401001483107 0.3306119993565989	0.100175
H	0.0016284379612469 0.9966371043486381 0.3220235023449755	0.100152
H	0.4966533989488003 0.5016754806717023 0.6780307288814690	0.100125
H	0.0042387999509720 0.9961797035239547 0.6694536027905634	0.100228
H	0.5020422278615154 0.0043754129482063 0.6738733629373510	0.100550
H	0.9969904084885566 0.4970335128138059 0.6737448417066884	0.100735
Zn	0.2499291746174357 0.2494531461953130 0.4289418893809122	0.685360
Zn	0.7494730814929270 0.7499316329159238 0.5710503146867577	0.685344
B	0.2499722188542685 0.2510471279692110 0.8579034539125692	1.051562
B	0.7512177950763512 0.7499418846660397 0.1418995757754053	1.051831
F	0.2512082641242334 0.2494228298282775 0.2114277967858926	-0.577229
F	0.2480488198892323 0.2503396604527304 0.6907277713568115	-0.456755
F	0.7494245447579717 0.7512117187095757 0.7884564064634851	-0.577054
F	0.7503027156034880 0.7480815953908798 0.3089918083035427	-0.456991
F	0.2006174355337800 0.2023189053441346 0.9053936944725388	-0.460993
F	0.2335280072679232 0.3188286355780253 0.9034237413411830	-0.461206
F	0.3177553768084364 0.2323057341425477 0.8969826684067489	-0.464869
F	0.7324183069819822 0.8176456369779009 0.1026268470246293	-0.464711
F	0.8191213639684183 0.7336333989017070 0.0968578974613577	-0.461624
F	0.7026402099275534 0.7004305997605870 0.0942916194710338	-0.461260
N	0.3288723396397785 0.1707808934196307 0.4485964279432872	-0.218865
N	0.1717567038938584 0.3290694138069408 0.4476859705412594	-0.218564
N	0.3290658259245141 0.3278896902983771 0.4504589739742887	-0.216409
N	0.1708646347586898 0.1708408492129710 0.4460549238331007	-0.217971
N	0.6708389550750309 0.6709165982847762 0.5539248627163267	-0.216979
N	0.8278914453628858 0.8290793283434341 0.5495245883600776	-0.216441
N	0.6707702687747560 0.8288674221565470 0.5513179919157303	-0.218920
N	0.8290814420233338 0.6717891355448110 0.5523622292206900	-0.218412
	  	
