#======================================================================

# CRYSTAL DATA

#----------------------------------------------------------------------

data_VESTA_phase_1


_pd_phase_name                         BFFIVE_2_Ni
_cell_length_a                         13.43736
_cell_length_b                         13.43514
_cell_length_c                         9.30049
_cell_angle_alpha                      89.74854
_cell_angle_beta                       89.99512
_cell_angle_gamma                      90.07821
_symmetry_space_group_name_H-M         P 1
_symmetry_Int_Tables_number            1

loop_
_symmetry_equiv_pos_as_xyz
   x, y, z

loop_
   _atom_site_label
   _atom_site_fract_x
   _atom_site_fract_y
   _atom_site_fract_z
   _atom_site_charge
C	0.5151278055103454 0.6891892752886204 0.1190935462729970	0.079141
C	0.5162130365527865 0.7922293094520629 0.1277670282869438	-0.162310
C	0.4824938024307074 0.3100973293745704 0.1196386234824486	0.081691
C	0.4808707304868665 0.2069790581936197 0.1277003355634931	-0.162654
C	0.3108964815842912 0.5171660456608671 0.1184378148522291	0.078519
C	0.2078268055604376 0.5185704679048682 0.1270626842405221	-0.161616
C	0.6899017769162926 0.4849726897124648 0.1202426340177470	0.079999
C	0.7929880156270841 0.4835703505808153 0.1284328758918641	-0.161980
C	0.4826209155057476 0.6958669383239295 0.8718145094400667	0.077407
C	0.4813379452276920 0.7990032692571798 0.8731303896371164	-0.165900
C	0.5196530652705476 0.3052458931773989 0.8738148348162179	0.079471
C	0.5203855043898059 0.2021043589255208 0.8744364793773576	-0.166643
C	0.6956188892539890 0.5169939475632819 0.8726907192122034	0.077402
C	0.7987736482015275 0.5180790832362443 0.8734790402654478	-0.166382
C	0.3048908319513642 0.4797152171157329 0.8729505790300652	0.078298
C	0.2017414606049543 0.4789046583791840 0.8741366156130441	-0.165999
C	0.5000729069851336 0.1505895032845857 0.0034539760195757	0.168204
C	0.4994848122924435 0.0454361811177458 0.0066157064499866	-0.095090
C	0.4990824056525984 0.8495549930902072 0.0030187220563447	0.166375
C	0.4993832507878231 0.9546822424577640 0.0065448926221884	-0.092752
C	0.8498569068876719 0.5004981818831484 0.0034300111356479	0.168103
C	0.9549727439181430 0.5000405843314968 0.0066341764539215	-0.094702
C	0.1508371509472873 0.4993368096788068 0.0030914837691660	0.166987
C	0.0457168734164863 0.4999016304745331 0.0065610379813857	-0.093421
H	0.5240694699771203 0.6383872296393744 0.2112435705835519	0.127815
H	0.5301180899218327 0.8280804955777594 0.2305316138733224	0.130053
H	0.4719225270848935 0.3601527123784731 0.2115708729553424	0.128738
H	0.4648092578278716 0.1702391040515094 0.2296414075934090	0.129721
H	0.3614940121813195 0.5274812313275359 0.2100990991352959	0.128383
H	0.1716833478829100 0.5343887429693592 0.2291562744566643	0.129620
H	0.6396318250497013 0.4758203881822630 0.2126840793941456	0.128512
H	0.8292786807500284 0.4693839391434226 0.2311370910125638	0.130109
H	0.4709885734939510 0.6537448974716539 0.7732260410627007	0.111288
H	0.4664721384366260 0.8403157607012268 0.7745664239760469	0.130037
H	0.5332236894946875 0.3485220982241277 0.7763783385919404	0.112395
H	0.5367006025134180 0.1615572851460766 0.7762498380477767	0.129316
H	0.6530009221937226 0.5279322907684276 0.7741512144077091	0.111211
H	0.8396459171779946 0.5324865947522114 0.7745482993701895	0.130297
H	0.3474736859286427 0.4655705524320147 0.7754009213436309	0.112308
H	0.1607085803213761 0.4622903960571102 0.7762592816574254	0.129465
Ni	0.5002500306781557 0.4999914061429215 0.9960856307522280	0.410578
B	0.4994332216524203 0.5011519541886164 0.5555697493791195	1.051658
F	0.4985193011124172 0.5007319899963706 0.7145204229879020	-0.477698
F	0.4998717702818671 0.4995842108730938 0.2363723522635836	-0.598598
F	0.4741161163076090 0.5987009931887345 0.5137380059690915	-0.470751
F	0.4281838711801323 0.4302527054548775 0.5136637543829149	-0.472366
F	0.5971022976775653 0.4749439703614067 0.5158342926050522	-0.472767
N	0.5009334989747880 0.3578103272251883 0.9940152457534116	-0.146336
N	0.4993535192606704 0.6423841155540267 0.9925873667619395	-0.144755
N	0.6425826494355980 0.5008216368510450 0.9937722878421378	-0.146541
N	0.3580147032406479 0.4988749838764991 0.9928178973529385	-0.143839
	  	
