#======================================================================

# CRYSTAL DATA

#----------------------------------------------------------------------

data_VESTA_phase_1


_pd_phase_name                         BFFIVE_5_Zn_i
_cell_length_a                         19.99877
_cell_length_b                         19.99819
_cell_length_c                         16.62518
_cell_angle_alpha                      90.00623
_cell_angle_beta                       90.00631
_cell_angle_gamma                      89.89745
_symmetry_space_group_name_H-M         P 1
_symmetry_Int_Tables_number            1

loop_
_symmetry_equiv_pos_as_xyz
   x, y, z

loop_
   _atom_site_label
   _atom_site_fract_x
   _atom_site_fract_y
   _atom_site_fract_z
   _atom_site_charge
F	0.2769826990039183 0.1840433638806988 0.3597529817008059	-0.457617
F	0.1855263319713709 0.2579003556384394 0.3600687634955758	-0.459090
F	0.2950906667596228 0.2998447454841540 0.3641683509632526	-0.461183
F	0.7001816116699133 0.7048539899587110 0.1358227268625192	-0.461626
F	0.7419709422034388 0.8144955429595221 0.1399885125173167	-0.459552
F	0.8159564811374775 0.7230790225330631 0.1403253527207032	-0.457698
F	0.6853926533160236 0.7577538634208171 0.6399548291691282	-0.458878
F	0.7770216978054902 0.6841182458524617 0.6403228918927597	-0.457298
F	0.7948363865757260 0.7999795794890403 0.6360468042300941	-0.460963
F	0.2001995332656982 0.2049877395274021 0.8641401174934573	-0.460965
F	0.3160529197503558 0.2229059990069691 0.8598240635783999	-0.457595
F	0.2423088207611048 0.3144662670632632 0.8599999543027236	-0.459091
F	0.2502718185930015 0.2448849966197406 0.4725527685791300	-0.446706
F	0.2509076984193442 0.2518970361509840 0.2173978089841160	-0.571025
F	0.7551639160266272 0.7498420306679991 0.0274993178023424	-0.446962
F	0.7481278982687424 0.7490647208934990 0.2826342132199491	-0.571299
F	0.7502595056210297 0.7449334947630651 0.5275330192173597	-0.447512
F	0.7508136829719190 0.7518334089987556 0.7826383700767879	-0.571015
F	0.2551194779654707 0.2498156732951698 0.9725603007645472	-0.447510
F	0.2481555090786057 0.2491247224574832 0.7174032601194509	-0.571206
N	0.3578932167519653 0.2490894178102377 0.5965040648335972	-0.220275
N	0.1409660238011094 0.2516511262552021 0.5948804965833274	-0.219430
N	0.2506446935828299 0.3575220551180824 0.5948744115716059	-0.219775
N	0.2483631371505559 0.1405449060555411 0.5972059011822837	-0.220391
N	0.6424841744363369 0.7493480683910929 0.9051594421135117	-0.219945
N	0.8594651449783852 0.7516340070764135 0.9028058962235961	-0.220086
N	0.7483624768917759 0.8590306480675960 0.9051396570379697	-0.219637
N	0.7509307708531799 0.6421092990634676 0.9035247933414746	-0.220586
N	0.6409699321554272 0.7516294833621644 0.4051194692389977	-0.219465
N	0.8578834597350486 0.7490894701935742 0.4034957386336330	-0.220112
N	0.7483708386463944 0.6405428857922674 0.4027830737797133	-0.220246
N	0.7506414855132315 0.8574995353009390 0.4051407572609029	-0.219934
N	0.3594579014003956 0.2516374016189531 0.0972291297182087	-0.220357
N	0.1424947305784111 0.2493707346606386 0.0948948372239925	-0.219917
N	0.2509029678352334 0.1421315489942148 0.0965309403460850	-0.219986
N	0.2483557232578057 0.3590416655473089 0.0948984134713468	-0.219668
C	0.3896058819763024 0.2292064388439094 0.6638490778058438	0.097384
C	0.4590488042980838 0.2278286706655691 0.6692628454472020	-0.181098
C	0.4977588645398570 0.2491983450191374 0.6036849032028402	0.102399
C	0.4636758978848209 0.2708614661115096 0.5345609431885842	-0.187346
C	0.3941776468157814 0.2694885121014692 0.5330291122358718	0.097142
C	0.5714591432233911 0.2495132362580446 0.6070362757377342	0.056644
C	0.6069743534563554 0.1948484168826694 0.6386701046656297	-0.132144
C	0.6765372579628051 0.1949160007061880 0.6402767884075725	-0.126600
C	0.7126496881108554 0.2503965860621612 0.6121792062446716	0.067050
C	0.6771788846486251 0.3055351930545069 0.5817872788427713	-0.121770
C	0.6076735879353046 0.3047317011635233 0.5783016743775303	-0.128185
C	0.1098333339732484 0.2705778587980905 0.6630072761057977	0.095917
C	0.0404934892458965 0.2724349966791123 0.6692975263571085	-0.183393
C	0.0011856846695674 0.2521943124682733 0.6037293467701161	0.104539
C	0.0345448160886325 0.2320169827113251 0.5335204530810199	-0.188636
C	0.1040386340118866 0.2331931995764421 0.5311386932069962	0.097059
C	0.9275161088373993 0.2515393973993266 0.6078687106860878	0.055745
C	0.8918886908521327 0.3061348751358646 0.6394488848917870	-0.130754
C	0.8223108739055495 0.3058638590698998 0.6407478597653264	-0.126455
C	0.7863908733897247 0.2503030832330740 0.6125528735099903	0.067449
C	0.8220813243722045 0.1950759541728882 0.5827412897916844	-0.121977
C	0.8915559377512224 0.1960956549150893 0.5794327498100780	-0.127433
C	0.2695959734582533 0.3889550152193709 0.6627480300688083	0.097162
C	0.2712584399524097 0.4583389648941288 0.6684530946974239	-0.181813
C	0.2509724784038393 0.4973787370334737 0.6026104558775440	0.104794
C	0.2303564112586652 0.4636585221741454 0.5328197039706946	-0.188963
C	0.2316299469518530 0.3941435001597348 0.5311017031754456	0.098453
C	0.2506061538845581 0.5710661336198687 0.6064452552533784	0.055911
C	0.3052173933011469 0.6062659981492529 0.6384107385199067	-0.131118
C	0.3051119486725631 0.6758264857735504 0.6402896722861909	-0.127341
C	0.2496525207629151 0.7122157114989193 0.6123000118535289	0.068267
C	0.1944654875927593 0.6769713741341787 0.5818602468241326	-0.122244
C	0.1953395473730302 0.6074879239073796 0.5779589991885058	-0.128315
C	0.2284398031341447 0.1093236598409334 0.6648505791460637	0.099001
C	0.2267022707016362 0.0399344983062827 0.6708305900315729	-0.184865
C	0.2479206681866635 0.0007445635607258 0.6055290264996233	0.103622
C	0.2692616738391971 0.0342529746595053 0.5359782690458970	-0.188953
C	0.2681665026663851 0.1037357982901047 0.5338611826615693	0.096673
C	0.2484844739311406 0.9270667181368767 0.6091358471838865	0.055435
C	0.1938377382800535 0.8914837723489289 0.6404122959159165	-0.130661
C	0.1940950848633862 0.8219078385060098 0.6412399580478367	-0.125413
C	0.2496765651829293 0.7859384690468572 0.6128980393394254	0.067574
C	0.3048956564468834 0.8215083537910549 0.5832013920520467	-0.121649
C	0.3038940002507274 0.8909969957597246 0.5804053298743438	-0.129277
C	0.6110671050707034 0.7303992498706626 0.8372668430181690	0.097773
C	0.5416806339120921 0.7287388286184742 0.8315544171660032	-0.182062
C	0.5026363341937562 0.7490244763334242 0.8973882529764834	0.104733
C	0.5363459310471270 0.7696412673616295 0.9671878959065888	-0.188717
C	0.6058557264473617 0.7683654473898788 0.9689223710369611	0.098366
C	0.4289472955276560 0.7493906467191859 0.8935373743634610	0.056000
C	0.3937507412999103 0.6947834926035833 0.8615665655175545	-0.131161
C	0.3241865403595372 0.6948855598033844 0.8596808587432164	-0.127040
C	0.2877936374389211 0.7503407986725753 0.8876720235943389	0.068045
C	0.3230373382116046 0.8055301182239071 0.9181125957382767	-0.121815
C	0.3925196581079455 0.8046544913608561 0.9220139757950260	-0.128675
C	0.8906802762545687 0.7715632796193116 0.8351581191022845	0.098812
C	0.9600662639102093 0.7732977374045386 0.8291704747695159	-0.184962
C	0.9992616700553385 0.7520697706340808 0.8944540705559942	0.103812
C	0.9657590263633823 0.7307300235164370 0.9640078171189292	-0.189076
C	0.8962822142850410 0.7318292877932810 0.9661405995484935	0.096502
C	0.0729469101962381 0.7514981772827981 0.8908381796305388	0.055427
C	0.1085289558347056 0.8061476314882768 0.8595645436067698	-0.130930
C	0.1781009995663861 0.8058930755485862 0.8587324933558381	-0.124980
C	0.2140696410011456 0.7503138203960791 0.8870766827009481	0.067194
C	0.1785060565712241 0.6950950958131312 0.9167731126866626	-0.121406
C	0.1090177975714740 0.6960921953299036 0.9195671380457622	-0.129161
C	0.7294326261357756 0.8901537008841529 0.8370093179965880	0.096322
C	0.7275674897236226 0.9594899542801167 0.8307049294906099	-0.183509
C	0.7478019081905275 0.9988077013944443 0.8962690434883593	0.104568
C	0.7679754420699615 0.9654585483587959 0.9664834703094565	-0.188570
C	0.7668062343146240 0.8959717201269204 0.9688740282806583	0.097196
C	0.7484451103221309 0.0724826323553658 0.8921107102953060	0.055655
C	0.6938501897235980 0.1081047062310317 0.8605309547319523	-0.130979
C	0.6941248756927170 0.1776794518637657 0.8592328687864166	-0.126232
C	0.7496791355360263 0.2136077820297952 0.8874299511649438	0.067559
C	0.8049076108713759 0.1779183176338150 0.9172334415921443	-0.122219
C	0.8039047558262542 0.1084419339672215 0.9205477870900273	-0.127486
C	0.7708126125712060 0.6103946555336860 0.8361791342065591	0.097745
C	0.7721808918022287 0.5409526613630968 0.8307489653040427	-0.181213
C	0.7508013017329125 0.5022397905119059 0.8963180149914323	0.102683
C	0.7291353722667301 0.5363198177131516 0.9654437448287378	-0.187715
C	0.7305232563737459 0.6058202717246209 0.9669856725545558	0.097498
C	0.7504731509554164 0.4285355472667446 0.8929577986551844	0.056604
C	0.8051464154605926 0.3930226787770126 0.8613222695330052	-0.132365
C	0.8050693684275468 0.3234604783564992 0.8597157034224215	-0.126440
C	0.7495882853933804 0.2873369316494377 0.8878044542449181	0.067022
C	0.6944518308202322 0.3228209851692533 0.9181957673923494	-0.121545
C	0.6952547516033032 0.3923271417242762 0.9216897506263791	-0.128128
C	0.6098335942266667 0.7705494643782422 0.3369971266536523	0.096106
C	0.5404944150405492 0.7724106848495614 0.3306938644644520	-0.183231
C	0.5011958429551120 0.7521807415581819 0.3962600537526629	0.104242
C	0.5345592498735618 0.7320163579958421 0.4664704005818816	-0.188414
C	0.6040481365610531 0.7331873105663473 0.4688604726165730	0.097092
C	0.4275140116261316 0.7515350745453561 0.3921107790557965	0.055776
C	0.3918819321511806 0.8061261900457960 0.3605345279824370	-0.130577
C	0.3223063424141494 0.8058590064947035 0.3592416457434722	-0.126631
C	0.2863853970024498 0.7503048799929426 0.3874366826711323	0.067588
C	0.3220782278676310 0.6950802416376701 0.4172409191152936	-0.122102
C	0.3915543857494064 0.6960848616973626 0.4205520154025316	-0.127467
C	0.8895921122582581 0.7292107718809219 0.3361485589853817	0.097262
C	0.9590343770691108 0.7278355225708972 0.3307246921909534	-0.181087
C	0.9977526071507167 0.7492023581799645 0.3963031770724869	0.102459
C	0.9636839334977044 0.7708745186347125 0.4654348373913814	-0.187638
C	0.8941779622429549 0.7694947047071491 0.4669621905607639	0.097189
C	0.0714537158609599 0.7495215192353000 0.3929554751731270	0.056511
C	0.1069624447448985 0.6948419471274616 0.3613163620074986	-0.132136
C	0.1765239503282889 0.6949189802827026 0.3597139415538195	-0.126697
C	0.2126561413163605 0.7503997875085066 0.3878086397573830	0.067036
C	0.1771762877929750 0.8055406389010891 0.4182037996970462	-0.121727
C	0.1076730019456214 0.8047415919792656 0.4217000777037621	-0.127959
C	0.7284442939074759 0.6093108264911669 0.3351396538209016	0.098903
C	0.7267012320463585 0.5399257276747057 0.3291476766771832	-0.185608
C	0.7479194639247271 0.5007399557624344 0.3944511397792649	0.103938
C	0.7692664944579827 0.5342575546716765 0.4640050295131914	-0.189005
C	0.7681738585688374 0.6037419707680878 0.4661316269421166	0.096825
C	0.7484793426617484 0.4270545914204311 0.3908421535223577	0.055407
C	0.6938236581948061 0.3914656359591816 0.3595688533590710	-0.130911
C	0.6940859065736117 0.3218905868683589 0.3587381999586189	-0.125250
C	0.7496681930899683 0.2859256569105916 0.3870827708194255	0.067502
C	0.8048945243281271 0.3215034932012527 0.4167839569123680	-0.121718
C	0.8038917518736790 0.3909911140653198 0.4195801144182461	-0.129235
C	0.7695800269926422 0.8889220001232593 0.3372623414158499	0.097890
C	0.7712434576116876 0.9583043651038600 0.3315472672464265	-0.182153
C	0.7509667228525928 0.9973621649247877 0.3973859775702500	0.104687
C	0.7303595471205765 0.9636579379196581 0.4671745217351947	-0.188933
C	0.7316359180443011 0.8941471788529355 0.4689050613266998	0.098497
C	0.7505999483656914 0.0710509778096418 0.3935337562542517	0.055872
C	0.8052032335789014 0.1062455027265830 0.3615695249806786	-0.131160
C	0.8050956831581669 0.1758074858491659 0.3596865570525895	-0.127195
C	0.7496400308824781 0.2122051320782088 0.3876766180934731	0.068010
C	0.6944628263282672 0.1769610683497569 0.4181091480591462	-0.121645
C	0.6953393627380409 0.1074816198938967 0.4220157217719093	-0.128592
C	0.3906873501839757 0.2715588852252483 0.1648693301707831	0.099254
C	0.4600712869885699 0.2732989814577707 0.1708520608036298	-0.185470
C	0.4992508069792285 0.2520770505637436 0.1055424175472266	0.103791
C	0.4657308211193025 0.2307339952242901 0.0359882759392071	-0.188900
C	0.3962497079921403 0.2318278537829918 0.0338735226709406	0.096725
C	0.5729378096610961 0.2515192446493532 0.1091440769505110	0.055419
C	0.6085299105775299 0.3061711800339280 0.1404178260711979	-0.130669
C	0.6781031687853278 0.3059150683592796 0.1412474626049280	-0.125421
C	0.7140696475265026 0.2503253812991953 0.1128957240765143	0.067638
C	0.6784899472861325 0.1951033357677151 0.0831983108337864	-0.121729
C	0.6089998714855578 0.1961035332554620 0.0804041425325426	-0.129398
C	0.1110662459971721 0.2304147065381449 0.1627628689532151	0.097789
C	0.0416780638090317 0.2287467678924815 0.1684541040177240	-0.181912
C	0.0026324794672318 0.2490299224285457 0.1026148322456330	0.104443
C	0.0363446210150318 0.2696545070091426 0.0328366018752024	-0.188434
C	0.1058601483129761 0.2683840440458126 0.0311289081507319	0.098301
C	0.9289434363701873 0.2493953878070976 0.1064492699647149	0.056264
C	0.8937468849025767 0.1947915528214928 0.1384020002665050	-0.131450
C	0.8241830267182203 0.1948960798296933 0.1402837500180421	-0.127188
C	0.7877879010337562 0.2503513045353016 0.1123031901511090	0.068111
C	0.8230295678905973 0.3055326016421454 0.0818664839660788	-0.122074
C	0.8925139028435398 0.3046572283134584 0.0779665527829994	-0.128606
C	0.2707873556067298 0.1104138651498803 0.1638745259146770	0.097083
C	0.2721618394967620 0.0409660789073766 0.1692819318526824	-0.181215
C	0.2507948217556034 0.0022530800891926 0.1036954529398223	0.102759
C	0.2291264898265828 0.0363333709944566 0.0345718063800930	-0.187460
C	0.2305008197265394 0.1058419218638046 0.0330584081808613	0.096983
C	0.2504828246146177 0.9285540997311302 0.1070294367090872	0.056294
C	0.3051551320181475 0.8930436259605069 0.1386700659552517	-0.131834
C	0.3050777018897363 0.8234800026193649 0.1402644575048335	-0.126810
C	0.2495984701952796 0.7873478653501516 0.1121632034135703	0.067172
C	0.1944574579443947 0.8228311095858908 0.0817696310441297	-0.121898
C	0.1952612987958378 0.8923371071964928 0.0782815592075363	-0.128132
C	0.2294281205954406 0.3901850859759755 0.1630173308900064	0.096346
C	0.2275649907444277 0.4595246464723978 0.1693070815435703	-0.183681
C	0.2478001805170530 0.4988194359691643 0.1037320824550924	0.104726
C	0.2679768733054291 0.4654477050421287 0.0335321985065284	-0.188752
C	0.2668084514453132 0.3959542015420121 0.0311568355969247	0.097262
C	0.2484454201635555 0.5724975310160747 0.1078698428881336	0.055628
C	0.1938537462515665 0.6081330617820115 0.1394354398012623	-0.130848
C	0.1941280242259580 0.6777035714751168 0.1407327030982546	-0.126157
C	0.2496878729345675 0.7136190812662658 0.1125374045947261	0.067349
C	0.3049132918128983 0.6779240025915622 0.0827321325112635	-0.122018
C	0.3039028534420757 0.6084527273358682 0.0794252136319842	-0.127352
H	0.3570494312278550 0.2160283989495252 0.7142919853660038	0.110418
H	0.4829075867851914 0.2119895128193724 0.7251291501799425	0.112448
H	0.4912622730344336 0.2871922855793335 0.4814945949773490	0.111165
H	0.3661012107682937 0.2846315435004331 0.4796851286491131	0.096934
H	0.5795241807754282 0.1514529257803050 0.6608345722116573	0.101272
H	0.7036249037087180 0.1521090098687594 0.6647691752468574	0.101263
H	0.7046088329792183 0.3484805743779327 0.5585900972747490	0.101569
H	0.5807951385642595 0.3477512878609326 0.5540220822091222	0.103695
H	0.1431913053955942 0.2825856289546149 0.7131195097261204	0.110231
H	0.0171460969662187 0.2876123055141545 0.7257274551064172	0.111701
H	0.0064091343013928 0.2170606876496417 0.4802916713924763	0.111514
H	0.1314891552092245 0.2202987905394586 0.4765960475855029	0.097702
H	0.9191782154593603 0.3496330319454155 0.6615374810229143	0.100446
H	0.7950555348080786 0.3486594703018799 0.6649805526574650	0.101477
H	0.7948077221650919 0.1519698146371946 0.5596169702504892	0.101358
H	0.9186693063262302 0.1531266977459505 0.5553949041482041	0.103111
H	0.2816203402203932 0.3560614952843622 0.7133148448273623	0.111008
H	0.2864382441657066 0.4819586163734194 0.7246933418385606	0.112624
H	0.2149522217568889 0.4915369996380180 0.4795256661534031	0.112089
H	0.2177286056583129 0.3662908317476795 0.4772240722001171	0.097104
H	0.3485948672684724 0.5786059954769034 0.6604753933412821	0.100655
H	0.3478989194446137 0.7026962395947813 0.6649000441725111	0.101214
H	0.1514849874760148 0.7046463312176868 0.5588446421769816	0.101769
H	0.1523151177684766 0.5808289798543271 0.5536290087457537	0.103778
H	0.2153726315379905 0.1424867924317045 0.7148471529230643	0.109652
H	0.2107178908157964 0.0165094034317442 0.7268719255743562	0.111995
H	0.2851369417808705 0.0062706266328272 0.4829796608801682	0.111756
H	0.2825312494462836 0.1312327055312486 0.4798530646761552	0.097304
H	0.1503211759638069 0.9188645776137896 0.6625885085765343	0.100441
H	0.1512789309529228 0.7947254282744916 0.6652945347062031	0.100801
H	0.3479662594874524 0.7941575248340852 0.5598098594386590	0.101106
H	0.3468494734177626 0.9180402686765876 0.5564649774461444	0.104263
H	0.6439708249399558 0.7183721259392762 0.7867161278656289	0.110932
H	0.5180737696009697 0.7135649597207926 0.7753028767255471	0.112650
H	0.5084615722466852 0.7850508106074754 0.0204773911601688	0.112015
H	0.6337066342468397 0.7822616014074693 0.0228067477445284	0.096944
H	0.4214146407965128 0.6514081534299186 0.8394957003361422	0.100549
H	0.2973260547627672 0.6520973085814916 0.8350646690577972	0.101141
H	0.2953584629101901 0.8485069601915317 0.9411231645174253	0.101581
H	0.4191747323219105 0.8476797469466816 0.9463429715435107	0.103911
H	0.8575141922838557 0.7846359154796083 0.7851700963198288	0.109758
H	0.9834918462517458 0.7892895240697558 0.7731241085654160	0.112003
H	0.9937546357825057 0.7148562061707567 0.0169972771653995	0.111778
H	0.8687886591677864 0.7174634916540419 0.0201534856559775	0.097333
H	0.0811444280759612 0.8496602044128990 0.8373899492169924	0.100459
H	0.2052832837919688 0.8487088688178022 0.8346810397785726	0.100736
H	0.2058598572704725 0.6520221752664112 0.9401676873572904	0.101070
H	0.0819765050797369 0.6531366223696567 0.9435097528079153	0.104168
H	0.7174315447894785 0.8567811173210927 0.7868997988970450	0.110197
H	0.7123846769373627 0.9828281885169380 0.7742694261364512	0.111701
H	0.7829228310675415 0.9936103189781126 0.0197080642270290	0.111337
H	0.7797062053042155 0.8685269727610317 0.0234230550371708	0.097646
H	0.6503540244108615 0.0808131536037352 0.8384421655751462	0.100628
H	0.6513278820667041 0.2049338426443282 0.8350041441072209	0.101369
H	0.8480205684222172 0.2051885699792859 0.9403573276806861	0.101420
H	0.8468666739662608 0.0813277094022135 0.9445741999077965	0.103238
H	0.7839930001292954 0.6429564644708931 0.7857342861075829	0.110310
H	0.7880210803134352 0.5170987989937782 0.7748773644014466	0.112373
H	0.7127884812112254 0.5087275481021227 0.0185078598568717	0.111282
H	0.7153799811361087 0.6338907076170952 0.0203428759560586	0.096797
H	0.8485391485141496 0.4204724347794446 0.8391666827613319	0.101329
H	0.8478807430154114 0.2963749548507936 0.8352238428627513	0.101211
H	0.6515012856829429 0.2953887941775305 0.9413907918442288	0.101336
H	0.6522327849023637 0.4192008519587054 0.9459644748429321	0.103714
H	0.6431897357565638 0.7825521344939119 0.2868890468142832	0.110317
H	0.5171419559982661 0.7875819835572292 0.2742610296018297	0.111563
H	0.5064219324366005 0.7170678799501423 0.5196968050194538	0.111331
H	0.6314980270125935 0.7202978237534586 0.5234082879222407	0.097678
H	0.4191705517768535 0.8496200146552448 0.3384521410667763	0.100428
H	0.2950508998989858 0.8486513147367516 0.3350150883541210	0.101476
H	0.2948065772096798 0.6519804405508393 0.4403668761772681	0.101418
H	0.4186676002261244 0.6531275717293491 0.4445799130748256	0.103167
H	0.8570237688589444 0.7160324496872263 0.2856881658875772	0.110472
H	0.9828876346000615 0.7119968298132549 0.2748490767831319	0.112440
H	0.9912808397151386 0.7872144386341406 0.5185002719358193	0.111293
H	0.8661121514969047 0.7846366526798932 0.5203158989404598	0.096957
H	0.0795098070539873 0.6514513972977264 0.3391597018353646	0.101465
H	0.2036076525512655 0.6521040914558556 0.3352167340900329	0.101135
H	0.2046154120569428 0.8484922383814167 0.4414111954161148	0.101421
H	0.0808020612964512 0.8477599725785986 0.4459834053075054	0.103652
H	0.7153845916964733 0.6424701103770301 0.2851417606271968	0.109870
H	0.7107166893384876 0.5164853706986783 0.2730977289234371	0.112289
H	0.7851476647620089 0.5062738833250100 0.5170084731009992	0.111672
H	0.7825483029245439 0.6312447193370573 0.5201382825882703	0.097266
H	0.6503068200912699 0.4188447938874105 0.3373848869342949	0.100537
H	0.6512664543874518 0.2947095441232135 0.3346851493870779	0.100802
H	0.8479660861856141 0.2941507092541448 0.4401830899895365	0.101138
H	0.8468473382598669 0.4180343041503321 0.4435229768895654	0.104320
H	0.7816051868107113 0.8560099106979827 0.2866993599253725	0.110808
H	0.7864192823733468 0.9819095619304840 0.2752963964994484	0.112668
H	0.7149583779209601 0.9915450890651016 0.5204695990404862	0.112129
H	0.7177573938799670 0.8663031685361218 0.5227871445102804	0.097099
H	0.8485811713488313 0.0785813896929389 0.3395038220236262	0.100582
H	0.8478841197662630 0.2026668350314312 0.3350721018005879	0.101161
H	0.6514861968184233 0.2046431873078439 0.4411229284624510	0.101490
H	0.6523178552946532 0.0808271808955686 0.4463436665325568	0.103956
H	0.3575313901747170 0.2846232636304417 0.2148655648197923	0.109633
H	0.4835192261776906 0.2892817048050838 0.2268934340115984	0.112192
H	0.4937078607970841 0.2148535103747741 0.9829802837943866	0.111729
H	0.3687498831292335 0.2174605084679734 0.9798661026464545	0.097183
H	0.5811474667413179 0.3496865643956850 0.1625976270438873	0.100415
H	0.7052834480030760 0.3487297693734904 0.1652956725734147	0.100839
H	0.7058364185772545 0.1520295343356518 0.0598013194150440	0.101087
H	0.5819520730596131 0.1531511575882192 0.0564653716689378	0.104352
H	0.1439677581490464 0.2183885526909660 0.2133326603270244	0.110742
H	0.0180635900561630 0.2135635440942106 0.2246931797350421	0.112559
H	0.0084663949384160 0.2850635174308100 0.9795433697438248	0.111903
H	0.1337110990296716 0.2822869483041334 0.9772597557956538	0.097021
H	0.9214045016181105 0.1514140698629015 0.1604630135226270	0.100663
H	0.7973190179449560 0.1521093058422600 0.1648958062931540	0.101215
H	0.7953498065958218 0.3485055196578463 0.0588584420650359	0.101760
H	0.9191633840746258 0.3476754792150170 0.0536407258621148	0.103881
H	0.2839688627016284 0.1429766551333605 0.2143361792446112	0.110453
H	0.2880044773131499 0.0171098733670445 0.2251552564481608	0.112493
H	0.2127940218884019 0.0087467576406891 0.9814918264074169	0.111182
H	0.2153548791701807 0.1339093989505900 0.9797053234357357	0.096943
H	0.3485510152026837 0.9204897407518773 0.1608343960261295	0.101384
H	0.3478940044896696 0.7963903137192776 0.1647628550822965	0.101218
H	0.1515070869856782 0.7953970423992307 0.0585587729929079	0.101521
H	0.1522389450196633 0.9192126411987617 0.0539922710803280	0.103658
H	0.2174304450128763 0.3568341313690866 0.2131293630096686	0.110197
H	0.2123847655524922 0.4828890796753519 0.2257321458719655	0.111724
H	0.2829396795415163 0.4935742217239491 0.9803046330439269	0.111388
H	0.2797021411715083 0.3684975488214494 0.9766205374123748	0.097690
H	0.1503590928698745 0.5808412688764067 0.1615209794290821	0.100535
H	0.1513369832516160 0.7049613987273176 0.1649596856009783	0.101307
H	0.3480150573253855 0.7051932324284974 0.0596175981418812	0.101388
H	0.3468632078622494 0.5813327907923097 0.0554020231977718	0.103148
Zn	0.2495247566094275 0.2489419252646946 0.6024498882595636	0.688805
Zn	0.7510525361813769 0.7504774717857290 0.8976014135648160	0.688832
Zn	0.7495115808202154 0.7489379141429613 0.3975596049371553	0.688940
Zn	0.2510680015958596 0.2504940129754816 0.1024889547870318	0.688808
B	0.2520631764013895 0.2467894430134574 0.3835184106506122	1.061213
B	0.7532146233137239 0.7479711316448193 0.1165281727807212	1.062493
B	0.7519677426341139 0.7468162843197790 0.6166673869781942	1.060809
B	0.2532756211299076 0.2479387969806219 0.8834238236985021	1.061916
	  	
