#======================================================================

# CRYSTAL DATA

#----------------------------------------------------------------------

data_VESTA_phase_1


_pd_phase_name                         BFFIVE_2_Zn_i
_cell_length_a                         13.97973
_cell_length_b                         13.97999
_cell_length_c                         8.53925
_cell_angle_alpha                      90.43561
_cell_angle_beta                       90.46144
_cell_angle_gamma                      89.83250
_symmetry_space_group_name_H-M         P 1
_symmetry_Int_Tables_number            1

loop_
_symmetry_equiv_pos_as_xyz
   x, y, z

loop_
   _atom_site_label
   _atom_site_fract_x
   _atom_site_fract_y
   _atom_site_fract_z
   _atom_site_charge
C	0.0000375018190979 0.3003332799534633 0.3583404364982464	-0.165896
C	-0.0002342035079506 0.2011876763490612 0.3692020719558629	0.094833
C	0.5000225451603638 0.8005430778407838 0.8588374689611067	-0.166413
C	0.4997246759010622 0.7014219746651815 0.8694998436363953	0.095117
C	0.0000282771422867 0.6995859315443995 0.3594735678470073	-0.167402
C	-0.0000654948814159 0.7987995200235991 0.3712565755653733	0.096847
C	0.4998759219075096 0.1992220820699987 0.8596234786287875	-0.166493
C	0.4997737178120262 0.2984293415936686 0.8712414760223337	0.095964
C	0.6995596094485279 0.0000630474736225 0.3594762580460268	-0.167238
C	0.7987689860985446 -0.0000403598326373 0.3712782755827157	0.097034
C	0.1991976870636898 0.4999049438105890 0.8596572937904182	-0.166647
C	0.2984108891478705 0.4997986394339576 0.8712755947226919	0.095738
C	0.3002955063432748 0.0000529683981317 0.3583603576149059	-0.166614
C	0.2011573841934180 -0.0002312664546222 0.3692211868568175	0.095246
C	0.8005149281540599 0.5000355426850882 0.8588077422643562	-0.166948
C	0.7014068431498359 0.4997177893185510 0.8694806821417932	0.095246
C	-0.0003485078860274 0.3076257170759129 0.6414189062518061	-0.165640
C	-0.0007750473362198 0.2082928777591679 0.6415265500130850	0.094823
C	0.4997115923679195 0.8076262161380562 0.1418887628236412	-0.165223
C	0.4992779611794453 0.7083647225935360 0.1418446328059835	0.095393
C	-0.0007134397322204 0.6941145885304870 0.6425190162513441	-0.167270
C	-0.0010998004583449 0.7934312137007007 0.6433365768422304	0.099132
C	0.4993021932802483 0.1939097068702816 0.1426485311058545	-0.167446
C	0.4989038840504901 0.2932276753101469 0.1433198595944193	0.099733
C	0.3076656307672625 -0.0003178508131491 0.6414348458678396	-0.166082
C	0.2083252683144936 -0.0007587528570920 0.6415343392284885	0.094630
C	0.8076778814181942 0.4997405439725470 0.1418761933272091	-0.164874
C	0.7084098018826739 0.4992844951745416 0.1418075627130555	0.094798
C	0.6941480955436194 -0.0006718821825664 0.6425272627599394	-0.167867
C	0.7934679887607116 -0.0010683591432389 0.6433429007389703	0.099419
C	0.1939509812322870 0.4993367879515084 0.1426702557485888	-0.168026
C	0.2932709766632156 0.4989305294397050 0.1433470748349477	0.100164
C	0.0003798189380386 0.4567524896891849 0.4929949003119944	-0.096571
C	0.0001239006412638 0.3556123866778078 0.4969326040874408	0.161766
C	0.5004067509076328 0.9567044607847908 -0.0064280843810198	-0.097260
C	0.5001386766332333 0.8556683645919838 -0.0024463191393293	0.161253
C	0.0003252075916660 0.5440292340534685 0.4930804891971254	-0.099365
C	-0.0000167095431581 0.6452096427437013 0.4976371521328323	0.163624
C	0.5003196467179496 0.0439269387601688 -0.0065497348967252	-0.098191
C	0.4999206467263475 0.1450262777798472 -0.0021076852661889	0.162564
C	0.5440196794649145 0.0003608363632800 0.4930819985726689	-0.099430
C	0.6452100357511255 0.0000185235832908 0.4976431278186489	0.164147
C	0.0439326300861824 0.5003507335816842 -0.0065434333141060	-0.098720
C	0.1450359655465457 0.4999515792982272 -0.0020839050251112	0.163086
C	0.4567628230039088 0.0004138821420082 0.4930099880215739	-0.096695
C	0.3556111332300758 0.0001506286572487 0.4969509320125858	0.162127
C	0.9567201857535965 0.5004435048254169 -0.0064470432494718	-0.096742
C	0.8556812265424680 0.5001657392554798 -0.0024834064828805	0.161051
H	0.0001418592680250 0.3346848204549154 0.2442326812451149	0.120322
H	-0.0004931350787539 0.1541058396458586 0.2661836792267184	0.114606
H	0.5000931715382099 0.8351494191399293 0.7449858034445616	0.120347
H	0.4994895062471959 0.6545609942551994 0.7662824258743030	0.114447
H	0.0001320295323671 0.6645730395486729 0.2451087340368812	0.119744
H	-0.0001064356868958 0.8455912308848553 0.2690445482976497	0.113793
H	0.4999492417385235 0.1639545394026955 0.7454898977615166	0.119311
H	0.4997571686325020 0.3449611785450344 0.7687567067405993	0.113753
H	0.6645149587623272 0.0001652703394342 0.2451074435851847	0.119542
H	0.8455402020067126 -0.0000890604779623 0.2690736302479365	0.113599
H	0.1639084568435440 0.4999895613742723 0.7455123851675484	0.119318
H	0.3449185162448598 0.4997878068884911 0.7688041308075637	0.114027
H	0.3346198981311464 0.0001488621300268 0.2442525758364046	0.120732
H	0.1540549908640248 -0.0005048014486104 0.2661962995821831	0.114324
H	0.8350922425502562 0.5001122543153547 0.7449571155803663	0.120666
H	0.6545167818449628 0.4994790260395776 0.7662444042723009	0.114444
H	-0.0004971201256260 0.3475617703568091 0.7513931492973409	0.116248
H	-0.0018105610205790 0.1685692862522343 0.7509366286997843	0.099552
H	0.4996480395676794 0.8476538322893515 0.2518863181363489	0.116114
H	0.4983059533604401 0.6687037815072738 0.2513230351849528	0.099597
H	-0.0010375227657813 0.6547162181151903 0.7520488484819541	0.116854
H	-0.0025625346420766 0.8339584369431691 0.7528714349372747	0.098627
H	0.4990672091752221 0.1544432443754380 0.2521582023431508	0.117098
H	0.4975207524374118 0.3336243251614961 0.2529215981550741	0.098664
H	0.3476143374881326 -0.0004642740984963 0.7514132988545467	0.116392
H	0.1686324356025811 -0.0017988333328129 0.7509373710190707	0.099649
H	0.8477263506911048 0.4996849423427433 0.2518570244523622	0.116033
H	0.6687823981803126 0.4983180854634227 0.2512834496934118	0.099854
H	0.6547790461256969 -0.0010009685868741 0.7520486843935650	0.117061
H	0.8340163464448312 -0.0025313337245809 0.7528845665590500	0.098563
H	0.1545153792650516 0.4991061245762279 0.2521791738831319	0.117264
H	0.3336916279473325 0.4975622840319187 0.2529474044510817	0.098470
Zn	0.0004566157201854 0.0004559178743622 0.4957325985804215	0.689459
Zn	0.5003888485042283 0.5003935140897650 -0.0048766052153961	0.689612
B	0.0003865589935409 0.0002828462681759 -0.0692009723772851	1.053211
B	0.5001971020213912 0.5001407193155665 0.4295320552575618	1.055338
N	-0.0005024574351360 0.1561041341249179 0.5083737546491899	-0.215097
N	0.4994633105603914 0.6561853158476957 0.0085886170571896	-0.215588
N	-0.0004180763305890 0.8447651583542012 0.5107284351788903	-0.216181
N	0.4994878750430485 0.3445281066792515 0.0105949692901671	-0.215713
N	0.8447753186638678 -0.0003968340289462 0.5107389894712443	-0.216351
N	0.3445421491095220 0.4995046133283100 0.0106293893745956	-0.215750
N	0.1561036007575113 -0.0005011154211219 0.5083776569366382	-0.214863
N	0.6561958035938689 0.4994509629511845 0.0085532970769323	-0.215373
F	0.0028390436315070 0.0027133300615139 0.7570308417650504	-0.450667
F	0.5028786550892996 0.5027911769614765 0.2558675107999616	-0.450692
F	-0.0012833929637530 -0.0012307654112015 0.2707359998426383	-0.567507
F	0.4989456667299079 0.4990434311103511 0.7699110523062253	-0.568943
F	0.5928073831409664 0.4742725883450093 0.4778059871894168	-0.451884
F	0.4740102877314021 0.5926255222963311 0.4777151685306734	-0.451661
F	0.4313865890249948 0.4311127888343502 0.4669058720789179	-0.456235
F	0.9315477303538424 0.9314148072424564 -0.0314794686677067	-0.455997
F	0.9743475230012907 0.0928692124024397 -0.0209827479861051	-0.451398
F	0.0930004178962414 0.9743199878826935 -0.0209221378304143	-0.451415
	  	
