#======================================================================

# CRYSTAL DATA

#----------------------------------------------------------------------

data_VESTA_phase_1


_pd_phase_name                         BFFIVE_7_Cd
_cell_length_a                         19.91554
_cell_length_b                         19.90314
_cell_length_c                         9.05559
_cell_angle_alpha                      90.41096
_cell_angle_beta                       89.57628
_cell_angle_gamma                      89.97723
_symmetry_space_group_name_H-M         P 1
_symmetry_Int_Tables_number            1

loop_
_symmetry_equiv_pos_as_xyz
   x, y, z

loop_
   _atom_site_label
   _atom_site_fract_x
   _atom_site_fract_y
   _atom_site_fract_z
   _atom_site_charge
C	0.6464634710741345 0.8616242214178691 0.6750759414093547	0.094862
C	0.5975241092643027 0.9115039293755390 0.6810927422756865	-0.179996
C	0.5906324023145320 0.9054273472687576 0.4167599964577295	-0.176037
C	0.6398980020706835 0.8561351064989480 0.4193315558348689	0.093189
C	0.8533124666482627 0.6393838586323805 0.6785345214128353	0.094258
C	0.9020083115500259 0.5893057874597302 0.6832131284453141	-0.178895
C	0.9134548063946297 0.5979130235818578 0.4199874212109398	-0.174037
C	0.8643164812231059 0.6473490169517889 0.4237121986323000	0.091721
C	0.6390116547867931 0.6452249481847550 0.6830995414707161	0.093867
C	0.5893383042791053 0.5961106369132861 0.6887253250878207	-0.179405
C	0.5944124128633422 0.5889654388214492 0.4242845080755562	-0.174255
C	0.6436183040684638 0.6382336487715335 0.4270756848455706	0.092765
C	0.8615768122611442 0.8519778054155981 0.6701123911581590	0.095988
C	0.9116742527565140 0.9006382803817253 0.6752882949121424	-0.179314
C	0.9007453349311330 0.9133430313562191 0.4131474998340616	-0.175377
C	0.8514044397114948 0.8641598230152784 0.4165918204066270	0.094601
C	0.3519884764589618 0.3616252167465189 0.3299570900597182	0.095641
C	0.4006555589046040 0.4117122747767241 0.3247025238492327	-0.179314
C	0.4133834135528296 0.4007432765807907 0.5868254367056234	-0.175450
C	0.3641836075320020 0.3514194453900514 0.5834582877217309	0.094710
C	0.1452757528885288 0.1389798413978269 0.3168283312395544	0.093885
C	0.0961461960133284 0.0893252432724565 0.3112395607127427	-0.179287
C	0.0890212365993767 0.0943852701377396 0.5756635375793228	-0.174432
C	0.1383069881611176 0.1435892165521887 0.5728507423141951	0.093326
C	0.3616167819818938 0.1464560882153579 0.3248612275191022	0.095037
C	0.4115065701476589 0.0975327369038314 0.3189079248150498	-0.179786
C	0.4053942326407093 0.0906304318428769 0.5832637461157062	-0.175334
C	0.3560769205781895 0.1398763698771798 0.5806203697977891	0.092644
C	0.1394669991086748 0.3533578038717217 0.3214571635854460	0.094671
C	0.0893865112188598 0.4020431532359141 0.3167177948830421	-0.179418
C	0.0978901376879053 0.4134831940822397 0.5799503348047877	-0.173889
C	0.1473264087585035 0.3643433702761612 0.5762791982455381	0.091573
C	0.4347054300076737 0.0680344163258713 0.4499363468097669	0.139771
C	0.4866528995726204 0.0164474788296698 0.4419674620522726	-0.119034
C	0.0670035567816887 0.4333930574003755 0.4479213156516486	0.140168
C	0.0147187971004729 0.4845657688814360 0.4413815387186633	-0.120259
C	0.4326652313141942 0.4328250212476247 0.4551038519984713	0.139735
C	0.4835848288356889 0.4853083101324851 0.4480564262659927	-0.120354
C	0.0665647178766499 0.0655933070948092 0.4424745098220015	0.139217
C	0.0147729610128519 0.0139445406642850 0.4352311818603924	-0.118699
C	0.5656127302628201 0.5665399886950135 0.5574983891090105	0.139082
C	0.5139532995045614 0.5147724058406953 0.5647206191988595	-0.118526
C	0.9328082583332876 0.9326474852531237 0.5448604967382762	0.139978
C	0.9852920828067874 0.9835653388926795 0.5518991197791320	-0.120152
C	0.5680231613599578 0.9347181064952349 0.5501024704947609	0.140111
C	0.5164360172971053 0.9866618004155421 0.5580965811236445	-0.119211
C	0.9333733659481244 0.5669804935643935 0.5519730698511739	0.139374
C	0.9845508516515338 0.5147106960820407 0.5584736692453666	-0.119835
H	0.6707448528855627 0.8416572770028317 0.7737819037863879	0.109054
H	0.5821158198030878 0.9324432488965317 0.7876629874188887	0.112772
H	0.5701245985925838 0.9204434155269237 0.3108600146515547	0.113946
H	0.6591496115954456 0.8331795954016669 0.3175712400951446	0.100052
H	0.8281344291113695 0.6588566885442693 0.7779485963449049	0.108627
H	0.9157951922439803 0.5675191676939261 0.7888642764851506	0.113262
H	0.9361471890661045 0.5842308554516304 0.3142519881346039	0.114163
H	0.8477560638479344 0.6720701980213967 0.3229961149168011	0.100295
H	0.6590679480755387 0.6692121479886171 0.7827143053322007	0.109475
H	0.5689902170212885 0.5805879853329695 0.7952663951817296	0.113384
H	0.5792064334334485 0.5682538578061344 0.3179677060065461	0.114120
H	0.6665936909878563 0.6567891648770781 0.3253779263693525	0.099535
H	0.8427554486907103 0.8260635701770533 0.7684818077177406	0.108962
H	0.9345018954483023 0.9136618827198706 0.7808433481269674	0.112748
H	0.9133959262367070 0.9366444337339508 0.3080973724992555	0.113402
H	0.8257316641685659 0.8479826437159655 0.3162780386691469	0.098580
H	0.3260762787762915 0.3427766250543490 0.2316391910859628	0.109045
H	0.4136796480965976 0.4345495268256658 0.2190958550687896	0.112735
H	0.4367157706843212 0.4133658019982757 0.6918469308064091	0.113383
H	0.3480308059019993 0.3257270250149434 0.6838174017548071	0.098556
H	0.1692532305991131 0.1589972416528034 0.2171553510862231	0.109534
H	0.0806176757203924 0.0689907421633529 0.2047305220141820	0.113305
H	0.0683234721949364 0.0791778964698801 0.6819758878117884	0.114152
H	0.1568937456579764 0.1665573548994417 0.6745121845740845	0.099405
H	0.3416723522629606 0.1707652170225430 0.2261561576020394	0.109179
H	0.4324605802921085 0.0821193164953786 0.2123664901779012	0.112671
H	0.4203930076960679 0.0701228964528619 0.6891744415248884	0.113715
H	0.3330840077883619 0.1591253467708480 0.6823335718842486	0.099995
H	0.1589768687349832 0.3282283697619458 0.2220153652726038	0.108366
H	0.0676531317149530 0.4158255381493569 0.2110295065192329	0.113385
H	0.0841685287970598 0.4361863363453005 0.6856569276707241	0.114016
H	0.1720099027021496 0.3477874752895470 0.6770455577134209	0.100380
H	0.5018667801104046 0.0019992752672593 0.3299311041300569	0.098785
H	0.9995609880419344 0.4984580539218095 0.3299369393889760	0.099617
H	0.4967966542160636 0.5013161840640006 0.3363675685678137	0.099582
H	-0.0002290240405557 0.9994775900027402 0.3234506476269357	0.098731
H	0.4994495884955882 0.4997500861262523 0.6764917352772016	0.098649
H	0.0012951139391368 0.9967430537085270 0.6636037760808898	0.099629
H	0.5019954650414279 0.0018733796591359 0.6701276187949087	0.098817
H	0.9984352992339015 0.4995390475121979 0.6699078211891509	0.099298
Cd	0.2496439387991289 0.2493339968015587 0.4324959803449129	0.771745
Cd	0.7493361438037797 0.7496414267579922 0.5673980043257245	0.772040
B	0.2450020424833175 0.2505873638008938 0.8576050497707408	1.058790
B	0.7504015160017083 0.7450631459371435 0.1425989346431861	1.059866
F	0.2560119391925004 0.2513527293495135 0.1987545882968501	-0.607267
F	0.2403501046647656 0.2474898868217346 0.6941720770001910	-0.461598
F	0.7510906142910385 0.7552166871866896 0.8012103544121841	-0.607829
F	0.7475403801085938 0.7402786947901011 0.3059888243593568	-0.461788
F	0.1997400224227436 0.2023373433198447 0.9106794494025569	-0.464686
F	0.2270439947714694 0.3164730461649136 0.8977931776378533	-0.465519
F	0.3122644890494782 0.2355465581383147 0.8897742312520130	-0.465765
F	0.7345172184074181 0.8121661291785350 0.1107558325626637	-0.465850
F	0.8164019712580218 0.7277364383104239 0.1022457596003617	-0.465875
F	0.7025750891192337 0.6992784192128124 0.0899498259213511	-0.464284
N	0.3343962797306184 0.1670679721445378 0.4538651834415887	-0.229385
N	0.1675741489780465 0.3346432536256057 0.4494191071745037	-0.229417
N	0.3339660812713531 0.3323212591398568 0.4575905161846571	-0.230648
N	0.1659517642047828 0.1655320757696307 0.4457645522582804	-0.229965
N	0.6655538855526236 0.6658888987017830 0.5541286905995342	-0.230234
N	0.8322742061780405 0.8339634083399763 0.5425058084214349	-0.230703
N	0.6671051027388983 0.8344435055545341 0.5460581783996260	-0.229676
N	0.8346123980089707 0.6675448944128187 0.5505900144931190	-0.229140
	  	
