#======================================================================

# CRYSTAL DATA

#----------------------------------------------------------------------

data_VESTA_phase_1


_pd_phase_name                         BFFIVE_15_Cd_i
_cell_length_a                         30.46629
_cell_length_b                         29.53928
_cell_length_c                         8.72381
_cell_angle_alpha                      90.18002
_cell_angle_beta                       90.02480
_cell_angle_gamma                      89.99918
_symmetry_space_group_name_H-M         P 1
_symmetry_Int_Tables_number            1

loop_
_symmetry_equiv_pos_as_xyz
   x, y, z

loop_
   _atom_site_label
   _atom_site_fract_x
   _atom_site_fract_y
   _atom_site_fract_z
   _atom_site_charge
C	0.9314764092539147 0.1001076944800342 0.8766652611069655	0.095176
C	0.8995380156441217 0.0666103177479577 0.8868117999767896	-0.168259
C	0.7694429196358913 0.9358254657005554 0.8909528123710507	-0.116068
C	0.7362242660031983 0.9037993310883597 0.8887886977579231	-0.118597
C	0.5729349669397604 0.7454219535877414 0.8894953057180838	0.091935
C	0.6059512502706340 0.7778405079082321 0.8897443918575261	-0.170838
C	0.4301812345235030 0.5978045217171557 0.8915523451461398	0.097860
C	0.3981930004345412 0.5643124208312792 0.8918051602424383	-0.170145
C	0.2700873042003972 0.4365223502803916 0.8888653407521786	-0.116022
C	0.2368795441513080 0.4044924544733455 0.8904532028181429	-0.116686
C	0.0710906725451023 0.2437063141360843 0.8756560180569060	0.094033
C	0.1040985598163836 0.2760740364588988 0.8860995603032072	-0.170095
C	0.0711267422043840 0.9010037314609205 0.3913682880149904	0.097427
C	0.1027666296840092 0.9348495431752012 0.3921088821266664	-0.170677
C	0.2302334490854345 0.0641095481620994 0.3876534781249749	-0.116824
C	0.2634799720940791 0.0961091219582943 0.3874126948159153	-0.115678
C	0.4281021955062762 0.2536118740865848 0.3910697111589523	0.094874
C	0.3947945463824897 0.2215217368561234 0.3911508575598408	-0.173046
C	0.5709491386205666 0.4011353127768498 0.3904096181321945	0.094639
C	0.6025807631781810 0.4350000009983069 0.3909778401090542	-0.170230
C	0.7301688286521399 0.5640441199156625 0.3874790353218213	-0.117186
C	0.7634186036705574 0.5960478171432844 0.3874349345368835	-0.116406
C	0.9279067188025002 0.7538400794031569 0.3899342599384516	0.093693
C	0.8946386092414148 0.7217007533797093 0.3900871385142751	-0.171415
C	0.0711366695086638 0.0991568544514513 0.6086411864122769	0.096612
C	0.1027355938453538 0.0652669403021046 0.6081332677460973	-0.171912
C	0.2298287909780997 0.9364050235868691 0.6112749984854858	-0.116291
C	0.2630782291289199 0.9044147181440978 0.6095912392997828	-0.116905
C	0.4289068384796516 0.7438064148304291 0.6230641411536076	0.092109
C	0.3959412358636311 0.7762236619461226 0.6130276914908906	-0.170751
C	0.5683216360023884 0.6000329361395899 0.6249680520241780	0.096684
C	0.6002534695529821 0.5665391754782030 0.6143310134825999	-0.170139
C	0.7304984194346825 0.4358491698034496 0.6093771014003837	-0.117603
C	0.7636673511847405 0.4037633948269751 0.6113527719775181	-0.118558
C	0.9278132606142727 0.2463337707045706 0.6104520571216195	0.093529
C	0.8944915072226294 0.2784190604095833 0.6104873409339832	-0.173365
C	0.9313964438013698 0.9001311274873330 0.1236145569205356	0.095381
C	0.8994349947311263 0.9336075271858622 0.1136066888505122	-0.168838
C	0.7697299264591912 0.0640075181087640 0.1080240492467016	-0.116557
C	0.7365245152505421 0.0960405201663617 0.1082086205077882	-0.115642
C	0.5703515660977089 0.2557092550274161 0.1246833778473335	0.094460
C	0.6035977711365219 0.2236025440308198 0.1143154159069620	-0.172315
C	0.4308230938588030 0.3994614655608935 0.1236357957528126	0.095037
C	0.3992075785416099 0.4332912779122707 0.1135151510055448	-0.168573
C	0.2697633085040649 0.5640706361354978 0.1079240046042226	-0.116200
C	0.2364735803748671 0.5960106757986314 0.1082863101599304	-0.115845
C	0.0710742652966624 0.7564619678937867 0.1243611854847675	0.093508
C	0.1040489185766986 0.7240544536379234 0.1140950361246876	-0.169401
C	0.0690813274710765 0.8993536509866751 0.1248472624482420	0.097139
C	0.1007395177985594 0.9331129582104005 0.1146262493050305	-0.169107
C	0.2300632753460671 0.0639540036437541 0.1081140058615852	-0.116010
C	0.2633105049992102 0.0959364218027046 0.1082545446653337	-0.116765
C	0.4294651120603858 0.2556757129361398 0.1247092866974057	0.093937
C	0.3962669041979803 0.2235162909940721 0.1143234809110316	-0.172258
C	0.5689994956451890 0.3994298959223224 0.1236316309329994	0.095346
C	0.6006477207085847 0.4332151059992129 0.1135360255473351	-0.169154
C	0.7300732699407516 0.5639550830766914 0.1079136184879556	-0.116864
C	0.7633181016056714 0.5959356054766892 0.1082569427214773	-0.116755
C	0.9292750467598162 0.7557145022006975 0.1233467891434000	0.092505
C	0.8960836133158029 0.7235410862705450 0.1132578013755603	-0.171006
C	0.9299471993042582 0.0979439080194889 0.6099040386333920	0.095742
C	0.8979301004591859 0.0644625379819786 0.6093784236729948	-0.171177
C	0.7699779501665359 0.9364036881076681 0.6114341621916701	-0.116724
C	0.7367709756109171 0.9043706132472696 0.6096495599301348	-0.116951
C	0.5709200048741748 0.7437313762313136 0.6229143115152078	0.091226
C	0.6039153082213126 0.7761097584931603 0.6129096006386041	-0.171573
C	0.4314575334666914 0.5999766252647990 0.6249931951653889	0.096481
C	0.3995678166869640 0.5664345617681367 0.6143448909324718	-0.169331
C	0.2693241241993577 0.4357574907745626 0.6093670823505827	-0.117514
C	0.2361120174655110 0.4037283652741637 0.6113229652994150	-0.116587
C	0.0731430607902459 0.2450712569456290 0.6092724162237275	0.094528
C	0.1061259687264904 0.2775191672982366 0.6092423443010071	-0.172100
C	0.9299221683037447 0.9021480421758670 0.3903866855846748	0.095688
C	0.8978664908283983 0.9355908695546975 0.3910686094834253	-0.169584
C	0.7696178255762433 0.0641097770468232 0.3875407328167765	-0.117162
C	0.7364141600533226 0.0961640255941279 0.3873577221992801	-0.115126
C	0.5717605002490525 0.2536402922696645 0.3910563107117209	0.094260
C	0.6051124307825737 0.2216071711096626 0.3911566578228712	-0.172678
C	0.4288861369652595 0.4011348613674945 0.3903825689122746	0.095031
C	0.3972904306287501 0.4350410459927055 0.3909399681762760	-0.171113
C	0.2697158293332524 0.5641219094552310 0.3874430840712848	-0.116713
C	0.2364316795285019 0.5960881554328891 0.3874390187293457	-0.115295
C	0.0730581969271812 0.7550877665808980 0.3907543726831206	0.094743
C	0.1059955503299617 0.7225881908120368 0.3909533478163366	-0.173154
C	0.0689995644237186 0.1008023061418890 0.8751571599280730	0.096981
C	0.1006006911520483 0.0669840280908127 0.8855875840597758	-0.170930
C	0.2303402856078556 0.9358144094605190 0.8907924825841138	-0.116725
C	0.2636078684296597 0.9038352021707509 0.8887542009011488	-0.117519
C	0.4269117421173733 0.7454677495582031 0.8896731286075550	0.091323
C	0.3939274393707001 0.7779222191349836 0.8898786915714114	-0.169902
C	0.5696478155016922 0.5978513882642735 0.8915105667330471	0.097062
C	0.6016803154865311 0.5643953907830928 0.8917758123985714	-0.170177
C	0.7297685192056897 0.4365961667548027 0.8888859729500954	-0.117143
C	0.7629306798102261 0.4045083546680805 0.8904992640848839	-0.117106
C	0.9293019332475100 0.2443835878042095 0.8770260276339671	0.093298
C	0.8960401055200484 0.2764854793405142 0.8873090460065564	-0.171459
C	0.6560039770693474 0.8267434286145766 0.7455472871799556	-0.105269
C	0.8819762962647277 0.0482252667605853 0.7506056284908000	0.162105
C	0.8203177627200634 0.9857161902755339 0.7537184687381230	-0.099328
C	0.6222311905867207 0.7939243435524140 0.7487924644021967	0.168579
C	0.7867903616981572 0.9527140171962314 0.7522156990578595	0.127377
C	0.7192401126973700 0.8875353425074548 0.7481855111075796	0.138556
C	0.6853038878266496 0.8549280200039797 0.7464369156816525	-0.101399
C	0.8490459066477781 0.0145411289737158 0.7539639429064180	-0.108787
C	0.1560988541124072 0.3266584347152213 0.7540445622488735	-0.106092
C	0.3821207398853025 0.5480763899455993 0.7503404856160343	0.161572
C	0.3203534099577728 0.4856898448028358 0.7468395679329648	-0.100506
C	0.1223799296630615 0.2937895389295654 0.7504234473102667	0.168581
C	0.2867939312288563 0.4527338407909198 0.7481950741501892	0.129430
C	0.2192498471646959 0.3875478431635997 0.7518198142413409	0.137443
C	0.1853589667744279 0.3549063703922916 0.7533716903006711	-0.100171
C	0.3491533845591664 0.5144437568597917 0.7466607638546923	-0.107449
C	0.3440433770413860 0.1731970478796242 0.2465627457030618	-0.106283
C	0.1182799707475769 0.9515203025731769 0.2508466600347143	0.161917
C	0.1795422039734444 0.0144320868238273 0.2477761144593536	-0.101573
C	0.3780372283840697 0.2057679168474676 0.2500292201349535	0.170213
C	0.2130501787987227 0.0474529918606910 0.2478701206651124	0.128768
C	0.2806668704706382 0.1125600893895978 0.2477519106811033	0.139175
C	0.3146566711108157 0.1451022636896606 0.2473677734597938	-0.100234
C	0.1509174555240846 0.9855021782314869 0.2475367667737202	-0.108208
C	0.8439462746915034 0.6732201654838235 0.2460071793991442	-0.106234
C	0.6181495325751249 0.4516328632479171 0.2497854991392120	0.162549
C	0.6794921022797616 0.5144525961512308 0.2472426492035593	-0.101301
C	0.8779035334973336 0.7058405490902944 0.2491240031787577	0.168583
C	0.7130251863315983 0.5474330813157683 0.2475928709639120	0.128141
C	0.7806271953221293 0.6125280320201377 0.2478565610020541	0.139232
C	0.8145896662474386 0.6450972178840545 0.2473964180031772	-0.100756
C	0.6508169604651955 0.4855755390049571 0.2466289750701469	-0.108999
C	0.3438916906778715 0.8268522233760015 0.7456753745328041	-0.104112
C	0.1181853580781892 0.0485700620236194 0.7494992050016548	0.162687
C	0.1794663756423067 0.9856867440013017 0.7533129222317484	-0.100911
C	0.3776536973784634 0.7940290683908375 0.7489063682038940	0.167550
C	0.2129890563858095 0.9526838667472467 0.7520051056435425	0.128686
C	0.2806143177929581 0.8875991539391563 0.7482154013470944	0.139577
C	0.3145745935535330 0.8550286250328761 0.7465520959708292	-0.102433
C	0.1508135675775773 0.0145922033560162 0.7531531506839929	-0.108974
C	0.8437784572297177 0.3267827046402962 0.7548603369923448	-0.103864
C	0.6177549998766396 0.5481890942657471 0.7503013221386604	0.161929
C	0.6795329671044926 0.4858160570250848 0.7468478792056203	-0.100639
C	0.8777742128070615 0.2942007544201995 0.7515556997284566	0.168551
C	0.7130703001823114 0.4528319795534491 0.7481991014440735	0.130184
C	0.7805209595697397 0.3875468830943644 0.7518672642312257	0.139909
C	0.8144281614914732 0.3549122346991014 0.7535996619536409	-0.102779
C	0.6507416901327991 0.5145669420172839 0.7466352885106952	-0.107613
C	0.6558767610248284 0.1733454646590210 0.2465955044948887	-0.108088
C	0.8818962481249359 0.9518988582922716 0.2499491590732320	0.161520
C	0.8202590999646039 0.0144326282250194 0.2475125476232341	-0.101394
C	0.6218645257606629 0.2058771432679494 0.2500411091603406	0.170448
C	0.7867514411290378 0.0474560240567581 0.2477413868901311	0.129044
C	0.7192187782414439 0.1126603492401268 0.2477303116860457	0.135981
C	0.6852653828074675 0.1452352956131246 0.2473850732608769	-0.098490
C	0.8489713729023608 0.9855961053598592 0.2468955345384206	-0.106921
C	0.1559639784974318 0.6734089183493386 0.2465478213403984	-0.106631
C	0.3817253368924877 0.4517042739747672 0.2497501371135008	0.161692
C	0.3204084181224437 0.5145643239873487 0.2471874192589196	-0.102285
C	0.1222678040124432 0.7063065471296937 0.2498850242651837	0.168868
C	0.2868580662214663 0.5475385766555912 0.2475496096852810	0.128067
C	0.2191749846000760 0.6125738769399492 0.2478820338498054	0.137162
C	0.1852274739139883 0.6451688515882112 0.2475374230377889	-0.099451
C	0.3490742694586706 0.4856769983280434 0.2465578896624288	-0.107765
H	0.9463909965082303 0.1157807204150534 -0.0218478585260634	0.112056
H	0.8882268494596703 0.0547933501922286 -0.0017799217894691	0.119274
H	0.7825273888232912 0.9483097875893317 -0.0005134710533895	0.107966
H	0.7228325089505908 0.8908012138888444 -0.0043006288336822	0.115567
H	0.5596790736962347 0.7319216887339816 -0.0036169829122762	0.100780
H	0.6191504903860482 0.7906121361505448 -0.0024827150559327	0.121132
H	0.4437991540139538 0.6112139557908238 -0.0016986214667013	0.101255
H	0.3856683879294386 0.5508242762952619 -0.0006187595067366	0.116975
H	0.2836573907911646 0.4495133154300563 -0.0040118360999413	0.107370
H	0.2239894353472181 0.3920020751374552 -0.0011989250242816	0.115458
H	0.0556395598702746 0.2285244224755925 -0.0233645239036754	0.111545
H	0.1157298101225452 0.2875702526456452 -0.0023352139722066	0.122351
H	0.0584043839167382 0.8868102074320554 0.4979312140538785	0.100573
H	0.1154745766061302 0.9482222329504818 0.4999190809068144	0.117401
H	0.2170135679218411 0.0514731463175139 0.4954896544777774	0.108238
H	0.2767313491292457 0.1089075457785326 0.4951257888869035	0.114109
H	0.4421692104251869 0.2665051392932283 0.4978081201557882	0.099821
H	0.3817601746459514 0.2086575388351067 0.4987302127267460	0.122379
H	0.5582311551749986 0.3870262508148933 0.4971831434169973	0.101889
H	0.6152280819837515 0.4483994934192728 0.4988315601120694	0.116952
H	0.7169044052198681 0.5513778598558440 0.4952048744701601	0.108260
H	0.7766343272189304 0.6088478886927596 0.4952040622939697	0.114423
H	0.9418385496103325 0.7667720295411774 0.4968939054359413	0.100372
H	0.8816427097986260 0.7089063463961029 0.4978240213638963	0.121496
H	0.0584580011148007 0.1133833790022033 0.5020272595282897	0.101661
H	0.1154609354411815 0.0518903945997333 0.5003852484927931	0.117414
H	0.2163518809906146 0.9493558336117379 0.5042350164062853	0.107019
H	0.2760811464735353 0.8918962144724175 0.5012014683665817	0.115424
H	0.4442217228185756 0.7286108759259511 0.5215326966613271	0.111272
H	0.3843600396397162 0.7876360453490062 0.5015794151566554	0.122946
H	0.5533650848763734 0.6157896038398060 0.5240075658588101	0.112159
H	0.6116296613581793 0.5547009288506077 0.5027772412330704	0.119774
H	0.7175164592400229 0.4482971292385372 0.5009114053226165	0.108718
H	0.7771114293313912 0.3906874650188462 0.5043564625332229	0.115451
H	0.9417277216817985 0.2334270900858461 0.5034730894400331	0.101017
H	0.8814472743136808 0.2912270026656243 0.5028044548586730	0.122041
H	0.9462988687332802 0.8845090210085752 0.0220756151399447	0.111387
H	0.8880958944245168 0.9454761749232223 0.0022813030289343	0.119855
H	0.7830515025802536 0.0512322220014149 0.0002883558313534	0.107764
H	0.7233583106184976 0.1087765736114992 0.0005585923415857	0.114617
H	0.5548976570338595 0.2708753470389764 0.0236243676893751	0.111274
H	0.6154101853541627 0.2123350554247577 0.0027589340745895	0.123009
H	0.4456201951912876 0.3836863069415380 0.0221699179901206	0.112635
H	0.3880620806687135 0.4452779957349182 0.0020814348353186	0.119526
H	0.2830658632524562 0.5513761945078256 0.0000492088536754	0.107595
H	0.2232442380772870 0.6087424614712312 0.0007447174214105	0.114718
H	0.0556486310713748 0.7716450837041732 0.0232955579419687	0.111168
H	0.1156936564703656 0.7125681699660775 0.0025809608193550	0.122478
H	0.0541335124199779 0.8835191576126324 0.0237075073674921	0.112076
H	0.1118936733317452 0.9451170469940916 0.0032443128994534	0.119525
H	0.2166982788118433 0.0511814081899024 0.0003958749353372	0.107751
H	0.2764751090283686 0.1086160379226138 0.0005731593731061	0.114472
H	0.4448955289221211 0.2708376173443212 0.0236611519906510	0.111148
H	0.3844586018642478 0.2122139928919361 0.0027633781928866	0.123223
H	0.5541810895392250 0.3836552211695093 0.0221505989935454	0.112179
H	0.6118065411635496 0.4451674021328285 0.0021001559934515	0.119699
H	0.7167648672104736 0.5512138941396125 0.0000654523009991	0.107769
H	0.7765297791502358 0.6086643669845528 0.0007165525967684	0.114457
H	0.9446153387340992 0.7707370499467635 0.0219047823049294	0.110871
H	0.8842740817885296 0.7121973429484977 0.0017620838409456	0.122931
H	0.9433507506995281 0.1113634033590218 0.5031280937726585	0.101510
H	0.8853625902917422 0.0510060803861037 0.5014915637726353	0.117436
H	0.7834604468826654 0.9493416110400850 0.5044181564437314	0.107572
H	0.7237978395104683 0.8918144345382512 0.5012037780342956	0.115140
H	0.5555912736741504 0.7285547026319884 0.5213492416462021	0.111100
H	0.6155016267006388 0.7874946447223358 0.5014520958447614	0.123384
H	0.4463776089288752 0.6157517737034258 0.5240642639422667	0.112527
H	0.3881859968283973 0.5545660839645629 0.5027827459431439	0.119304
H	0.2823102226052605 0.4481691503045437 0.5008939882847548	0.108681
H	0.2226340691097282 0.3906573429315483 0.5043274307881225	0.114521
H	0.0599267498045992 0.2312756949874771 0.5024824673259928	0.100111
H	0.1193185481651951 0.2901958773071551 0.5016427551244284	0.121454
H	0.9433449554798865 0.8887189270016128 0.4971621321990404	0.101818
H	0.8852773973070902 0.9489812686164139 0.4989870286188304	0.117222
H	0.7828390775892567 0.0514365124075661 0.4953508812666476	0.108144
H	0.7232016230653456 0.1089754447694662 0.4950787081794372	0.113883
H	0.5576904247017704 0.2665066612030091 0.4977799988096611	0.100037
H	0.6181873781149709 0.2087554181156639 0.4987346282505175	0.122424
H	0.4416055565098083 0.3870141808186532 0.4971774639358021	0.102131
H	0.3846713460080482 0.4484522919651385 0.4987700382029449	0.117544
H	0.2830138635450121 0.5514625417956887 0.4951743020594264	0.107818
H	0.2232243610132921 0.6088561547627988 0.4952151185103396	0.113877
H	0.0598432487226169 0.7688876961202195 0.4974908443370083	0.100215
H	0.1191468107268644 0.7098742060334674 0.4986003054546233	0.121902
H	0.0540344725050131 0.1166688567175078 -0.0238224279021233	0.112742
H	0.1116947642879499 0.0549467447412801 -0.0029626131471707	0.119943
H	0.2172408845102103 0.9482873957634991 -0.0007345780638603	0.107735
H	0.2770150173694995 0.8908626266669508 -0.0042910531875435	0.115028
H	0.4401781144208529 0.7319571538891507 -0.0034412829863796	0.100914
H	0.3807589043297089 0.7907024306981787 -0.0023568623591026	0.121140
H	0.5560474267730935 0.6112478390108463 -0.0017707693281155	0.101456
H	0.6142299422076303 0.5509107028411718 -0.0006352598891715	0.117165
H	0.7162385559613059 0.4496148937681269 -0.0040166966782276	0.107895
H	0.7758294063630217 0.3919996045911003 -0.0011492462054124	0.115343
H	0.9447149086301069 0.2293779081073160 -0.0215722382893087	0.111025
H	0.8842505987696555 0.2877727048752552 -0.0011336247655296	0.123337
Cd	0.4998885479388941 0.6734454702638962 0.7457685851669098	0.771873
Cd	-0.0002001796091110 0.1734486705481231 0.7544073490118910	0.772879
Cd	0.4999365947583067 0.3268306022988261 0.2456066136409071	0.772559
Cd	-0.0002211302068490 0.8267316215312522 0.2447560179418281	0.772820
B	0.4999703993374963 0.6747676854019109 0.1813503396195230	1.066878
B	-0.0009550713390167 0.1733910405048206 0.3188745416724181	1.067048
B	0.4999405492122926 0.3276999508730440 0.6810652999778702	1.068099
B	-0.0008982761072260 0.8267319354050083 0.6800519169158039	1.066712
F	0.4997785143261553 0.6286563153867722 0.2191108978695559	-0.463741
F	0.9764522428788536 0.2126672695015367 0.2752653750103775	-0.462552
F	0.9778905688287021 0.1332350265250393 0.2746939570164112	-0.461055
F	0.5000151512348366 0.2816228623576996 0.7203859323488007	-0.467389
F	0.9762885000679851 0.7875123469319539 0.7234551809821009	-0.462109
F	0.9779464031763933 0.8669756655514390 0.7238023916458057	-0.461013
F	0.5385641251942453 0.6972583110087527 0.2255666588115288	-0.462745
F	0.0437999240251775 0.1743075347478976 0.2813340249204835	-0.465987
F	0.4614112002474408 0.3503824032568666 0.7246620887701518	-0.462492
F	0.4614755374011145 0.6975397093524504 0.2249530772852192	-0.462692
F	0.5384562979404658 0.3504692506152765 0.7244810261794902	-0.462249
F	0.0438125282379754 0.8257473669311702 0.7188910275805339	-0.466006
F	0.4997229915540324 0.6718728092347447 0.5042389261043831	-0.597874
F	-0.0022947686315100 0.1733764250976323 0.4892759955535480	-0.462398
F	0.4998903531938314 0.3263673103362726 0.0039621386098065	-0.597969
F	0.0006664636368932 0.8268455305868837 0.0037645932822980	-0.597326
F	0.5000685582094141 0.6758994568848107 0.0109663212747061	-0.461767
F	0.0009919940303430 0.1732992682281588 -0.0041440071803714	-0.598136
F	0.4999058038503266 0.3284000965249971 0.5107873560603365	-0.461744
F	-0.0018691164021512 0.8266005301701025 0.5096725502358226	-0.461493
N	0.5557785827954324 0.7287794229286080 0.7587874647279104	-0.227785
N	0.9461809145517900 0.1154614302749646 0.7407363725894005	-0.229537
N	0.0559475083487859 0.2286216873217187 0.7396391714779966	-0.230192
N	0.4462391646694214 0.6153692315652095 0.7610997003598285	-0.229638
N	0.4449597112320876 0.2704114644424652 0.2606658615088289	-0.228853
N	0.0546784432440511 0.8836935144118064 0.2607179650311234	-0.228902
N	0.9447697401308762 0.7705440568566500 0.2592535286785050	-0.230448
N	0.5545811252011874 0.3837815900867441 0.2595428993207252	-0.229271
N	0.4440369167924741 0.7288177311027745 0.7589670757379787	-0.228430
N	0.0546814347662911 0.1164916884544089 0.7391790016562875	-0.228540
N	0.9447669921811938 0.2296273087944035 0.7410434531536738	-0.230605
N	0.5535399774351607 0.6153980545688464 0.7610585049801458	-0.229931
N	0.5548579476215715 0.2704126313812708 0.2606275890737811	-0.229598
N	0.9461499313049370 0.8847245452030559 0.2594566771931979	-0.229903
N	0.0559135679488515 0.7715669071809917 0.2602750905855519	-0.230005
N	0.4452236787480913 0.3837685748551189 0.2595523842272033	-0.229293
	  	
