#======================================================================

# CRYSTAL DATA

#----------------------------------------------------------------------

data_VESTA_phase_1


_pd_phase_name                         BFFIVE_3_Zn
_cell_length_a                         14.25722
_cell_length_b                         14.25640
_cell_length_c                         8.50435
_cell_angle_alpha                      90.00414
_cell_angle_beta                       89.98979
_cell_angle_gamma                      88.89055
_symmetry_space_group_name_H-M         P 1
_symmetry_Int_Tables_number            1

loop_
_symmetry_equiv_pos_as_xyz
   x, y, z

loop_
   _atom_site_label
   _atom_site_fract_x
   _atom_site_fract_y
   _atom_site_fract_z
   _atom_site_charge
C	0.2514305708273302 0.4580473244496215 0.6381035085614449	0.055886
C	0.2448771184475797 0.0437694728805650 0.6445192867954284	0.057101
C	0.2445752075856539 0.4462372036878189 0.3673056276993337	0.047843
C	0.2526087895029413 0.0554323749979507 0.3739212325952582	0.047248
C	0.0553985156043752 0.2525866055730088 0.3738881494654894	0.047404
C	0.4462558365893375 0.2446157924259882 0.3672721575136553	0.048271
C	0.4580528154472035 0.2514718306104899 0.6380620437063439	0.055764
C	0.0436926025255470 0.2448695927153762 0.6444768258383290	0.057292
C	0.9461295032513257 0.2445713923771453 0.6327331005999219	0.047927
C	0.5555079559052069 0.2526594538161833 0.6260113518443823	0.047332
C	0.5438278141966966 0.2449136338867185 0.3554500306413081	0.056924
C	0.9579383550514103 0.2514108166948210 0.3619166481261823	0.055359
C	0.7448684389260757 0.0438066993789035 0.3554276858102426	0.056825
C	0.7514215240666829 0.4579962792502453 0.3619851852319085	0.055120
C	0.7525867483522903 0.0555068924497456 0.6259961050365273	0.047125
C	0.7445784824427741 0.4461987018722142 0.6328026780651417	0.048085
C	0.4462419433338857 0.7445912635643552 0.6328126011819153	0.048400
C	0.0554757820690366 0.7526260576616209 0.6261116460148051	0.047126
C	0.0438085863483620 0.7449053228017134 0.3555363328304598	0.057005
C	0.4580473034791028 0.7514295995834916 0.3620022136606678	0.055441
C	0.2448868737015195 0.5438142461585970 0.3555346526381423	0.056951
C	0.2514461187836518 0.9579659937292645 0.3619459431775274	0.055319
C	0.2526279368073797 0.5555044346247208 0.6261065317764372	0.046908
C	0.2446022337315230 0.9461949284312300 0.6327750114515169	0.048021
C	0.7514274646025476 0.9580463804645499 0.6380276838060892	0.055814
C	0.7448963763492369 0.5437704110700723 0.6445913809651419	0.057505
C	0.7445837762287580 0.9462305439051291 0.3672231741163495	0.047983
C	0.7526094727915701 0.5554551121327433 0.3740094336047933	0.047777
C	0.5555088389606769 0.7526053513388301 0.3739751207997538	0.047398
C	0.9462366532055844 0.7446011074809085 0.3673306983841734	0.048041
C	0.9580175672401385 0.7514463124141790 0.6381379461082202	0.055841
C	0.5438178392627844 0.7448847667177991 0.6445536354555539	0.056713
H	0.2525106251398516 0.4228518668420383 0.7519399056637378	0.112828
H	0.2409285812170895 0.0790566348710255 0.7581776605600152	0.112525
H	0.2421148301875449 0.3997645478467737 0.2650018403839197	0.125437
H	0.2551054668249483 0.1021721490504703 0.2719357356592051	0.125571
H	0.1021554459417643 0.2550801773579137 0.2719019296920648	0.125529
H	0.3997797161393377 0.2421519858695555 0.2649979274172453	0.125285
H	0.4228639743759449 0.2525452598227920 0.7519143573427189	0.112825
H	0.0789541690602502 0.2409523134098706 0.7581293807842320	0.112378
H	0.8996710414638687 0.2421303754580418 0.7350665220881759	0.125413
H	0.6022729425164484 0.2551412382256992 0.7279403879471227	0.125452
H	0.5791014012095369 0.2409838545955112 0.2417791069255362	0.112669
H	0.9227234083029869 0.2524927612263013 0.2481205375313141	0.112908
H	0.7409452217374628 0.0790669174258105 0.2417685109110831	0.112736
H	0.7525003878274348 0.4227720703252565 0.2481702539785414	0.113016
H	0.7550682571212339 0.1022813608474081 0.7279464290736810	0.125495
H	0.7421206058267085 0.3997281414428062 0.7350933891765472	0.125384
H	0.3997845145425828 0.7421467284546198 0.7351329803215232	0.125354
H	0.1022212214157149 0.7551192404507957 0.7280584944537251	0.125444
H	0.0790743314745345 0.7409920174684788 0.2418654563347855	0.112598
H	0.4228412511366996 0.7525203725813807 0.2481860594461802	0.112963
H	0.2409599869937116 0.5790887676563043 0.2418797680670838	0.112563
H	0.2525424769926654 0.9227355674470207 0.2481365363718952	0.112957
H	0.2551162157876433 0.6022785779056151 0.7280635497477507	0.125402
H	0.2421655500932058 0.8997436601556517 0.7350958752232275	0.125604
H	0.7525139494630568 0.9228540181229721 0.7518565362207134	0.112937
H	0.7410001806296064 0.5790518361731130 0.7582599729537970	0.112564
H	0.7421280527812569 0.8997493134605070 0.2649357366279798	0.125421
H	0.7551009191711741 0.6022271532493180 0.2720670568440778	0.125526
H	0.6022604536106956 0.7550923350023862 0.2719911461572594	0.125478
H	0.8997830979995488 0.7421396319653393 0.2650448120900323	0.125244
H	0.9228127399676815 0.7525417849245897 0.7519701721582377	0.112840
H	0.5790891435442331 0.7409707879348508 0.7582036574670949	0.112780
Zn	0.2508485413895679 0.2508704728046295 0.5030798613705740	0.686014
Zn	0.7508640051533112 0.2509132858187241 0.4968895046484949	0.685794
Zn	0.2509111479608532 0.7509078757691527 0.4969304826590776	0.686041
Zn	0.7509514335860696 0.7509312962053535 0.5030906274771755	0.686149
B	0.2515334681879864 0.2514292310590929 -0.0672693636055969	1.054033
B	0.7515532349631614 0.2515262631806813 0.0668797847979662	1.054633
B	0.2516558877844287 0.7516263676575354 0.0671706236123503	1.053824
B	0.7517220958121872 0.7517784627064623 -0.0671073629710336	1.053351
F	0.2546855363623645 0.2547321447081249 0.7571370260638213	-0.453726
F	0.2497614383883883 0.2496731704525973 0.2763535024550650	-0.566589
F	0.1844863036688849 0.1843227882311521 -0.0302907397522186	-0.450582
F	0.2251981855834019 0.3422628810161450 0.9804074131648888	-0.449039
F	0.3423179347579383 0.2251599172574711 0.9802482032771151	-0.448558
F	0.7495869779595280 0.2496265099591551 0.7235697677610216	-0.566525
F	0.7549557037476331 0.2548878731026786 0.2424272039857452	-0.454187
F	0.6844727982862364 0.1843272139861413 0.0300053163052658	-0.451218
F	0.7251276722082131 0.3422677680849519 0.0194279554628185	-0.448712
F	0.8423370144398653 0.2252287096865110 0.0193103679671781	-0.448774
F	0.2496305902511202 0.7496223269314686 0.7235498933733615	-0.566653
F	0.2547352225503128 0.7546616135937145 0.2427566467081596	-0.453968
F	0.1846145787804595 0.6845391996089628 0.0298390446934711	-0.450766
F	0.2253321606974585 0.8424769736232632 0.0198994088849694	-0.448439
F	0.3425082402112442 0.7254381524565392 0.0198073019216314	-0.448452
F	0.7548112156694405 0.7550010254250309 0.7573466858143396	-0.453683
F	0.7497320790772490 0.7496066604989653 0.2764441318434270	-0.566580
F	0.6846635962217618 0.6847557623149515 -0.0297906371576431	-0.450723
F	0.7255164873967177 0.8426366680160683 0.9803219065596982	-0.448292
F	0.8425461731201660 0.7253987982013597 0.9801259247758634	-0.448513
N	0.4040525308472395 0.2481681202645269 0.5088173626296724	-0.184995
N	0.0976560191620531 0.2496602533610519 0.5153366303735887	-0.185443
N	0.2481222887163920 0.4040348385330074 0.5088562064814796	-0.184563
N	0.2496638480990957 0.0977172087713469 0.5153700608016802	-0.185187
N	0.9039396847200006 0.2481399015009105 0.4911794116407421	-0.184307
N	0.5977821811583617 0.2497074844832890 0.4845452394517204	-0.185315
N	0.7481453185186983 0.4039995125049952 0.4912523501612033	-0.184532
N	0.7496450391907652 0.0977767457750147 0.4845384739411336	-0.185325
N	0.4040514161449547 0.7481478631423785 0.4912683818364246	-0.184788
N	0.0977589221764607 0.7496934230471234 0.4846516241801372	-0.185186
N	0.2481795561717309 0.9039786347137552 0.4912329376047990	-0.184659
N	0.2496879764658990 0.5977778408931543 0.4846454257988999	-0.185095
N	0.9040354964489382 0.7481599650759317 0.5088788781891370	-0.184727
N	0.5977803846528210 0.7496668543814257 0.5154157415961689	-0.185598
N	0.7481483591343286 0.9040468640085463 0.5087829686806116	-0.184790
N	0.7496964410617611 0.5977260724704906 0.5154706434127594	-0.186223
	  	
