#======================================================================

# CRYSTAL DATA

#----------------------------------------------------------------------

data_VESTA_phase_1


_pd_phase_name                         BFFIVE_3_Fe
_cell_length_a                         14.40437
_cell_length_b                         14.40476
_cell_length_c                         8.40116
_cell_angle_alpha                      89.92297
_cell_angle_beta                       89.94807
_cell_angle_gamma                      92.10267
_symmetry_space_group_name_H-M         P 1
_symmetry_Int_Tables_number            1

loop_
_symmetry_equiv_pos_as_xyz
   x, y, z

loop_
   _atom_site_label
   _atom_site_fract_x
   _atom_site_fract_y
   _atom_site_fract_z
   _atom_site_charge
C	0.2527490941664365 0.4470430362266342 0.6323748328024833	0.049749
C	0.2458367147941943 0.0540660728838205 0.6298255919677215	0.050012
C	0.2467947719071784 0.4578292609293859 0.3590471278683954	0.048662
C	0.2515160461217893 0.0435724818272756 0.3567302047012914	0.051556
C	0.0435579174128496 0.2515285147294589 0.3566709745847904	0.051312
C	0.4577678796133364 0.2468415052472853 0.3590052603097396	0.048853
C	0.4470517149393713 0.2527263550076251 0.6323298889724989	0.050472
C	0.0540308943877898 0.2459074039108937 0.6297785564320099	0.050079
C	0.9576463629925712 0.2468017842978377 0.6408719364021919	0.048997
C	0.5434757519499133 0.2515047016039003 0.6431592542351959	0.050869
C	0.5541776081648856 0.2459049692118608 0.3700355997692437	0.050134
C	0.9471459068787852 0.2527254843612011 0.3675135510089192	0.049977
C	0.7457819361147220 0.0542182387060942 0.3699848412125240	0.049885
C	0.7527238329459371 0.4470794532390566 0.3674435282797224	0.049880
C	0.7514893861104625 0.0433776163398020 0.6430996752557505	0.051861
C	0.7468359428925738 0.4576760301721400 0.6407939605403667	0.049320
C	0.4576963827112196 0.7468352588761886 0.6408909102911432	0.049735
C	0.0433610671933675 0.7515416058107498 0.6431542408595929	0.051790
C	0.0542028974718427 0.7458673300027346 0.3700523502329605	0.049650
C	0.4470412544794611 0.7527455238552936 0.3675476145585290	0.049807
C	0.2458564086349444 0.5542172286804667 0.3700833724663447	0.049975
C	0.2527318960043798 0.9471699159079859 0.3676631764308102	0.050465
C	0.2515294636528076 0.5434558088323936 0.6432089846542449	0.051012
C	0.2467693455679651 0.9576816053635939 0.6410120003734396	0.049461
C	0.7527012467201267 0.9469876425309718 0.6321809447663153	0.049233
C	0.7458848247471795 0.5540569078769798 0.6294864350905915	0.049528
C	0.7467351615303747 0.9578233755084318 0.3588881433973021	0.049114
C	0.7514844441102644 0.5435038008469469 0.3564213990568698	0.052091
C	0.5434640998674485 0.7514746542960384 0.3565118629802031	0.051516
C	0.9578261023083758 0.7467871273304545 0.3588931454578338	0.048941
C	0.9469828943540700 0.7527402786746317 0.6321604176828550	0.049073
C	0.5540764020708420 0.7458750437960668 0.6296052844179751	0.049353
H	0.2547669958350682 0.4023222135719990 0.7372770451938646	0.119165
H	0.2432658138692204 0.0988303469819036 0.7344621966953362	0.119342
H	0.2441621009844980 0.4230682764126463 0.2437883446140375	0.107987
H	0.2525486228993570 0.0784882402476334 0.2414507123745899	0.107022
H	0.0784948782867184 0.2525354877041880 0.2414380573702849	0.107099
H	0.4230059228989841 0.2442045701185876 0.2437362793254415	0.107869
H	0.4023766841410314 0.2546965171860523 0.7372636317014326	0.118909
H	0.0987897631257048 0.2433629979734744 0.7344727891175027	0.119254
H	0.9227717084293356 0.2441896341225337 0.7561825457971967	0.107785
H	0.5783246238061709 0.2525132660864887 0.7583311088786785	0.107400
H	0.5989985017121524 0.2433442443637936 0.2653146666418346	0.119945
H	0.9025416101642517 0.2547635502589035 0.2626119303469290	0.119230
H	0.7431455609419967 0.0991118911856295 0.2653051960231257	0.120034
H	0.7547540808964810 0.4024109210188169 0.2626347996069232	0.119241
H	0.7524998997039292 0.0781661033566741 0.7583409553424166	0.107407
H	0.7442439828974710 0.4228552354310320 0.7562123710229687	0.107653
H	0.4228939207387206 0.7442198834238419 0.7562931224656996	0.107609
H	0.0781365905549300 0.7525697816357745 0.7584739021770055	0.107247
H	0.0991100871602074 0.7432764158654314 0.2654161805291610	0.119958
H	0.4023446403882168 0.7547807115656888 0.2627426191935722	0.119129
H	0.2432618756394847 0.5990699787618863 0.2653483274387056	0.119789
H	0.2547785457002911 0.9025399084175864 0.2628449913674455	0.118699
H	0.2525554404280954 0.5782672780996390 0.7583866289963371	0.107374
H	0.2441192275015943 0.9228032707470217 0.7563401096858124	0.107701
H	0.7547022573049458 0.9022293499828724 0.7370446527389504	0.119116
H	0.7433683993730233 0.5988725671572359 0.7340227740376113	0.119402
H	0.7440875505080647 0.9231223351517771 0.2435947159983713	0.107893
H	0.7525167638488922 0.5783742198919363 0.2411074214929748	0.106924
H	0.5783137699718770 0.7524805649433267 0.2412127452154479	0.107126
H	0.9231267787841866 0.7441197679551399 0.2435716689745902	0.107917
H	0.9021906997269717 0.7547340918119039 0.7369819766896584	0.119041
H	0.5989232769399427 0.7433426130609052 0.7341450502359340	0.119455
Fe	0.2505949894982113 0.2505944385888590 0.4921351435205583	0.749587
Fe	0.7505879588096277 0.2505797903970080 0.5080774325465138	0.749000
Fe	0.2505785079645853 0.7505971988610577 0.5079671122777507	0.749083
Fe	0.7505774285547732 0.7505987802541104 0.4922035500976606	0.749364
B	0.2503483833321969 0.2502450776669919 0.0632183852811232	1.054493
B	0.7504119428664403 0.2502506830780437 -0.0625769513608261	1.054166
B	0.2502953017804143 0.7502974867706724 -0.0630202254473620	1.053761
B	0.7506428584718404 0.7505994653172493 0.0638827328759458	1.053767
F	0.2500871458655315 0.2500548585079599 0.7169309963605360	-0.531757
F	0.2526429485551443 0.2527144883035640 0.2437477934613735	-0.431942
F	0.1823448760246084 0.1826612093149859 0.0251462051575851	-0.447344
F	0.2274318957265279 0.3396780519361944 0.0175800723667626	-0.442820
F	0.3396303689177897 0.2267233130671576 0.0178406919986360	-0.442234
F	0.7526497833923539 0.2523166023790007 0.7572243855762242	-0.431368
F	0.7504180461453630 0.2504222043846319 0.2834699694942441	-0.531079
F	0.6826727266640724 0.1823330587231338 -0.0233350092261089	-0.448530
F	0.7269890518491516 0.3396046892289000 -0.0175015493975083	-0.442743
F	0.8397477762565728 0.2272193971964794 -0.0169713831349668	-0.442664
F	0.2523623384008167 0.7521575209684346 0.7565741815448535	-0.431420
F	0.2504583836611761 0.7505096299212362 0.2832815668663987	-0.531438
F	0.1825053195026641 0.6825687016111338 0.9766739628097169	-0.447696
F	0.2272092684292151 0.8397596789114674 -0.0182700152442018	-0.442150
F	0.3397494006532167 0.7271931260676959 -0.0178488773998067	-0.442488
F	0.7499692912761836 0.7499773172828306 0.7169492720863698	-0.531320
F	0.7530431243141135 0.7533654522607173 0.2437018855358218	-0.430426
F	0.6824136262183121 0.6828442632539539 0.0261582487147587	-0.448593
F	0.7278015777406281 0.8399315299080504 0.0173888018914761	-0.442452
F	0.8398902469026667 0.7267529422736977 0.0182496492550941	-0.442655
N	0.4040872085068035 0.2507295444284803 0.4899042433605728	-0.203542
N	0.0972023978445191 0.2484920697128182 0.4874307199843643	-0.204201
N	0.2507140911557021 0.4041138184335428 0.4899457328531117	-0.203494
N	0.2484348724826594 0.0972293848918735 0.4874155588205575	-0.204462
N	0.9040492725441143 0.2506744749596218 0.5100182189054878	-0.203412
N	0.5972081353169333 0.2484628127195081 0.5123536573519245	-0.204196
N	0.7506993711783909 0.4040490522981134 0.5100402625072268	-0.203549
N	0.7484194840280204 0.0971836617241700 0.5123530118627240	-0.204361
N	0.4040445217440892 0.7507226857303750 0.5101290224973211	-0.203735
N	0.0971837283518387 0.7484835411315685 0.5124688732061173	-0.203988
N	0.2506808676672034 0.9040852376599059 0.5102119790858700	-0.204068
N	0.2484515893726838 0.5972225745416304 0.5124001145768001	-0.203764
N	0.9040503055999602 0.7507019578540178 0.4896721136170041	-0.203594
N	0.5971687136662154 0.7484090808099757 0.4871828518801860	-0.203839
N	0.7506790250490787 0.9040679444880126 0.4897374844153843	-0.203768
N	0.7484260127383717 0.5971892928047013 0.4870636702171189	-0.204214
	  	
