#======================================================================

# CRYSTAL DATA

#----------------------------------------------------------------------

data_VESTA_phase_1


_pd_phase_name                         BFFIVE_16_Cu_i
_cell_length_a                         24.88956
_cell_length_b                         24.90829
_cell_length_c                         8.55724
_cell_angle_alpha                      89.61256
_cell_angle_beta                       90.01768
_cell_angle_gamma                      90.14785
_symmetry_space_group_name_H-M         P 1
_symmetry_Int_Tables_number            1

loop_
_symmetry_equiv_pos_as_xyz
   x, y, z

loop_
   _atom_site_label
   _atom_site_fract_x
   _atom_site_fract_y
   _atom_site_fract_z
   _atom_site_charge
C	0.4911614204315927 0.3925359257530105 0.3802180665463797	0.092783
C	0.4902853343864728 0.3369051550464757 0.3705287559224670	-0.168609
C	0.9552988608451435 0.6142012790744980 0.9453064477031953	-0.124843
C	0.9553933093079132 0.5583977082338714 0.9472562315680547	-0.127625
C	0.5060287637029215 0.6071817598824341 0.3725207445418156	0.089993
C	0.5070452266086176 0.6627892095275985 0.3592662786404804	-0.169901
C	0.0451492303950870 0.3859367124219058 0.9536579711847709	-0.123441
C	0.0449155152840529 0.4417276120688108 0.9515429728747473	-0.127144
C	0.6070103465602601 0.4938518391641050 0.3747248362079006	0.091827
C	0.6626692426302013 0.4927839329751650 0.3635163847143452	-0.170915
C	0.3857411006529223 0.9550373989172454 0.9476480196788607	-0.124167
C	0.4415898997235336 0.9553836491874912 0.9479299512491727	-0.126143
C	0.3932177179844647 0.5085974873933016 0.3748890542156236	0.092992
C	0.3375943487990283 0.5098501888955926 0.3629360558051627	-0.171171
C	0.6145871111590926 0.0453375096756620 0.9517669045194594	-0.125000
C	0.5587452247127609 0.0450897304793578 0.9502622619752711	-0.126195
C	0.5126382998327371 0.3887971109749800 0.6449952132885339	0.094398
C	0.5129395310373254 0.3330663668939907 0.6444729723125066	-0.175643
C	0.0449334090249750 0.6144024968532869 0.0574560409584287	-0.123914
C	0.0448762491246144 0.5586169174943271 0.0572388719777038	-0.128244
C	0.4899412370978289 0.6116402907704592 0.6402955150464537	0.087550
C	0.4901195131479617 0.6673546308831397 0.6362588466666108	-0.173144
C	0.9555997614512438 0.3859676166441409 0.0661727100546881	-0.122483
C	0.9554933373730137 0.4417510890473648 0.0617761061131341	-0.130035
C	0.3887552910059427 0.4864885027344664 0.6395721399731575	0.092798
C	0.3329910671758021 0.4866347787236719 0.6367674214312610	-0.174008
C	0.6140320906907348 0.9555566509267329 0.0640420446960416	-0.124167
C	0.5582067713800933 0.9554743966957134 0.0604336551010509	-0.128625
C	0.6111851533526553 0.5093018964385954 0.6427488437565354	0.091312
C	0.6669403922500086 0.5091912294321440 0.6407158206647297	-0.174343
C	0.3857368539667184 0.0443632084961898 0.0595188990872594	-0.121075
C	0.4415643053572860 0.0445776473844840 0.0575184205960598	-0.127490
C	0.5451986288707801 0.8856202727565495 0.5464460805948712	-0.123560
C	0.5449094549942806 0.9414022191290787 0.5485739001911419	-0.127650
C	0.0060276236380275 0.1067832458538944 0.1282558608451753	0.088813
C	0.0070212457253557 0.1623429088681912 0.1413067078524445	-0.168516
C	0.4552518035822585 0.1138462975777595 0.5543020695040990	-0.123227
C	0.4553160559926829 0.0580535252740669 0.5525680499366518	-0.129869
C	0.9911316571598847 0.8921058659148968 0.1188532691666130	0.092134
C	0.9902803640495955 0.8364400142554642 0.1285976639239969	-0.170329
C	0.1146242174659447 0.5451417995995117 0.5476859434943714	-0.123488
C	0.0587817528568253 0.5448900284152343 0.5492495062067367	-0.128078
C	0.8931839422091491 0.0086248047711175 0.1251594259273628	0.093398
C	0.8375564312059205 0.0098096117385610 0.1369370138945886	-0.170874
C	0.8858110497726850 0.4547902995521792 0.5525143816266658	-0.123232
C	0.9416541336948558 0.4551402213572881 0.5522647906191347	-0.128221
C	0.1069988411902080 0.9938666356392512 0.1256675040813025	0.091089
C	0.1626659276167713 0.9927591882888482 0.1367493269270721	-0.169830
C	0.4556050656596083 0.8860870903372318 0.4340520730850921	-0.122864
C	0.4554378670708487 0.9418528985831115 0.4384839688382897	-0.129660
C	0.9898367949359268 0.1123779725252143 0.8605027666085181	0.090140
C	0.9899885889262259 0.1680662638965968 0.8642737084485993	-0.173086
C	0.5448877129677220 0.1144952381605459 0.4423733630072841	-0.124594
C	0.5448167971313510 0.0587083898294122 0.4427497960974732	-0.127867
C	0.0125417915400741 0.8896157480136774 0.8540765314373625	0.093780
C	0.0128715010490654 0.8338775984400628 0.8545906231010094	-0.173490
C	0.8857791677633160 0.5445269279489179 0.4399456789173344	-0.123114
C	0.9416058138511472 0.5447511034842530 0.4419402049613416	-0.129055
C	0.1110396882244903 0.0095138167712673 0.8570969975323456	0.089995
C	0.1667904916217775 0.0093249380456980 0.8589679218730063	-0.172740
C	0.1140583849671876 0.4558008569446017 0.4360022563949182	-0.124443
C	0.0582340114821249 0.4556616283195907 0.4396916622187013	-0.127429
C	0.8887651860312329 0.9866580471609565 0.8612349217784705	0.094446
C	0.8330038748671991 0.9867034877227955 0.8639235368244325	-0.173333
C	0.5012662705503557 0.3058317129546730 0.5047894825516529	0.172427
C	0.5006623268505604 0.2489101840198734 0.5006186219213339	-0.116655
C	0.5002095811151451 0.1999400231709565 0.4995022990736238	-0.095940
C	0.5000590061987905 0.1429963786027231 0.4985914300535530	0.125407
C	0.5000501143519134 0.0295692369408321 0.4971698244760179	0.067754
C	0.0012523926919127 0.8059988724414419 0.9943116667492944	0.173501
C	0.0006747077606745 0.7490565223780671 0.9985951839671141	-0.116594
C	0.0002400892934744 0.7000804184886235 0.9999479061332206	-0.096704
C	0.0000913183782579 0.6431375558849846 0.0010716877561216	0.125961
C	0.0001260599311197 0.5296977749092343 0.0028646118816593	0.069402
C	0.4991455689911997 0.6942266370700292 0.4933533464423931	0.171643
C	0.5000193019180534 0.7511419314517570 0.4869424092122893	-0.115745
C	0.5004445671091707 0.8001157848121859 0.4866994076470318	-0.096948
C	0.5005094302118676 0.8570334395529445 0.4885571614555167	0.124870
C	0.5000777225302251 0.9704352546762582 0.4951162138401298	0.068257
C	0.9990532230211571 0.1943403007687275 0.0070922689079284	0.170311
C	0.9999149778186245 0.2512204904002645 0.0133557228669544	-0.114741
C	0.0003438799356929 0.3001929345358648 0.0134653816505108	-0.097674
C	0.0004540353362019 0.3571206025490349 0.0116028553004804	0.124885
C	0.0001383542979421 0.4705500643928401 0.0050944995430631	0.066864
C	0.6939746333357867 0.5005242183690481 0.4986244357524215	0.172127
C	0.7509315222867725 0.4997168963350445 0.4938419485034379	-0.115082
C	0.7999457900923846 0.4993323646260265 0.4944378699301847	-0.097293
C	0.8569311523533727 0.4994635370661167 0.4954347559869888	0.124498
C	0.9704774401146505 0.5000401337505818 0.4971502206919122	0.067748
C	0.1939044661263109 0.0005637926687008 0.0012750946127465	0.171413
C	0.2508676388445419 0.9997390372356062 0.0059870440275009	-0.116001
C	0.2998808339214686 0.9993675261102772 0.0053543296242321	-0.097289
C	0.3568634856357832 0.9995028554278060 0.0043772450289186	0.124346
C	0.4704251365111028 0.0000706201066469 0.0027093843096671	0.066922
C	0.3061381878780049 0.4989160415467524 0.4961491203023413	0.173260
C	0.2491955340186149 0.4999106398899176 0.4905095416760866	-0.115937
C	0.2001861960716172 0.5004191295474034 0.4896407394263053	-0.097271
C	0.1431945558236837 0.5005506649923743 0.4905989754254868	0.127517
C	0.0296647187155748 0.5001774384250359 0.4958131450248524	0.067653
C	0.8061254902767836 0.9989005012585856 0.0040315329057252	0.172482
C	0.7491712354108053 0.9998590848303468 0.0094680097785834	-0.116156
C	0.7001627231858054 0.0003685230002239 0.0101324271793025	-0.096042
C	0.6431819722416932 0.0005158564376627 0.0091246845372036	0.125355
C	0.5296330054705494 0.0001978151846780 0.0040440370048440	0.067068
H	0.4842997054723537 0.4194957245205152 0.2805412682611432	0.119583
H	0.4811534985560780 0.3176577839404430 0.2598283337150054	0.124788
H	0.9207153735921941 0.6361092864703032 0.9000561071643867	0.112191
H	0.9208508946396889 0.5364784599027219 0.9015391728099427	0.106955
H	0.5107280809029593 0.5800417731428615 0.2732659708993875	0.118598
H	0.5138948952757917 0.6816315856692026 0.2459401363465299	0.124928
H	0.0797659000928127 0.3639323693252290 0.9099199966069023	0.111377
H	0.0793838679480726 0.4635526596779054 0.9042112868187226	0.106382
H	0.5799100994356877 0.4890410249416107 0.2748032788186668	0.120061
H	0.6816744420999384 0.4859272834165974 0.2509607852715631	0.125219
H	0.3637337426797815 0.9204703838087100 0.9031844233376535	0.111360
H	0.4634391513907630 0.9210503874125880 0.9017072963912086	0.106629
H	0.4205437264266226 0.5152164289652406 0.2762577720936409	0.120089
H	0.3187115254378357 0.5191954052071717 0.2514021772242874	0.124731
H	0.6368116987333216 0.0800508181929218 0.9078678390370748	0.111835
H	0.5371160620247700 0.0796493361663164 0.9031768662350708	0.106096
H	0.5207661332018652 0.4114913129309589 0.7508395470951552	0.101375
H	0.5219850246785409 0.3107601242549449 0.7509236607305388	0.124514
H	0.0795322574328077 0.6364778694297883 0.1017937507563531	0.111877
H	0.0794137774991744 0.5368431926073803 0.1036986691401408	0.106214
H	0.4835805329023539 0.5895126440093644 0.7490592237240226	0.106205
H	0.4833772263631214 0.6899326197504579 0.7428013942729128	0.123426
H	0.9210734446877871 0.3639805067402404 0.1121761183898457	0.111074
H	0.9209120559453227 0.4636154821908871 0.1066342932341054	0.107799
H	0.4111145795117597 0.4775419607090273 0.7461277692063290	0.103137
H	0.3103652930938703 0.4774162655734379 0.7423355763345487	0.124266
H	0.6358041345624665 0.9209630427176011 0.1099168986843817	0.111875
H	0.5361152899963914 0.9208395198970015 0.1057855903961492	0.107522
H	0.5888089001268594 0.5147893863494052 0.7508857165305587	0.102170
H	0.6893873675702354 0.5155575882721553 0.7480615376912867	0.124839
H	0.3637137203298119 0.0787549777352253 0.1042997588331460	0.110571
H	0.4634285889171316 0.0791329855430005 0.1030074576446194	0.106164
H	0.5798403642541384 0.8634290507588053 0.5901058721355852	0.111411
H	0.5793974155295086 0.9630291757990068 0.5958311292250924	0.106835
H	0.0107982796241022 0.0793105032291839 0.2277300226197379	0.119414
H	0.0139371394235736 0.1806915303999369 0.2545605569071508	0.124753
H	0.4206639024374176 0.1355993625511615 0.5992896783000358	0.111728
H	0.4207486716551224 0.0359761754087241 0.5982846394494774	0.108718
H	0.9843242837360985 0.9186781915786035 0.2184210684962633	0.121119
H	0.9811799761133737 0.8166987973416219 0.2393153384109007	0.124564
H	0.1368770651708979 0.5796918706293283 0.5912973046566149	0.110696
H	0.0371762464765911 0.5792726887368360 0.5960881940657387	0.106731
H	0.9204614910511132 0.0151725051506606 0.2237087394749324	0.119733
H	0.8186771136030345 0.0191120383760101 0.2481197586776455	0.124811
H	0.8637977873159129 0.4200588829990632 0.5972059621718260	0.111475
H	0.9635083526150304 0.4206373204716388 0.5987883228690858	0.107280
H	0.0799025534962035 0.9889040673275463 0.2256944546227865	0.120268
H	0.1817056542217944 0.9858066424396681 0.2494946564605472	0.124885
H	0.4211046471274126 0.8642636299216095 0.3880887513719556	0.111508
H	0.4208027452217573 0.9638624103906205 0.3935941775393914	0.107123
H	0.9834354535127096 0.0906338447002040 0.7519729816725104	0.103388
H	0.9831978161271930 0.1910740794751384 0.7576188035341754	0.123560
H	0.5794897936784386 0.1367517630235091 0.3979946701123908	0.112270
H	0.5793590101486051 0.0371303534398996 0.3964476370378055	0.106457
H	0.0206573270108342 0.9127799214858274 0.7481757378513124	0.101719
H	0.0219059711106801 0.8120830039090690 0.7481086273228862	0.124287
H	0.8637327217798529 0.5790635114668322 0.3948027976632437	0.111672
H	0.9634456053672010 0.5794750656917033 0.3961271906015937	0.107481
H	0.0885842689901688 0.0151117674448902 0.7488860517602222	0.102959
H	0.1891724490240048 0.0157440981502593 0.7512935866512994	0.124178
H	0.1358406133551586 0.4213840111221155 0.3903695966269731	0.111682
H	0.0361461454927933 0.4211782729938691 0.3946715648278925	0.106058
H	0.9111437436827208 0.9778030313838926 0.7550164351852076	0.102915
H	0.8104042272404554 0.9774883348109993 0.7585766266300846	0.124009
Cu	0.5000365114680704 0.4999754264713310 0.5058508432257574	0.697462
Cu	-0.0000029033463535 0.0001095639274602 0.9945314118640221	0.697622
B	0.4988665438949978 0.5003944118816787 0.9477011943854881	1.060659
B	0.9985933346377613 0.0015311337388182 0.5531038624928800	1.061607
F	0.4998300537989594 0.4993772341418672 0.2697080756009923	-0.613571
F	0.9984716459026899 0.0037228581538710 0.7246192270866449	-0.482083
F	0.4986879790932611 0.5014188629373950 0.7759826371651319	-0.482866
F	0.9999685709080752 0.9978467254139780 0.2306514051151752	-0.613993
F	0.4609117135987780 0.4610461577212138 0.9909151232174119	-0.462736
F	0.9604866161062794 0.9620816357392472 0.5136617110590861	-0.463418
F	0.4842169202730765 0.5525265299112024 0.9935672559191813	-0.458177
F	0.9840381041000474 0.0532831973803915 0.5019058536146446	-0.458584
F	0.5518031223730037 0.4868099423555711 0.9902795371887276	-0.460091
F	0.0514482053199127 0.9874090122312175 0.5117365200242356	-0.459963
N	0.5018460863035081 0.4177949073294677 0.5156931481874469	-0.216219
N	0.0017850295239494 0.9179945971649952 0.9833928525328508	-0.218567
N	0.4980062021072361 0.5822594895047845 0.5110229391822614	-0.218395
N	0.9979577056282606 0.0824446998086461 0.9898590765208577	-0.217600
N	0.5819586419301854 0.5017279046757698 0.5124394387117861	-0.218219
N	0.0818819574851465 0.0018840810524068 0.9877642743194891	-0.217934
N	0.4181051527478198 0.4976068246828337 0.5113585203511636	-0.216822
N	0.9180924258480770 0.9977549566202061 0.9891260134602525	-0.217819
	  	
