#======================================================================

# CRYSTAL DATA

#----------------------------------------------------------------------

data_VESTA_phase_1


_pd_phase_name                         BFFIVE_18_Co
_cell_length_a                         13.56211
_cell_length_b                         14.71153
_cell_length_c                         8.43180
_cell_angle_alpha                      88.75074
_cell_angle_beta                       82.84224
_cell_angle_gamma                      89.52917
_symmetry_space_group_name_H-M         P 1
_symmetry_Int_Tables_number            1

loop_
_symmetry_equiv_pos_as_xyz
   x, y, z

loop_
   _atom_site_label
   _atom_site_fract_x
   _atom_site_fract_y
   _atom_site_fract_z
   _atom_site_charge
F	0.4475435604263133 0.3746053131835555 0.4533565665596884	-0.438068
F	0.5455356758716283 0.4841892246024481 0.7693117352526885	-0.539271
F	0.3960848578957364 0.5202839357543351 0.5256231433826823	-0.421675
F	0.9474723251124278 0.8736516139363638 0.4555137773648113	-0.436559
F	0.0460404778153514 0.9832877181959349 0.7671230054200806	-0.542812
F	0.8950491941511346 0.0190965493206136 0.5286180610210472	-0.420218
F	0.5632133330839270 0.4911585784636927 0.4351192890893041	-0.418506
F	0.4450562892325807 0.4886742018839073 0.2612524797566672	-0.431428
F	0.0618727765756990 -0.0088983491053835 0.4343500373449833	-0.418306
F	0.9418570769940701 0.9876135766011738 0.2638654149850135	-0.429761
C	0.7342902439783859 0.1707252868122547 0.6814507700275221	-0.421795
C	0.7897765946930634 0.1589689131429043 0.8222310718456733	0.201701
C	0.7745684754668365 0.1987552723677788 0.9729052063013021	-0.153053
C	0.6956677423443565 0.2619355748411114 0.0316682960776551	-0.143301
C	0.6803920079925305 0.3525921293769569 0.9785777288240096	0.218949
C	0.7440380764765451 0.4064669249966663 0.8541433839277145	-0.431357
C	0.8693352543851899 0.1836834370927456 0.2236582710754686	-0.427985
C	0.8497850881611069 0.1620696207445834 0.0587170723670732	0.209091
C	0.6174835734345895 0.2440716587377164 0.1530962828690483	0.203907
C	0.5925755684450298 0.1613993381861469 0.2549719840312942	-0.421896
C	0.2334569076394640 0.6708178862876246 0.6814887080736802	-0.421896
C	0.2882650334456775 0.6578417939089334 0.8228557250234771	0.201360
C	0.2744604949265676 0.6984583586419740 0.9729179616291859	-0.152710
C	0.1965140922430504 0.7624289730133795 0.0324041458340773	-0.145248
C	0.1814701709074706 0.8532428495794788 0.9801116815086872	0.220865
C	0.2442331399574813 0.9071165035142117 0.8546624035544047	-0.431523
C	0.3699078051799715 0.6830168886960186 0.2227247405312493	-0.428652
C	0.3493760688322216 0.6609616499465660 0.0585110050049190	0.210410
C	0.1187729631997763 0.7447272612422263 0.1547463176820964	0.206689
C	0.0933029218754791 0.6616072801287939 0.2550712568350804	-0.423129
C	0.2836348507493806 0.1663997417749387 0.3145750062779448	-0.419797
C	0.2274118777789669 0.1530289514633462 0.1760112866590744	0.193126
C	0.2342600098230362 0.1972169221940954 0.0259450582117551	-0.148281
C	0.3051096814063936 0.2682931607719490 0.9690213541486642	-0.147818
C	0.3157010084776431 0.3541302502207682 0.0387894545989221	0.206187
C	0.2488385970654408 0.3972405353343582 0.1704681262243633	-0.419108
C	0.1310008500340807 0.1802539271929798 0.7846425232114805	-0.436391
C	0.1606687550191693 0.1565464166488114 0.9448888305924741	0.216257
C	0.3816614087525341 0.2637733238680072 0.8409369354132403	0.206200
C	0.4102857756660436 0.1900540471093703 0.7254365551752778	-0.426453
C	0.7848659213316330 0.6666376636268256 0.3158358797971864	-0.420533
C	0.7287076581165191 0.6534202677368557 0.1771128078632328	0.195197
C	0.7353616660809066 0.6977955046181531 0.0273255525049763	-0.148625
C	0.8060183945708354 0.7690329148997365 0.9705821564212656	-0.149210
C	0.8161890936135135 0.8546557870405639 0.0409371593354805	0.209585
C	0.7487289084481769 0.8972594681914343 0.1722998205007641	-0.420896
C	0.6317616947086890 0.6815354338310206 0.7863923426114918	-0.436029
C	0.6613978945946203 0.6574739263714029 0.9465490050950334	0.215835
C	0.8824583435542581 0.7650191229494759 0.8421544046038116	0.207568
C	0.9107693354764164 0.6914999522538157 0.7260894698858668	-0.427249
H	0.7808354933395173 0.2010486115967851 0.5780842587302504	0.141472
H	0.6700760787525274 0.2155943399859902 0.7122865968137734	0.137558
H	0.7078818159394862 0.1052469663030216 0.6433197110876825	0.137093
H	0.7000383564728292 0.4326789926909853 0.7619988413621164	0.153361
H	0.8054726555570115 0.3640150847548088 0.7997661369894675	0.126161
H	0.7756273291148100 0.4654725766577944 0.9074483060127535	0.134743
H	0.9025723794384963 0.0623723515354202 0.7361852045413754	0.282495
H	0.8463318251030806 0.1285286218087901 0.3098609575481952	0.133949
H	0.8288679767626027 0.2458428195718713 0.2627988310342374	0.125785
H	0.9490504234525526 0.1943519672164082 0.2278709452720089	0.142297
H	0.5667066047096151 0.1793318900028555 0.3791152234395014	0.138217
H	0.6581861134552532 0.1173588286679104 0.2547099610840908	0.146373
H	0.5336153537938226 0.1217759139959840 0.2105492359148003	0.134227
H	0.5029944455261172 0.3341860044035113 0.2498599621368220	0.266702
H	0.2809682466679619 0.7011089236186856 0.5791170516126301	0.141761
H	0.1699390213302949 0.7164897115983346 0.7122355563317047	0.138125
H	0.2063878096890478 0.6058905369156038 0.6420631683834169	0.137071
H	0.1990408355809961 0.9335726042755770 0.7642002430371451	0.153786
H	0.3050924027565515 0.8645932470513061 0.7986770600132801	0.125730
H	0.2766021432542104 0.9659844301807076 0.9071913227466487	0.134206
H	0.3990602452921808 0.5596350964399170 0.7370972091393413	0.281994
H	0.3471553569275486 0.6281939603041784 0.3096802724172079	0.134301
H	0.3297557616384013 0.7453090169045520 0.2618532834314927	0.125710
H	0.4497671512131108 0.6935010862705374 0.2257341108996419	0.142039
H	0.0666064447373297 0.6788915752378737 0.3792511519005723	0.139140
H	0.1587469773021439 0.6173440492302293 0.2549879795609918	0.146036
H	0.0346455909542155 0.6225443105477172 0.2085386745663717	0.134609
H	0.0053149115364739 0.8350220983410258 0.2538978067094261	0.265842
H	0.2347946529958884 0.1887877387892150 0.4207426649407201	0.142496
H	0.3402931950816510 0.2187353051641369 0.2835474982126178	0.137895
H	0.3206847432688701 0.1033781961442978 0.3484061456498351	0.133811
H	0.2902281272004822 0.4234938113715340 0.2631488994848448	0.138574
H	0.1938341987004103 0.3480190251300385 0.2250974468556865	0.127614
H	0.2085416275322027 0.4549312276897876 0.1228736586927491	0.133028
H	0.1262370949092820 0.0481670891270475 0.2697322301617246	0.276114
H	0.1161988736266649 0.1185310820699730 0.7205018487933740	0.155281
H	0.1886082642018264 0.2212405955716465 0.7140075024953004	0.124211
H	0.0620642098214218 0.2209570924367915 0.7979446642193446	0.137494
H	0.4194810674378606 0.2168204649526223 0.6018692274433761	0.139167
H	0.3527618147408453 0.1375331000417252 0.7372083548418916	0.144690
H	0.4807144063524694 0.1574612336333218 0.7479972057479001	0.130772
H	0.4888432983875449 0.3714295810223863 0.7645231296044666	0.282749
H	0.7358807817523110 0.6889409097705915 0.4219166738181372	0.142633
H	0.8415480027081613 0.7189829439352059 0.2852170643783732	0.138480
H	0.8218571252879624 0.6036041373624660 0.3497195369634128	0.134150
H	0.7895364540922799 0.9230788185536447 0.2659837232324238	0.139182
H	0.6935704380389781 0.8477817716864715 0.2253499022166786	0.127576
H	0.7086525214970189 0.9550654548752755 0.1246175234588070	0.133884
H	0.6274763931118834 0.5488229545921980 0.2708210267600412	0.275207
H	0.6174249111937483 0.6199891461317625 0.7215131863824773	0.154629
H	0.6892257715621062 0.7228840380121837 0.7161701044505739	0.125104
H	0.5626448973641495 0.7219673430007066 0.7997222368022535	0.137538
H	0.9196606753096017 0.7185150748441467 0.6027140119341956	0.140038
H	0.8532083407190781 0.6389993745755885 0.7377525941129286	0.144096
H	0.9811686745234973 0.6587404482902833 0.7482810407741671	0.130447
H	0.9892621133932298 0.8738092597079031 0.7660543401070959	0.284175
N	0.8691915557060087 0.1030004505372629 0.8248151781282534	-0.143249
N	0.5973147619392482 0.3869033339708392 0.0608579659546205	-0.267894
N	0.9059058355917563 0.1032849408531223 0.9666542159368767	-0.248147
N	0.5606682237660954 0.3199674040878774 0.1640109864733621	-0.150797
N	0.3662056144068466 0.6002426560309760 0.8259800037225984	-0.139865
N	0.0990871720215511 0.8879833551899844 0.0639678085587776	-0.268361
N	0.4038239644141674 0.6007221382428765 0.9670365774706666	-0.249403
N	0.0626345293604712 0.8209126163863542 0.1673174223643364	-0.153172
N	0.1550529586088226 0.0903772027637904 0.1771385942548845	-0.153385
N	0.3943703153298682 0.3976653104256554 0.9603785740043260	-0.263149
N	0.1138811808833085 0.0910892908008995 0.0388806550287299	-0.254108
N	0.4321280978078721 0.3424796686936357 0.8414061800790787	-0.146662
N	0.6560993981018118 0.5909505669500826 0.1781341288957435	-0.152512
N	0.8946759477095779 0.8985997291654871 0.9625676024447213	-0.266124
N	0.6144509564278358 0.5920352971828908 0.0403090606454639	-0.253076
N	0.9326601379692588 0.8438118607731294 0.8427265904278145	-0.148672
B	0.4636296174087627 0.4690877519189746 0.4236709214565047	1.035776
B	0.9621504687105483 0.9683859263281447 0.4253737830701629	1.033101
Co	0.5064950802030166 0.4966757292150855 0.9964656995328105	0.777821
Co	0.0059325655116569 0.9956248826989093 0.9993448659649710	0.776673
	  	
