#======================================================================

# CRYSTAL DATA

#----------------------------------------------------------------------

data_VESTA_phase_1


_pd_phase_name                         BFFIVE_5_Co_i
_cell_length_a                         19.57293
_cell_length_b                         19.57499
_cell_length_c                         16.44566
_cell_angle_alpha                      89.94645
_cell_angle_beta                       89.97472
_cell_angle_gamma                      89.96418
_symmetry_space_group_name_H-M         P 1
_symmetry_Int_Tables_number            1

loop_
_symmetry_equiv_pos_as_xyz
   x, y, z

loop_
   _atom_site_label
   _atom_site_fract_x
   _atom_site_fract_y
   _atom_site_fract_z
   _atom_site_charge
F	0.2758790177156643 0.1858171594051765 0.3562166303600964	-0.459685
F	0.1840458532986566 0.2631294215553346 0.3555775113477188	-0.462487
F	0.2965732721661022 0.3036726139565050 0.3581483263795114	-0.462252
F	0.6936800508049312 0.7064975281921315 0.1540579611076906	-0.462781
F	0.7415554614460369 0.8161464493317284 0.1508587847449100	-0.462343
F	0.8126003340129747 0.7193531530722937 0.1525248134348227	-0.460063
F	0.6842984223708659 0.7617392104581522 0.6446056088728649	-0.461929
F	0.7767314559645785 0.6850369946749482 0.6439945352669658	-0.458528
F	0.7966997780929758 0.8029256184069669 0.6416987024494160	-0.461997
F	0.1940695219580687 0.2061756241727804 0.8464071805745325	-0.462942
F	0.3128000819028990 0.2202733700887718 0.8477708571800495	-0.460260
F	0.2408681380834924 0.3163098397769157 0.8488498862215210	-0.462616
F	0.2501365636738297 0.2492750662547242 0.4690649700314883	-0.446850
F	0.2499337077539677 0.2493146343377719 0.2133968525955864	-0.482418
F	0.7503992134998152 0.7500664623254835 0.0078815478654540	-0.482805
F	0.7505135531759809 0.7498592952969875 0.2649494988176441	-0.447239
F	0.7503548506858353 0.7484996586644196 0.5310522628055232	-0.445716
F	0.7498823768988894 0.7495104158118545 0.7867768464905599	-0.481625
F	0.2506135099484982 0.2504615441546291 0.9922827788750673	-0.483900
F	0.2503777971927322 0.2497218881548787 0.7350525949349990	-0.447988
N	0.3495605322475155 0.2474357711532907 0.6016288325772003	-0.209227
N	0.1508063471815713 0.2531820776917780 0.6023667067597013	-0.208956
N	0.2528549918544529 0.3495381922562291 0.6017516754976433	-0.210581
N	0.2471949241631700 0.1506398598169865 0.6023365825074524	-0.208919
N	0.6506879534328083 0.7473534615854707 0.8973064524008371	-0.178845
N	0.8493193755653201 0.7525847144024744 0.8964824853518627	-0.177405
N	0.7471814028968798 0.8491971733136179 0.8962940106039993	-0.179869
N	0.7525722839723454 0.6505256455415764 0.8976122922969030	-0.176832
N	0.6508744726687508 0.7531183381319295 0.3975109498730454	-0.208798
N	0.8494809920955757 0.7472631127097465 0.3981619866943436	-0.209795
N	0.7471489466812432 0.6505771657364461 0.3973902597935872	-0.208690
N	0.7529315183511979 0.8493046807463445 0.3981409259716495	-0.210401
N	0.3494349571027509 0.2525683040301491 0.1035896070488518	-0.177894
N	0.1507280723618148 0.2474537685620737 0.1027209709008511	-0.178429
N	0.2525401164284716 0.1504845372380303 0.1023269417576855	-0.178027
N	0.2473109241327815 0.3492721067657409 0.1038710685414708	-0.179261
C	0.3841742741780332 0.2148754161000241 0.6614027311838426	0.081346
C	0.4548172462890152 0.2134020456620626 0.6642629446233633	-0.183030
C	0.4935155583411258 0.2472935243679298 0.6043873535531332	0.102678
C	0.4564874620558338 0.2808540514803385 0.5427130246511381	-0.183287
C	0.3858003455949934 0.2795450380693468 0.5428263314557247	0.080750
C	0.5681963863496226 0.2480479063762943 0.6064406600191086	0.043242
C	0.6052783087288448 0.1914856649629792 0.6359329557301684	-0.131943
C	0.6761498431006858 0.1920022133110758 0.6369153678308025	-0.128723
C	0.7127812976336659 0.2498931099192793 0.6107940550700237	0.065226
C	0.6758098724607622 0.3068679051611108 0.5825637880142612	-0.124802
C	0.6050044122816188 0.3055603897584787 0.5792334888695755	-0.130455
C	0.1164906888288456 0.2858059653599982 0.6622981250995637	0.081922
C	0.0458644507872219 0.2872067828944435 0.6658657085487161	-0.182912
C	0.0068735754997904 0.2532206463564715 0.6064124613638268	0.103734
C	0.0435788252277230 0.2199673352537982 0.5442761977180299	-0.183078
C	0.1142231226748639 0.2213206638948492 0.5438415910513994	0.082475
C	0.9322141567301504 0.2522948254815727 0.6086802821135232	0.043796
C	0.8948813220926584 0.3088093820381904 0.6377667927273489	-0.133863
C	0.8239991368646143 0.3082782983346322 0.6378808797540022	-0.128495
C	0.7875951304658942 0.2504367349313929 0.6113372003074502	0.066095
C	0.8248179650847279 0.1934044503612003 0.5838378827775736	-0.124497
C	0.8956421230261528 0.1947230376718690 0.5813558775876704	-0.131093
C	0.2855263486721216 0.3840680759837065 0.6613959032594673	0.083989
C	0.2868879377382487 0.4546724210110398 0.6645086123554680	-0.183204
C	0.2527282712299704 0.4934915548488837 0.6049210454587546	0.103914
C	0.2190716198826101 0.4565900016524896 0.5432867115284639	-0.184297
C	0.2205278953465717 0.3859335623723791 0.5432631257156586	0.081615
C	0.2519198028049213 0.5681309185817006 0.6070680310249261	0.041968
C	0.3085005360026803 0.6051300952148247 0.6364740993366811	-0.131225
C	0.3080718443851952 0.6759870633673386 0.6371888521872353	-0.128736
C	0.2502312895916053 0.7126820988719237 0.6109699507446379	0.064837
C	0.1931863002638540 0.6758187486442555 0.5829794781440045	-0.125191
C	0.1944198718361531 0.6050203481687207 0.5798508709962502	-0.130981
C	0.2146837527101691 0.1163099802702140 0.6624230989147886	0.081077
C	0.2131193457032374 0.0456597327238075 0.6656971194745145	-0.184090
C	0.2468958125175481 0.0067069587477598 0.6059845106742823	0.102997
C	0.2800843652257863 0.0434409304378031 0.5438225183616069	-0.183312
C	0.2788309191793481 0.1141076689261598 0.5434921004075097	0.081002
C	0.2477993669706708 0.9320315352677175 0.6081881571313572	0.043488
C	0.1912612822444669 0.8948029272435408 0.6373540050133755	-0.132562
C	0.1918177180866758 0.8239354750725648 0.6376453110545888	-0.128069
C	0.2497375403296484 0.7874671147342048 0.6112668476958917	0.065633
C	0.3067956710484981 0.8245753489582267 0.5836458055043047	-0.126008
C	0.3054200629146347 0.8953924924159564 0.5809185722817278	-0.130412
C	0.6166248316843200 0.7235718390683075 0.8318676374118952	0.084921
C	0.5457978522892879 0.7218471888510450 0.8297413846593495	-0.181431
C	0.5074916681122460 0.7473009553167201 0.8954716282344646	0.105375
C	0.5444973696799229 0.7725456563822620 0.9623390885425569	-0.181383
C	0.6153408506070644 0.7708491891017635 0.9619759581087972	0.084831
C	0.4323840310867005 0.7479794678761575 0.8938052909828295	0.048006
C	0.3953862777209772 0.6919271280191304 0.8633097251528754	-0.133192
C	0.3243753197130205 0.6923822402968141 0.8625518688051769	-0.123909
C	0.2876064684880230 0.7498065702955926 0.8896954295461051	0.065120
C	0.3245967157133833 0.8063472063552350 0.9187437682330946	-0.122574
C	0.3955603022182934 0.8049945629419699 0.9221168576369484	-0.130803
C	0.8830871400762187 0.7765684203327857 0.8308040996717765	0.083370
C	0.9539365405427043 0.7784184004828864 0.8282898919576394	-0.179877
C	0.9924963770302359 0.7529468081770162 0.8938097028658167	0.104105
C	0.9557653242855204 0.7278601902099970 0.9610248689091367	-0.182272
C	0.8849096896812020 0.7293539342727722 0.9611422567256344	0.083312
C	0.0676143835311372 0.7521722272493008 0.8920440169938000	0.046847
C	0.1048003829452936 0.8082536250015147 0.8618363818646949	-0.131573
C	0.1758293977197420 0.8078051338566642 0.8617177537768854	-0.125158
C	0.2124182211493144 0.7503658821982140 0.8892413838998718	0.067696
C	0.1752310824376846 0.6937393173723581 0.9178538680191015	-0.124858
C	0.1042475962115166 0.6950777080899362 0.9205817678910295	-0.130219
C	0.7233789468790762 0.8829444347321560 0.8305399433323772	0.085633
C	0.7215772226683467 0.9537682645102472 0.8278347562608679	-0.180871
C	0.7469497027342077 0.9923494725404186 0.8933185180450102	0.104833
C	0.7718548197228641 0.9556275735207754 0.9606531363915302	-0.181861
C	0.7702458858192324 0.8848019337483499 0.9609046174946330	0.085673
C	0.7477141601718171 0.0674607997190756 0.8915655144259647	0.048485
C	0.6916055141586090 0.1047336336913853 0.8615075883307798	-0.131991
C	0.6919931679292480 0.1757627248294968 0.8615862917779171	-0.126140
C	0.7493781897496390 0.2122746819370391 0.8891865899431249	0.068363
C	0.8059996114301108 0.1749912452976032 0.9177059769178404	-0.124691
C	0.8047486943465195 0.1040154037980055 0.9201795576457401	-0.129973
C	0.7765685146009037 0.6164471279304904 0.8322442388165668	0.081580
C	0.7782544325837409 0.5456114670436064 0.8302285855366927	-0.180210
C	0.7527000599070685 0.5073527971699515 0.8959511670912153	0.104045
C	0.7273352697282277 0.5444122889240078 0.9627347017500064	-0.182338
C	0.7289136903342476 0.6152609886301945 0.9623186940308919	0.083735
C	0.7519930060950162 0.4322466528863642 0.8942768712765157	0.048275
C	0.8080099820467384 0.3951704955995550 0.8636348412698529	-0.131317
C	0.8074326123697476 0.3241662099161989 0.8626592590615071	-0.126852
C	0.7499457569068998 0.2874753173727241 0.8897816901573752	0.066365
C	0.6934655413821839 0.3245544123922447 0.9190625919837963	-0.122130
C	0.6949348119945731 0.3955094150385441 0.9226051038829975	-0.130488
C	0.6166177297489259 0.7856817150648588 0.3374474686886135	0.082295
C	0.5459873142924389 0.7871349117041296 0.3339173954867638	-0.182202
C	0.5069413072129844 0.7532208030459460 0.3935233139912480	0.103640
C	0.5436287952500987 0.7199100298566764 0.4556778155926824	-0.183179
C	0.6142571250301196 0.7212981380445760 0.4561219163707393	0.082139
C	0.4322572545138769 0.7523756738107966 0.3913962226439708	0.043488
C	0.3948919859437376 0.8088472652672708 0.3621481739676121	-0.133852
C	0.3239997692020226 0.8082645567509652 0.3620943591552583	-0.128248
C	0.2875994285959049 0.7504286496759172 0.3888550313129912	0.066265
C	0.3248651587042975 0.6934517985084235 0.4165262373700860	-0.124805
C	0.3956851470077735 0.6948350689579212 0.4189967898056873	-0.130635
C	0.8841846819799477 0.7148595064192620 0.3383808676141358	0.081786
C	0.9548380324477088 0.7134262096743546 0.3356171065160364	-0.183027
C	0.9934296546437568 0.7472674362272975 0.3955414087397578	0.102845
C	0.9562667606935995 0.7808366307234893 0.4570740865872170	-0.183567
C	0.8856010982267911 0.7793922709811872 0.4569272490573619	0.081212
C	0.0681257830830276 0.7479309127273869 0.3936616177132280	0.042855
C	0.1052706269155766 0.6914727545320422 0.3640713692241508	-0.131729
C	0.1761464647597818 0.6920172824885186 0.3631390888400735	-0.128179
C	0.2127562687519676 0.7498170953380877 0.3894399753416966	0.065531
C	0.1757158148963682 0.8066690783997257 0.4178095443557471	-0.125599
C	0.1049028673505498 0.8053356938736727 0.4210838008192589	-0.130271
C	0.7146706875843634 0.6163490128760377 0.3373138733106048	0.081037
C	0.7130996370171199 0.5457000087868682 0.3340890721617537	-0.183815
C	0.7468661823953626 0.5066645506646354 0.3937955221627098	0.103317
C	0.7801918777807949 0.5433379315495528 0.4557976987996066	-0.183253
C	0.7788893556362785 0.6139837547512824 0.4561272344939786	0.081169
C	0.7476468308333668 0.4319703179250532 0.3917936005093334	0.042717
C	0.6911803675957692 0.3947313780222300 0.3625798763574266	-0.131978
C	0.6918005377451812 0.3238520907206026 0.3623135473642771	-0.128723
C	0.7496748541281000 0.2873809677361481 0.3888840547181062	0.065731
C	0.8066283830933653 0.3245181774421040 0.4166193213696641	-0.125718
C	0.8052014015595116 0.3953280033943115 0.4192607799598001	-0.129909
C	0.7853828823144380 0.8839854450532988 0.3383482831710643	0.083341
C	0.7867447567742103 0.9546059420665783 0.3353654251980938	-0.183400
C	0.7526849585762085 0.9932858102748500 0.3951359545346252	0.103163
C	0.7190497759740482 0.9561805771675100 0.4567364823298337	-0.183275
C	0.7206913912613541 0.8855434901918604 0.4567533276686800	0.082152
C	0.7519785504919670 0.0679573152435047 0.3931751060579858	0.042403
C	0.8084967026243590 0.1050316718362607 0.3635529210367034	-0.131600
C	0.8080426864253429 0.1758967401317328 0.3628320980934040	-0.128224
C	0.7502548961066949 0.2125600402953128 0.3892656739511279	0.064576
C	0.6933052675335833 0.1756218278235696 0.4175367930854826	-0.125041
C	0.6945656573719911 0.1048189367759792 0.4206875377132606	-0.130471
C	0.3831957422685652 0.2764328156976467 0.1692499660861391	0.084207
C	0.4540353281474572 0.2782453727973191 0.1717617675294244	-0.180223
C	0.4926053730708637 0.2528829207394213 0.1062083957050419	0.103809
C	0.4559047081528805 0.2279249403105519 0.0389901839144948	-0.182273
C	0.3850345226917233 0.2294075160387659 0.0389076210435948	0.083376
C	0.5677207637736721 0.2521003871754394 0.1078949817087127	0.047533
C	0.6048425276550893 0.3081650493652264 0.1381031651970666	-0.131970
C	0.6758724605946850 0.3077268841566471 0.1382478677375264	-0.125266
C	0.7124844978250244 0.2503242973552302 0.1107658898637583	0.067492
C	0.6753585940388727 0.1937246911587750 0.0821467137802952	-0.123596
C	0.6043853149844994 0.1950413845122821 0.0794154832033185	-0.131518
C	0.1165857192548185 0.2236754293839217 0.1681962722120081	0.084354
C	0.0457652001433999 0.2219342215036032 0.1703457275140157	-0.181230
C	0.0075248170984302 0.2473617388525569 0.1045344063741296	0.105535
C	0.0445824718162030 0.2725213076338775 0.0375603078669667	-0.182064
C	0.1154460754951746 0.2708929457179372 0.0379457941278814	0.085464
C	0.9324132520027778 0.2480239696410244 0.1061230906563830	0.048086
C	0.8954260914481545 0.1919118914513305 0.1366660789797408	-0.133797
C	0.8244103777034630 0.1923543491343530 0.1374614342804325	-0.123846
C	0.7876696548978194 0.2498230146177656 0.1103191807131418	0.065610
C	0.8246423451575570 0.3063983740711658 0.0811806247741302	-0.121775
C	0.8956032559707299 0.3050730858141797 0.0777922360121965	-0.131226
C	0.2764403423894828 0.1162057319701219 0.1676569761897354	0.083158
C	0.2781271756913629 0.0453717541429765 0.1696366164584700	-0.180652
C	0.2526293339383818 0.0072563515528730 0.1038642070272456	0.103633
C	0.2273873493537517 0.0444728390757949 0.0370606558169123	-0.181930
C	0.2289595653748396 0.1153512682506674 0.0375630088211909	0.084541
C	0.2519059715923545 0.9321473227019031 0.1055127907820992	0.047838
C	0.3079213675617449 0.8950960895575599 0.1362319190240323	-0.131741
C	0.3073761236419560 0.8241006695130149 0.1372848807140475	-0.126718
C	0.2499027297973690 0.7874491584018810 0.1102273216662899	0.066800
C	0.1934154299618398 0.8244928792334438 0.0809193067376143	-0.122342
C	0.1948594347800053 0.8954332081442130 0.0772606373142359	-0.130363
C	0.2234789661148819 0.3829162768277552 0.1696410915435562	0.086063
C	0.2215885320131624 0.4537345261270994 0.1723675446106463	-0.180820
C	0.2469229116266982 0.4924323260755642 0.1068467402578900	0.104483
C	0.2718106681057053 0.4558478615937032 0.0394445794113196	-0.181668
C	0.2703123123071021 0.3850043782097692 0.0392112198813179	0.084595
C	0.2476670446691136 0.5675265071796940 0.1085431292572545	0.048864
C	0.1915285815133543 0.6047378478035603 0.1386020063406149	-0.132093
C	0.1919371467673397 0.6757667337384256 0.1384587289441430	-0.125669
C	0.2493727786458845 0.7122675514628464 0.1108725965336038	0.067986
C	0.3060154454865461 0.6750377334193335 0.0823739145248321	-0.124656
C	0.3047408742260319 0.6040779659656204 0.0799155794056971	-0.129769
H	0.3533535338507883 0.1913752423322023 0.7088782925295778	0.101041
H	0.4796804295113888 0.1875914613092635 0.7149760640747173	0.115232
H	0.4828885285620115 0.3068293717140975 0.4932279090511753	0.114845
H	0.3562187437245700 0.3035759851487287 0.4945365411276906	0.100520
H	0.5778511184665873 0.1461773538299684 0.6566475611859885	0.094164
H	0.7040950023587625 0.1477237200712013 0.6597079859730063	0.099209
H	0.7034112115443637 0.3515434939233900 0.5603621862307053	0.100660
H	0.5774473125587164 0.3501222467216104 0.5565892163956332	0.098028
H	0.1477744613165904 0.3099258010585290 0.7088218266228518	0.101555
H	0.0211765817615215 0.3130124168696580 0.7166725243513079	0.114362
H	0.0168981378019665 0.1944419244325201 0.4947504291266535	0.114920
H	0.1436396248403734 0.1977721549663800 0.4952041082679740	0.100903
H	0.9220972705232834 0.3541387133298612 0.6586872316556897	0.095167
H	0.7958364131302204 0.3525222161563986 0.6603109068324564	0.099462
H	0.7974382006173439 0.1486863935873162 0.5615151350750555	0.100789
H	0.9234105598792464 0.1501214685784218 0.5592373266350504	0.098461
H	0.3093687002021979 0.3530134772542104 0.7083864188313349	0.101161
H	0.3127520640755558 0.4794927054493820 0.7151362344449215	0.114974
H	0.1930061964680816 0.4831554084682602 0.4939956354344001	0.114745
H	0.1963256688389835 0.3563011900446512 0.4952680545896307	0.100907
H	0.3537646097157899 0.5776366627892249 0.6572687091242697	0.094320
H	0.3523442766818956 0.7038965342953803 0.6598783446569146	0.099335
H	0.1485494931320339 0.7035114748076373 0.5607711305547775	0.100782
H	0.1498091028330097 0.5775359635795733 0.5573701779002090	0.098545
H	0.1909438378149581 0.1473704572008207 0.7095303320443116	0.101620
H	0.1873137915635076 0.0209669782357313 0.7165328605785677	0.115044
H	0.3055055910943324 0.0168082548796058 0.4941398997529752	0.115221
H	0.3021271191773500 0.1433851302973295 0.4944928563527332	0.100816
H	0.1459173714271108 0.9221119963460113 0.6582215412958232	0.094790
H	0.1475654833199051 0.7958138270775500 0.6601293922967331	0.099440
H	0.3515429776732980 0.7970910412203711 0.5614032569597973	0.101939
H	0.3500209646871188 0.9231000690043191 0.5586995706640230	0.098453
H	0.6483634629269330 0.7081402239316774 0.7805877199707039	0.116564
H	0.5203924565314033 0.7030731686042534 0.7751982258354156	0.116503
H	0.5181395197042402 0.7920349828771664 0.0159113579225100	0.115942
H	0.6462817995589727 0.7867963407524249 0.0136884236885230	0.115178
H	0.4229598012208204 0.6469995060448847 0.8416869963351863	0.096732
H	0.2965996799454754 0.6483839366084369 0.8389278959957462	0.100558
H	0.2970101774630751 0.8509140939839814 0.9412898013760274	0.100816
H	0.4231998092499819 0.8491913373668410 0.9455123174400880	0.100416
H	0.8512016235092951 0.7924879275739418 0.7797872657056126	0.115444
H	0.9791247432595884 0.7976071619009221 0.7737356329183849	0.116100
H	0.9823364035652199 0.7086794826672002 0.0146136942383747	0.116808
H	0.8543914507914022 0.7135975259029246 0.0134018895723390	0.116490
H	0.0773813238385548 0.8532270647238057 0.8399914975094858	0.097218
H	0.2037589080543772 0.8518438377567187 0.8383227231244149	0.100827
H	0.2026738443644663 0.6491444005048306 0.9406626309759222	0.101726
H	0.0764499073002010 0.6508268930742848 0.9436887111150797	0.100744
H	0.7075778125470996 0.8508754078239025 0.7797372647038484	0.115203
H	0.7025336407497270 0.9789548914536534 0.7731990315284429	0.116013
H	0.7908826563699122 0.9822416676870392 0.0142307184415221	0.116034
H	0.7855333835610662 0.8542022677263338 0.0132469324940275	0.116341
H	0.6466447449274239 0.0773712111778408 0.8396966151738229	0.096834
H	0.6479262781325368 0.2037295129469414 0.8383153549217290	0.101101
H	0.8505328035331498 0.2023457631872352 0.9406080346446025	0.100693
H	0.8489914607565890 0.0761543139053813 0.9432321209231482	0.100535
H	0.7922259126412392 0.6479965313100465 0.7808210249887073	0.117041
H	0.7971437746989181 0.5201869985126604 0.7757202149889476	0.116637
H	0.7077019993383183 0.5181012139172975 0.0162846634134772	0.116136
H	0.7126142938522566 0.6460880982723166 0.0140449054502124	0.115601
H	0.8529955081712923 0.4226651678124507 0.8420457276501591	0.096613
H	0.8514045816806384 0.2963278675327917 0.8389162804590865	0.101222
H	0.6488828939405948 0.2970507827601402 0.9417044279849900	0.100284
H	0.6508022490833734 0.4232465005981745 0.9461624860349016	0.100261
H	0.6479818529012463 0.8096344997147816 0.2907833941554679	0.100930
H	0.5213657013700174 0.8129514261137880 0.2830320719681527	0.114238
H	0.5170330160497819 0.6942271630329873 0.5052297675834325	0.114950
H	0.6435755390496646 0.6978231094006209 0.5049042235309374	0.100928
H	0.4220682760470776 0.8541857640949334 0.3410563765153902	0.095250
H	0.2958225452598545 0.8524528094333599 0.3394762102614467	0.099146
H	0.2975361452900288 0.6487117555139982 0.4390063578427919	0.100676
H	0.4234725362800385 0.6502976257065181 0.4413219392117041	0.098196
H	0.8534337779672292 0.6915169905715628 0.2908081294564262	0.100978
H	0.9798179779521896 0.6877417116043142 0.2849103330403572	0.115055
H	0.9824413836004150 0.8069015517444972 0.5065723945505664	0.114544
H	0.8559936569198698 0.8033146440187540 0.5052320480324637	0.100767
H	0.0779036313039588 0.6462374951216487 0.3431764755333980	0.094189
H	0.2041078581788854 0.6478425882169744 0.3401732101316303	0.098838
H	0.2032585900898841 0.8512931572188508 0.4401308322986233	0.101135
H	0.0773149737258863 0.8497936858363380 0.4438989500757524	0.097603
H	0.6910274152292595 0.6474934098066963 0.2901708678883116	0.101426
H	0.6872674967694208 0.5210552336159380 0.2833144057984872	0.114915
H	0.8058724584977679 0.5167563754876615 0.5053538974498151	0.115209
H	0.8022083162922402 0.6431255274794382 0.5051221776901483	0.100448
H	0.6458514443664978 0.4220052703049327 0.3415904339183028	0.094794
H	0.6476390218132866 0.2957276866663898 0.3396939266526248	0.099439
H	0.8513659661769635 0.2970797968580438 0.4389932490378571	0.101460
H	0.8496950018054401 0.4230527902425381 0.4416236552774482	0.098516
H	0.8089927529703556 0.8530354028407996 0.2911503541346863	0.101496
H	0.8125158167123843 0.9795584350594129 0.2846841844707239	0.114865
H	0.6928459481256396 0.9824622473755217 0.5061015556727190	0.113879
H	0.6966788625398536 0.8558302240599658 0.5048937842596407	0.100883
H	0.8537330762706510 0.0776171256457869 0.3425508500698660	0.094164
H	0.8522486846678041 0.2038356437941765 0.3399113701589796	0.099128
H	0.6487107564309378 0.2032680821434007 0.4399091892016312	0.100812
H	0.6500131407156688 0.0773175664102824 0.4433965281691038	0.097862
H	0.3512873906578258 0.2922747754346903 0.2202539571973504	0.115587
H	0.4791499493112278 0.2974500931851896 0.2262750085911702	0.116041
H	0.4826094078884435 0.2089440792828717 0.9853884460512594	0.116711
H	0.3545031662995681 0.2137329548478132 0.9866762825084725	0.116704
H	0.5773536554328500 0.3530694220270132 0.1599904139104150	0.097517
H	0.7038273803924919 0.3517752485612948 0.1614618883249275	0.100823
H	0.7028363467991782 0.1492150703751295 0.0592746499617420	0.101482
H	0.5766397123463951 0.1508268632249555 0.0562724181940988	0.101156
H	0.1482997761093914 0.2083236666333111 0.2195182012459867	0.116478
H	0.0203648971725504 0.2030354920500372 0.2248945464648590	0.116840
H	0.0181601946343526 0.2918116375292770 0.9839054232771680	0.116144
H	0.1464739987428546 0.2868978388721364 0.9862490452263034	0.115271
H	0.9230269611255514 0.1470051862802798 0.1584100195587818	0.097035
H	0.7965592434323262 0.1482929460407608 0.1609522833779888	0.100865
H	0.7970465104756036 0.3509370488364890 0.0585255237577346	0.100579
H	0.9232212884874543 0.3493110211087213 0.0543640636993815	0.100649
H	0.2919506302750078 0.1476780159077697 0.2191020522487492	0.116412
H	0.2971011075820844 0.0198911328439742 0.2240939771126951	0.116709
H	0.2079649866866865 0.0181843200301858 0.9834385344977542	0.115927
H	0.2126846911800952 0.1463194031631632 0.9858925023818019	0.115364
H	0.3528267703995945 0.9226088504034380 0.1579374057429153	0.097063
H	0.3513552089331237 0.7961685332144265 0.1608998909087051	0.101233
H	0.1489074583254046 0.7969323595912199 0.0583023723947012	0.100289
H	0.1507184595909368 0.9231084447093497 0.0536585514571185	0.100762
H	0.2077922026327048 0.3507273475605953 0.2204534278834870	0.114903
H	0.2024077432935678 0.4787462431474024 0.2270017121248233	0.116080
H	0.2906635393866639 0.4826628240179551 0.9858291907094515	0.115881
H	0.2856926670635974 0.3544429493670739 0.9869127898373460	0.116945
H	0.1465825423328826 0.5773684991159839 0.1605680179972702	0.097137
H	0.1478466116080028 0.7038384157444417 0.1615125659874362	0.100979
H	0.3505260059625785 0.7024524508773721 0.0594076672317388	0.100811
H	0.3489842914709671 0.5762708923591306 0.0568236051009655	0.100643
Co	0.2501858111833346 0.2501385260595766 0.6017490541567108	0.568717
Co	0.7500149948441507 0.7498480070029663 0.8972617539150778	0.716306
Co	0.7501919627227042 0.7499629865552574 0.3981417914214682	0.568714
Co	0.2501120353870906 0.2498997894550930 0.1028143799780364	0.716362
B	0.2516891538485962 0.2505351900436830 0.3799994938789871	1.059338
B	0.7495406662110892 0.7478954645448991 0.1759310367633426	1.057090
B	0.7520572368713306 0.7495460510351322 0.6199808156320266	1.055444
B	0.2494893660353748 0.2480986940545194 0.8241575887616271	1.057467
	  	
