#======================================================================

# CRYSTAL DATA

#----------------------------------------------------------------------

data_VESTA_phase_1


_pd_phase_name                         BFFIVE_18_Cu
_cell_length_a                         13.27976
_cell_length_b                         14.27975
_cell_length_c                         8.91993
_cell_angle_alpha                      93.27738
_cell_angle_beta                       84.69151
_cell_angle_gamma                      89.69995
_symmetry_space_group_name_H-M         P 1
_symmetry_Int_Tables_number            1

loop_
_symmetry_equiv_pos_as_xyz
   x, y, z

loop_
   _atom_site_label
   _atom_site_fract_x
   _atom_site_fract_y
   _atom_site_fract_z
   _atom_site_charge
F	0.4641795819570245 0.3804135645134815 0.4379380998445927	-0.445629
F	0.5340555114132010 0.4677026139432561 0.7541811072489213	-0.594321
F	0.4014782434354865 0.5266840472919977 0.5305937010688855	-0.429358
F	0.9632972345258354 0.8803689191058889 0.4371908402144463	-0.445356
F	0.0342578363127846 0.9678246983568685 0.7540713821824722	-0.594631
F	0.9013382860612065 0.0268425299817255 0.5303745834402519	-0.429040
F	0.5720682098039432 0.5092900762469411 0.4392492540386095	-0.427807
F	0.4477667461103400 0.4995912489394824 0.2775181844397945	-0.464702
F	0.0720763068100820 0.0085888336870103 0.4383782484296087	-0.427048
F	0.9472731271885214 0.9997665811843750 0.2771373420315602	-0.464389
C	0.7287031685622207 0.1523002635945421 0.6884702454157661	-0.423909
C	0.7873599336167211 0.1476966451136718 0.8223854561891620	0.210977
C	0.7733859979119363 0.1967255967755031 0.9638019557429016	-0.152924
C	0.6931255204716407 0.2634592450975632 0.0188742845641097	-0.143959
C	0.6761010118069433 0.3549247033066243 0.9717374880236567	0.222228
C	0.7365082808338569 0.4063398203363906 0.8542990867713128	-0.438676
C	0.8737945659208834 0.1971840378918546 0.2025458751535243	-0.427974
C	0.8514726021355254 0.1650948081955902 0.0472181665605798	0.208054
C	0.6168222659616918 0.2494240837255198 0.1344878159561952	0.213532
C	0.5945097794776160 0.1677522848981193 0.2281986393458137	-0.425188
C	0.2286364796679548 0.6520161035160967 0.6886616437460098	-0.423766
C	0.2873613622756416 0.6475177192556063 0.8225857377886636	0.210994
C	0.2733722361628462 0.6966617017420859 0.9639605751278344	-0.153244
C	0.1930172909227389 0.7634268264393802 0.0186942502922639	-0.143828
C	0.1761008465309565 0.8549530371739260 0.9717415997684968	0.222120
C	0.2366808679288498 0.9064745740018617 0.8546271091762516	-0.438199
C	0.3737737599515550 0.6971373750686408 0.2026911641108557	-0.428746
C	0.3514356115775970 0.6650075925635175 0.0474115614688106	0.208323
C	0.1165436507671053 0.7493046033664243 0.1340556638022717	0.214006
C	0.0940603767673630 0.6674720865696350 0.2273627537644860	-0.425870
C	0.2898116357341672 0.1734993828412283 0.3110102600208990	-0.422468
C	0.2300396411408634 0.1560625799332576 0.1788642701632372	0.197362
C	0.2370123350625131 0.1942433180361256 0.0367957338317809	-0.144843
C	0.3081459192224821 0.2650290512178747 0.9832601063622236	-0.150016
C	0.3178470297864832 0.3567702345288407 0.0495824339618693	0.204664
C	0.2515954103249417 0.4050867413953192 0.1750975348399511	-0.425253
C	0.1284468524766242 0.1689584823015842 0.8064145753686607	-0.443813
C	0.1586918358560999 0.1518871636675695 0.9594101084705151	0.215483
C	0.3812693903934117 0.2577426397078298 0.8581912468895034	0.208027
C	0.4101489050623948 0.1780531591670152 0.7469273542527385	-0.423885
C	0.7898868855671889 0.6739799258423865 0.3102042952012246	-0.423846
C	0.7300527494283926 0.6563679455357236 0.1781797046417030	0.198028
C	0.7370247548727785 0.6943097985390375 0.0359279855577657	-0.143838
C	0.8080330114869120 0.7652069610218990 0.9822936082242124	-0.150651
C	0.8177524124992457 0.8569287444407646 0.0486262630366665	0.204770
C	0.7513734299912346 0.9051746498035993 0.1740094274554225	-0.425391
C	0.6284470190833612 0.6687423630175903 0.8057488319406499	-0.444523
C	0.6586280641677272 0.6518746793594502 0.9588010558346650	0.215587
C	0.8812659911115133 0.7579085505430565 0.8573494088019536	0.208069
C	0.9102549951381447 0.6782625457422744 0.7459871450276684	-0.423896
H	0.7769240654351516 0.1706368754844554 0.5878374436624516	0.146406
H	0.6683565187807625 0.2052496578518409 0.7123524154275622	0.140544
H	0.6944890735053639 0.0842653554476542 0.6607390272845388	0.139657
H	0.6874726376348147 0.4300261425697599 0.7705970910036039	0.161631
H	0.7973242506232755 0.3607176162213256 0.7991578460972930	0.130801
H	0.7710271223050145 0.4688947216432837 0.9053012078202883	0.133470
H	0.9059271066846742 0.0468287486584578 0.7447919795931655	0.289319
H	0.8539025695039042 0.1444477346070679 0.2849110135363793	0.140574
H	0.8311610891235539 0.2619816472515897 0.2378521703802778	0.133350
H	0.9548209989225749 0.2109726389358777 0.2061516870914040	0.143501
H	0.5631785194863337 0.1908069717740993 0.3427297365023271	0.145473
H	0.6636060213744857 0.1266030230062573 0.2356313159050142	0.145510
H	0.5392579071785750 0.1209854273617466 0.1784444179052016	0.136934
H	0.5045448403334082 0.3463070615570394 0.2341937830744946	0.270543
H	0.2767606617391188 0.6702346816290680 0.5878838846107397	0.146363
H	0.1683036234372645 0.7049996741902843 0.7122318606566309	0.140225
H	0.1943462196767544 0.5840050989329927 0.6610141867997080	0.139446
H	0.1877308642595873 0.9302745886390846 0.7709132667632674	0.161061
H	0.2975110801811759 0.8608672204739074 0.7994410282384581	0.131104
H	0.2710421275319675 0.9690381281419568 0.9058902750254642	0.133434
H	0.4058928943994843 0.5464619520508673 0.7449418448301437	0.289843
H	0.3535448370993978 0.6444947903583956 0.2850610091326267	0.140727
H	0.3314515082588397 0.7621495557748548 0.2377422225763189	0.133763
H	0.4548689415795175 0.7105006037642999 0.2063935668918716	0.143825
H	0.0624170569524925 0.6902070245447339 0.3418643521352718	0.145447
H	0.1631434431313681 0.6263878788284662 0.2351566662308794	0.145165
H	0.0389791680418935 0.6206767347944262 0.1772375004478832	0.137499
H	0.0040609140499994 0.8460230841790412 0.2338055355889978	0.270564
H	0.2403280531836417 0.1905734775144948 0.4148871155788992	0.147129
H	0.3409529441143616 0.2324954217346504 0.2919297593413378	0.142494
H	0.3354584878774036 0.1115951683253792 0.3307339984830334	0.136151
H	0.2952198308456692 0.4410865202058503 0.2590618759014054	0.145139
H	0.2012060177319403 0.3545171768688965 0.2309649788695100	0.130669
H	0.2038532212951842 0.4580585745617011 0.1300159135329087	0.132536
H	0.1233429604776937 0.0567295080161881 0.2682133689227906	0.276479
H	0.1091357605528377 0.1030321986905931 0.7462794196528446	0.162208
H	0.1893086562283467 0.2042751361714089 0.7405641172624059	0.128239
H	0.0611614433142970 0.2149878420012580 0.8151827050589127	0.141637
H	0.4312098641254806 0.2034757996155798 0.6343901713544177	0.143551
H	0.3475171194224815 0.1287718395282822 0.7393638841090349	0.142702
H	0.4753476239078744 0.1388246311473854 0.7803201517280224	0.133022
H	0.4836027716262962 0.3754443143801137 0.7812225138168325	0.284956
H	0.7404595020527669 0.6908423201699631 0.4141591914272326	0.147663
H	0.8408411420676369 0.7331262903131838 0.2913006958693229	0.142629
H	0.8356616398275605 0.6121611513341837 0.3298411384721384	0.136240
H	0.7950803847014286 0.9412589746950468 0.2577027161761208	0.145278
H	0.7011022263805312 0.8546227283118105 0.2301664673112680	0.130651
H	0.7035878938174343 0.9580787089621121 0.1288851731439204	0.132421
H	0.6233843058606694 0.5572100399671630 0.2679268812158662	0.276776
H	0.6090856963100663 0.6027514920724134 0.7458568971714684	0.162562
H	0.6893211947324792 0.7040253598796001 0.7398388401555063	0.128274
H	0.5611222651344449 0.7146918614429821 0.8144146677562319	0.141773
H	0.9312446801613579 0.7037938301936210 0.6334615351229049	0.143419
H	0.8476293702279444 0.6289483531499326 0.7384037533079252	0.143009
H	0.9755577095175642 0.6390600325494532 0.7792095801985122	0.132496
H	0.9838142074784142 0.8754522708595947 0.7805152547297837	0.285439
N	0.8683919989603147 0.0907597404772048 0.8274971793222958	-0.139844
N	0.5939445765271183 0.3930727081658066 0.0529895104002026	-0.242812
N	0.9076945111956660 0.1002645197545259 0.9616566140248854	-0.228197
N	0.5592187149897885 0.3280150218298588 0.1490964476858779	-0.151794
N	0.3683724918765527 0.5905245890924318 0.8276743066552993	-0.139690
N	0.0937983805624502 0.8930165890849706 0.0527897837424144	-0.243192
N	0.4075880435447823 0.6000765700411200 0.9619285213869920	-0.227967
N	0.0588823150365754 0.8278823597219559 0.1487124416391245	-0.151777
N	0.1528864780656068 0.0945927169402444 0.1799860523098490	-0.149834
N	0.3932671677698334 0.4004454642635160 0.9710578151587591	-0.248001
N	0.1090060237842951 0.0913648171933241 0.0488821183266229	-0.231768
N	0.4296570568969737 0.3402981081784408 0.8558101443710254	-0.159415
N	0.6530122859223080 0.5947749154464722 0.1794677180991384	-0.151002
N	0.8932596728877630 0.9006286638383717 0.9702504771229836	-0.248058
N	0.6090532373932367 0.5913543675637358 0.0484066169525282	-0.230925
N	0.9296900035395439 0.8404510277073450 0.8550489892645696	-0.159869
B	0.4717312189861050 0.4791416917024653 0.4263164520771828	1.038228
B	0.9713644655006010 0.9791121670813256 0.4257915355310296	1.037781
Cu	0.5027327522760029 0.4986544556133201 0.0023231483412508	0.712134
Cu	0.0029109318033846 -0.0012310645580942 0.0019984331137498	0.713048
	  	
