#======================================================================

# CRYSTAL DATA

#----------------------------------------------------------------------

data_VESTA_phase_1


_pd_phase_name                         BFFIVE_3_Cu
_cell_length_a                         13.73798
_cell_length_b                         13.73620
_cell_length_c                         8.64230
_cell_angle_alpha                      90.02724
_cell_angle_beta                       89.98943
_cell_angle_gamma                      89.25795
_symmetry_space_group_name_H-M         P 1
_symmetry_Int_Tables_number            1

loop_
_symmetry_equiv_pos_as_xyz
   x, y, z

loop_
   _atom_site_label
   _atom_site_fract_x
   _atom_site_fract_y
   _atom_site_fract_z
   _atom_site_charge
C	0.2513179191199035 0.4551952058840745 0.6362183525452521	0.056541
C	0.2457576657932520 0.0454479105230406 0.6415060567567419	0.058403
C	0.2457299370342622 0.4440711806215747 0.3685766455915321	0.049425
C	0.2520422928975083 0.0563499839791149 0.3740723528892606	0.047851
C	0.0564522585847728 0.2520693183037161 0.3741736665530052	0.048310
C	0.4441555330864234 0.2457369826936081 0.3684885138440160	0.048957
C	0.4552329135726050 0.2513420604687130 0.6361226208702191	0.057112
C	0.0454574846720787 0.2457866887970157 0.6415914674020017	0.058864
C	0.9441591616361078 0.2457406783372131 0.6313960089025701	0.049082
C	0.5564130809614201 0.2520721870015919 0.6257081565600229	0.048523
C	0.5454626839975393 0.2458176506227665 0.3582813225825436	0.058429
C	0.9552735084047149 0.2513746609930276 0.3637752321797303	0.057309
C	0.7457666072798800 0.0454152223082782 0.3584218636031600	0.058285
C	0.7513185357252964 0.4552369205799943 0.3637958725384428	0.057257
C	0.7520321560100141 0.0565097222913885 0.6258599782198663	0.048312
C	0.7457488947167054 0.4441390766159006 0.6314330244757607	0.048905
C	0.4440208294917138 0.7457460749686823 0.6315010689730717	0.049478
C	0.0563476567492292 0.7520306173767083 0.6258443294763860	0.048388
C	0.0453553864760985 0.7458061960431580 0.3584128143978457	0.058076
C	0.4552084628292207 0.7513402984797721 0.3638819367294130	0.057233
C	0.2457697578183049 0.5453886809718641 0.3584403658220638	0.057781
C	0.2513214236529073 0.9551489917614124 0.3636538880215009	0.057180
C	0.2520038620491014 0.5563919240327575 0.6258689523952448	0.048577
C	0.2456821829465399 0.9441265330564462 0.6312878812429060	0.049095
C	0.7513099433222250 0.9553239527480175 0.6362853965051511	0.057015
C	0.7457790638363524 0.5454544728941010 0.6416747547627076	0.058621
C	0.7456771597864348 0.9441045391505452 0.3686601788853021	0.049441
C	0.7519927715267268 0.5564367855905871 0.3742559538162820	0.048514
C	0.5563941913395752 0.7520423530523760 0.3743041883455062	0.047979
C	0.9440505152389219 0.7457618561723780 0.3686356567072864	0.049103
C	0.9551591726252665 0.7513593435163490 0.6362609734266652	0.056722
C	0.5453278989873760 0.7458156613520825 0.6417242545930425	0.058612
H	0.2522333127557198 0.4182132260533510 0.7478445747381326	0.120607
H	0.2422506113442172 0.0828580502547172 0.7527007158969792	0.120156
H	0.2436845493544010 0.3955848889413454 0.2679056620748033	0.134501
H	0.2536828367716629 0.1053246850627456 0.2740101773620023	0.135713
H	0.1054478319020792 0.2537106795393437 0.2741016813585277	0.136383
H	0.3956960580894056 0.2436741372485157 0.2678419656965096	0.135194
H	0.4182487865890372 0.2522561934053869 0.7477787084802781	0.120973
H	0.0828248236169910 0.2422819394835073 0.7527843886770424	0.120580
H	0.8956723823516617 0.2436945963589505 0.7320278933628379	0.134971
H	0.6053934518631494 0.2537256418513746 0.7257659998557945	0.135861
H	0.5828465036906224 0.2423524953635087 0.2470782200422509	0.120734
H	0.9183114565832924 0.2522939812594394 0.2521255031955122	0.120784
H	0.7422837360699931 0.0827673472973228 0.2472262232228342	0.120743
H	0.7522244488575419 0.4182315851652038 0.2521291217290644	0.120929
H	0.7536636943008488 0.1055487393399002 0.7259244489607626	0.136353
H	0.7437215098022023 0.3956557673632977 0.7320590959610146	0.135128
H	0.3955406506529242 0.7436973097370240 0.7321648937825720	0.134487
H	0.1053436470160299 0.7536663327077221 0.7259051988728943	0.135698
H	0.0827454993910411 0.7423415480566353 0.2472108704052424	0.120333
H	0.4182555280838079 0.7522627023631331 0.2522221580065654	0.120390
H	0.2422861077922711 0.5827569551062168 0.2472628657618562	0.120441
H	0.2522269466138651 0.9181574276810111 0.2519911623039449	0.120520
H	0.2536169903854532 0.6053954978648880 0.7259538446492706	0.135677
H	0.2436053650928595 0.8956550158179138 0.7318937678176588	0.134434
H	0.7522282489158524 0.9183906267220980 0.7479398220761944	0.120939
H	0.7423226989459185 0.5828513341286553 0.7528924191551782	0.120798
H	0.7436119803007551 0.8955783566787188 0.2680411396633744	0.135113
H	0.7536228610400214 0.6054416162080658 0.2742222220260055	0.136127
H	0.6053974920333017 0.7536852583586422 0.2742253905436798	0.135641
H	0.8955596902824073 0.7437165377215362 0.2680081921435326	0.134492
H	0.9181732120319436 0.7522799285852677 0.7479145071451607	0.120444
H	0.5826832618103835 0.7423618290246168 0.7529277981437860	0.120149
Cu	0.2500975776611394 0.2500468215483417 0.5059781368100104	0.686747
Cu	0.7500955872702749 0.2500784255397059 0.4938427703160406	0.686153
Cu	0.2500187097387335 0.7500594522708051 0.4940302735333918	0.689393
Cu	0.7500094059876095 0.7501250730757670 0.5061263873326648	0.688177
B	0.2525455583831159 0.2522244619597228 -0.0587811182900526	1.053682
B	0.7526674078408162 0.2522447986645176 0.0585916836426290	1.054281
B	0.2524796384321222 0.7522696002618976 0.0587790422277270	1.054065
B	0.7522243586470384 0.7526492069493101 -0.0586859697056573	1.055681
F	0.2537810690770312 0.2534378540592251 0.7699402020439127	-0.492481
F	0.2489726638289279 0.2488828882638108 0.2707341859195446	-0.615771
F	0.1833255496227624 0.1823928225306840 -0.0187366213115217	-0.451970
F	0.2258049108995902 0.3471794862953997 -0.0140394162087096	-0.450863
F	0.3476219615409059 0.2263254428053533 -0.0138668811927950	-0.450595
F	0.7490562254380426 0.2490095187935945 0.7289775827906818	-0.615225
F	0.7537013718671847 0.2533896470022062 0.2300150857288386	-0.492715
F	0.6836204782553095 0.1822208844044492 0.0182962336755419	-0.452151
F	0.7257717108562619 0.3471057877621585 0.0140211429432517	-0.450391
F	0.8478895385441739 0.2266149856209751 0.0138114570070131	-0.450122
F	0.2488548445569934 0.7490438445089161 0.7290605878185037	-0.615489
F	0.2536135357259849 0.7534374650779120 0.2302439622765436	-0.492906
F	0.1831693180398683 0.6825341825026460 0.0184240823166340	-0.451964
F	0.2259251069550244 0.8472138786087711 0.0140641134864119	-0.450354
F	0.3475440339838074 0.7262444459195777 0.0138886011453369	-0.450247
F	0.7533029601714225 0.7539146126246158 0.7697670055560167	-0.493209
F	0.7490306013395425 0.7490284738009083 0.2711387371884972	-0.615399
F	0.6823499030945342 0.6834718915039442 -0.0184508541849433	-0.452701
F	0.7264904858616547 0.8477420217070037 -0.0134557186666005	-0.450675
F	0.8470175174359755 0.7258327618330037 -0.0139982282745578	-0.450746
N	0.4001253702512501 0.2487655883302828 0.5077060450466110	-0.181820
N	0.1004879628908284 0.2496225564910700 0.5132599040391419	-0.181878
N	0.2487773551173394 0.4000551301751538 0.5077740875138229	-0.183433
N	0.2496197374742359 0.1004416676541517 0.5131673001100177	-0.182419
N	0.9001435502985999 0.2487944884214006 0.4921912449511516	-0.182849
N	0.6004699000220223 0.2496583018359502 0.4866142365274020	-0.181969
N	0.7487869786164811 0.4001034614107924 0.4921849012167592	-0.182483
N	0.7496180645894321 0.1005004866072157 0.4867434130636824	-0.181925
N	0.4000399154556006 0.7487726588437774 0.4922662628174768	-0.183150
N	0.1003908673625578 0.7496096375731648 0.4867301061804348	-0.182121
N	0.2487282849556951 0.9000569032260043 0.4920743117412493	-0.183457
N	0.2495856154357557 0.6004310234470868 0.4867969503227029	-0.182476
N	0.9000271761085592 0.7488066321280230 0.5078659609772567	-0.183668
N	0.6003978956095241 0.7496385056318636 0.5134200172345434	-0.183321
N	0.7487144267831881 0.9001341123741377 0.5078930837580651	-0.182229
N	0.7495781744730000 0.6004924900164420 0.5133814738496545	-0.181681
	  	
