#======================================================================

# CRYSTAL DATA

#----------------------------------------------------------------------

data_VESTA_phase_1


_pd_phase_name                         BFFIVE_15_Co_i
_cell_length_a                         29.52158
_cell_length_b                         28.27125
_cell_length_c                         8.66695
_cell_angle_alpha                      90.05415
_cell_angle_beta                       90.10017
_cell_angle_gamma                      90.00034
_symmetry_space_group_name_H-M         P 1
_symmetry_Int_Tables_number            1

loop_
_symmetry_equiv_pos_as_xyz
   x, y, z

loop_
   _atom_site_label
   _atom_site_fract_x
   _atom_site_fract_y
   _atom_site_fract_z
   _atom_site_charge
C	0.9378077506801532 0.1067691293060117 0.8792570925766443	0.081324
C	0.9048618516902103 0.0718824803067369 0.8887735003636201	-0.164806
C	0.7700451124992180 0.9356486948281693 0.8921778799651683	-0.118378
C	0.7353825313724801 0.9026024286988354 0.8899485356059108	-0.116973
C	0.5654720965419049 0.7389771596921677 0.8890921743326163	0.075539
C	0.5995933188652648 0.7726327333675466 0.8884799703760820	-0.170156
C	0.4362260048882731 0.6043559776508616 0.8898807421146318	0.078149
C	0.4032372298912606 0.5694690760977718 0.8894546932486391	-0.165584
C	0.2707857320705804 0.4362908266044064 0.8901642865094830	-0.115820
C	0.2361502897841563 0.4032426107812506 0.8918256970109572	-0.115829
C	0.0634326633926005 0.2370402766122661 0.8784829075408825	0.082049
C	0.0976100726013853 0.2706078240012851 0.8881430523127883	-0.166880
C	0.0622913092122724 0.8933046703026668 0.3784197123433763	0.082793
C	0.0951462918036791 0.9282961121236740 0.3881844076521333	-0.166469
C	0.2299257353818137 0.0645779462576477 0.3917866288126206	-0.117148
C	0.2646040062022764 0.0975894413858277 0.3896082868516430	-0.116460
C	0.4350450939927885 0.2605574111741507 0.3897852452321780	0.078324
C	0.4007958532982651 0.2270200706870148 0.3890119920725760	-0.171616
C	0.5643346362508653 0.3952020900106942 0.3895351237256865	0.078316
C	0.5971675936306129 0.4302272412325142 0.3892596109689794	-0.166897
C	0.7291776851583184 0.5638569630745175 0.3897759713848123	-0.117600
C	0.7638247042515259 0.5969122744341983 0.3918291292294905	-0.115648
C	0.9366671840791206 0.7630866089825978 0.3790748295803154	0.079718
C	0.9024344000866306 0.7295855879158519 0.3885729432688073	-0.166983
C	0.0645006102057325 0.1050431362283591 0.6099174698030996	0.080381
C	0.0973377402355050 0.0699896973354134 0.6101724463477050	-0.169092
C	0.2291930912018674 0.9362104985894668 0.6108522884638335	-0.116184
C	0.2639091252896467 0.9032626954416237 0.6090516432223793	-0.117086
C	0.4365856968409409 0.7370682240342568 0.6206049805310184	0.078601
C	0.4024525788567807 0.7706966788778268 0.6109986166524654	-0.166605
C	0.5621311714553732 0.6066963907653000 0.6210433806381424	0.083121
C	0.5950314415164993 0.5717528185565056 0.6113514412791676	-0.166548
C	0.7299427948808330 0.4356172109042917 0.6086529726594052	-0.117130
C	0.7645175362279572 0.4024892480727467 0.6108319136327290	-0.117494
C	0.9348994307559554 0.2393915646013090 0.6105735367315407	0.075186
C	0.9005918702080133 0.2728501935130306 0.6113864479375564	-0.169829
C	0.9361011608041008 0.8957363751975889 0.1103575131826408	0.078412
C	0.9030864202747491 0.9305850768001109 0.1108965935653277	-0.166448
C	0.7707103602476417 0.0637728805838781 0.1105732394688255	-0.117686
C	0.7361511907806105 0.0969168214553334 0.1085721225412148	-0.116393
C	0.5631965204709992 0.2629992834840327 0.1212342408989829	0.082016
C	0.5974151002668808 0.2294763124800010 0.1116284823982718	-0.168062
C	0.4376610335622284 0.3933589205130648 0.1208479385901852	0.082905
C	0.4048395405791696 0.4283734839102061 0.1112187031574063	-0.166895
C	0.2700814165734530 0.5646015783800684 0.1085276351435861	-0.116282
C	0.2353364634008429 0.5975320506846529 0.1107854035352362	-0.117272
C	0.0656119774735330 0.7613486377655332 0.1099065355806754	0.078965
C	0.0997456988904392 0.7276850239875943 0.1104712117490697	-0.171025
C	0.0644040220738367 0.8949008063589675 0.1095343080603857	0.080720
C	0.0972133988525256 0.9299734808694686 0.1098760735526536	-0.167552
C	0.2290481325682687 0.0637561276766219 0.1103670662190946	-0.115644
C	0.2637241106926499 0.0967545852937607 0.1085701148131448	-0.117461
C	0.4366347714710551 0.2628727934692014 0.1212427829345643	0.080588
C	0.4024831138877800 0.2292565311158980 0.1114075539447782	-0.166867
C	0.5622081776494584 0.3933010405873972 0.1206214085875427	0.082475
C	0.5950785207297893 0.4282621777541279 0.1110304717882301	-0.165658
C	0.7299404052909201 0.5645462572368872 0.1083486440489470	-0.117925
C	0.7645842451438115 0.5976085373935991 0.1108081608268255	-0.117061
C	0.9349003964924467 0.7607275583183218 0.1104425282636620	0.075482
C	0.9005849790267922 0.7272720289959897 0.1109997571209295	-0.169706
C	0.9361784221409861 0.1043964642866973 0.6103203719472968	0.076211
C	0.9031619284113569 0.0695451662192662 0.6105477734264305	-0.165245
C	0.7707346619206118 0.9362989212919376 0.6107480016963162	-0.117663
C	0.7360685602568595 0.9032680366845359 0.6089013004163603	-0.116247
C	0.5633111292957810 0.7370082123701519 0.6204882179017186	0.079172
C	0.5974530479612836 0.7706300484598136 0.6109300412107290	-0.167089
C	0.4377244650623708 0.6066047104822648 0.6210104315770500	0.082252
C	0.4048345523447668 0.5716374547138320 0.6111377033631772	-0.166141
C	0.2699422341043153 0.4355111198508612 0.6087260373130958	-0.116284
C	0.2353121333178947 0.4024539328340402 0.6107882394472615	-0.117566
C	0.0656264783713917 0.2385577893791165 0.6098653110186997	0.079045
C	0.0997858360295416 0.2721934913476312 0.6104989772234413	-0.170953
C	0.9377262422815662 0.8932968277161344 0.3792690113061520	0.081918
C	0.9047848381588208 0.9281834959306476 0.3891078000939863	-0.165606
C	0.7699004130008710 0.0645268568474661 0.3919711595684946	-0.117037
C	0.7353411052510958 0.0976779810362109 0.3895868812248329	-0.117334
C	0.5648524841013802 0.2606311953520376 0.3897571532138110	0.079074
C	0.5991592186205017 0.2271650637117507 0.3892245336079925	-0.172653
C	0.4356216058194952 0.3951216817935900 0.3898112996005760	0.077722
C	0.4028415711460097 0.4301910793297350 0.3894826684065308	-0.166664
C	0.2709074404980455 0.5638357752946154 0.3899973593317406	-0.115977
C	0.2361605961124235 0.5967587606244401 0.3918075460911185	-0.116349
C	0.0633798459681573 0.7629407536752888 0.3784491955278689	0.081048
C	0.0975168131760314 0.7293362241271769 0.3880928357462829	-0.165642
C	0.0623756623623691 0.1066976753309286 0.8787557639989096	0.083642
C	0.0952475189917265 0.0717332836364701 0.8884564917622724	-0.166377
C	0.2299944418061583 0.9354570652502271 0.8922474633087125	-0.117764
C	0.2647177670287349 0.9025019312275959 0.8901471067961347	-0.117178
C	0.4345167797071599 0.7388582292873966 0.8892811603125453	0.076400
C	0.4004095436024650 0.7725246571813409 0.8885966207035598	-0.170989
C	0.5636888217679242 0.6043407468312739 0.8898457224579734	0.079335
C	0.5966922904736121 0.5694777532033628 0.8896191012489596	-0.167157
C	0.7292082365952948 0.4363170767699066 0.8900422891191007	-0.116210
C	0.7637836394160122 0.4031943538985532 0.8918296491667891	-0.116112
C	0.9366440195235451 0.2369931229968831 0.8791883809933370	0.079168
C	0.9024266981306545 0.2705007304770226 0.8889209765534531	-0.166813
C	0.6517243215672446 0.8232571340973535 0.7438906229243148	-0.104807
C	0.8865954626254018 0.0525258166940469 0.7523483553115965	0.158485
C	0.8229501008459497 0.9873227786418252 0.7545800338475362	-0.102791
C	0.6166177032136271 0.7893457518150789 0.7469049528323205	0.164540
C	0.7881499372757306 0.9531225749975006 0.7525829007424476	0.128677
C	0.7177067369805048 0.8859021720385026 0.7483059740149138	0.137731
C	0.6822945702275313 0.8523446146798764 0.7460498285196173	-0.102336
C	0.8526498030607643 0.0173881556578448 0.7555746758025835	-0.106178
C	0.1518359444198958 0.3230581596924812 0.7556318179924871	-0.104761
C	0.3866361918042703 0.5523840501259397 0.7474695378607549	0.159372
C	0.3229569668980683 0.4872119036425075 0.7463993854927466	-0.102662
C	0.1167646625554060 0.2891129327108334 0.7521781278012136	0.163827
C	0.2881330525720911 0.4530467191717344 0.7484474704236885	0.128390
C	0.2177400441518379 0.3857856320012135 0.7523222815346357	0.137020
C	0.1823732598413691 0.3521850629324833 0.7542671325533824	-0.101715
C	0.3526810337554254 0.5172433133852191 0.7444302988437693	-0.105632
C	0.3482464774771480 0.1767532811492678 0.2439895947067191	-0.105882
C	0.1134110791932390 0.9474870445157180 0.2518164188006388	0.160965
C	0.1768743545358917 0.0128862706316033 0.2540540801159356	-0.102547
C	0.3834387458370274 0.2105686239158634 0.2472854336021641	0.166151
C	0.2116993052902217 0.0470482845056584 0.2521193816486456	0.128345
C	0.2821834105904285 0.1142071390180583 0.2480361016781301	0.137672
C	0.3176208821709883 0.1477339501039187 0.2458729814822145	-0.101083
C	0.1472124326150305 0.9827795778401383 0.2551924093769031	-0.107947
C	0.8481056998246306 0.6770466942358129 0.2558948492954898	-0.104959
C	0.6134051455477004 0.4475825214848903 0.2474399735271905	0.157888
C	0.6769274774128380 0.5129150949718166 0.2457231365715959	-0.104619
C	0.8832853469317234 0.7108679781689575 0.2525703853679271	0.164329
C	0.7117696945103572 0.5470730010332276 0.2478717515701518	0.128789
C	0.7821844376508261 0.6143283780693817 0.2525099515029273	0.137060
C	0.8175380240755010 0.6479568940924947 0.2546392676091095	-0.101795
C	0.6472400464123832 0.4828373937028078 0.2443248418771562	-0.104986
C	0.3483010395519824 0.8232551447748390 0.7440133730806900	-0.103266
C	0.1135276700132331 0.0525116011689877 0.7520746360594770	0.161190
C	0.1769554469666540 0.9870739710373301 0.7544884824387348	-0.102668
C	0.3833653143072566 0.7893243779809700 0.7469783347539339	0.164285
C	0.2117926716763570 0.9529283711884067 0.7526126830384420	0.128589
C	0.2823365028303755 0.8858798661060346 0.7485284792615655	0.139194
C	0.3177488916447256 0.8523478078464856 0.7463168609395425	-0.103966
C	0.1473160040627949 0.0172008567051009 0.7554379511962703	-0.108002
C	0.8480705556801795 0.3230453299057441 0.7563734338105877	-0.105245
C	0.6132833247576062 0.5524464795948103 0.7477592881155032	0.160633
C	0.6770214952142191 0.4873350133651202 0.7462400825813172	-0.101064
C	0.8832720294322126 0.2892370775882713 0.7530596782375968	0.164599
C	0.7118276265075785 0.4531440885517554 0.7482735415274475	0.127958
C	0.7821318508523943 0.3857423296662959 0.7524198909848576	0.137957
C	0.8174849420291124 0.3521197458315267 0.7545936950741520	-0.101812
C	0.6472723503836701 0.5173452845586802 0.7446558899206109	-0.107496
C	0.6517700652346665 0.1770330866653665 0.2443063277648377	-0.105231
C	0.8865111785297923 0.9475661416837103 0.2528388164727058	0.158915
C	0.8228215210472084 0.0127326291337115 0.2546106783431136	-0.101792
C	0.6165328868486190 0.2107917211773300 0.2476220101279316	0.166626
C	0.7880427030144869 0.0469570986702013 0.2524430499161005	0.128780
C	0.7177759507388460 0.1144032157315275 0.2478922383953752	0.137476
C	0.6824022271764032 0.1480092181532475 0.2457355846208065	-0.102031
C	0.8525353147169341 0.9826830286924588 0.2560929778318095	-0.105605
C	0.1517452130726956 0.6768064958953990 0.2555087121539126	-0.105290
C	0.3866088170858478 0.4476401203079423 0.2476261531182700	0.159419
C	0.3231666952167784 0.5130285107061794 0.2461017135782814	-0.104877
C	0.1166934268548022 0.7107729618267070 0.2521172130389298	0.163889
C	0.2883087524365541 0.5471447362337658 0.2482064029780764	0.127819
C	0.2177083527796437 0.6141463361755334 0.2523776512218133	0.136850
C	0.1822857583241270 0.6476818359974745 0.2543372180515154	-0.100870
C	0.3528269906040786 0.4829322202643379 0.2445138621450308	-0.105180
H	0.9535172958638125 0.1233396482468584 0.9802249828444020	0.122375
H	0.8933739796913747 0.0597435586552371 0.0014184491428641	0.121608
H	0.7837087342348030 0.9485054101085588 0.0013448469668116	0.107662
H	0.7213682149667644 0.8891672122920942 0.9974369434410209	0.114651
H	0.5521246013660536 0.7252426119637638 0.9970888405706883	0.102007
H	0.6131122765640149 0.7857591301801703 -0.0027210809832513	0.124799
H	0.4500317516197681 0.6181040417121872 0.9973584991174512	0.104433
H	0.3904485188582892 0.5554901575126390 -0.0020002757607465	0.119772
H	0.2849923691431667 0.4496770773158472 0.9978861271708702	0.106335
H	0.2226711530277805 0.3903018094065510 0.0007882939405205	0.114668
H	0.0471966718666453 0.2209034789171713 0.9790168582444333	0.121877
H	0.1094905533029273 0.2823196402794464 0.0008346908154107	0.124205
H	0.0465835166909134 0.8765601255123424 0.4788374152229818	0.123445
H	0.1066115452781920 0.9406076266454335 0.5008216510131988	0.121847
H	0.2163369412649497 0.0517765420880243 0.5009302939170679	0.107163
H	0.2787100970862283 0.1110682197772633 0.4971990514625923	0.114280
H	0.4492521506236973 0.2736646722964993 0.4975523796317674	0.102128
H	0.3875326679632505 0.2136699461154861 0.4976086418727707	0.125163
H	0.5514792467352733 0.3808798709189394 0.4974317997285604	0.103137
H	0.6101527884939812 0.4439703170512994 0.4981171709418430	0.119833
H	0.7150196765146143 0.5504930240816022 0.4973364328772068	0.106655
H	0.7773348176118779 0.6098589924789379 0.5009490012619948	0.114551
H	0.9529035936289618 0.7790659448168706 0.4800735960036936	0.120950
H	0.8905395970963066 0.7180433101192328 0.5012450707645558	0.124605
H	0.0515013465087172 0.1196602416259194 0.5025210961211154	0.104106
H	0.1104041600439152 0.0562807253049003 0.5015089774036946	0.120381
H	0.2149441015696486 0.9495614319837873 0.5032174225649959	0.106122
H	0.2774349991793525 0.8903503638327338 0.5000446695780966	0.114980
H	0.4526710724758363 0.7209652256271487 0.5197308705476429	0.121260
H	0.3905539165490909 0.7823230677309273 0.4983002352184815	0.124119
H	0.5463151678346649 0.6233916922400707 0.5205225783286714	0.122349
H	0.6065048815182712 0.5595145537515988 0.4987307632286109	0.121975
H	0.7163475278494819 0.4484991107947128 0.4994430774636736	0.107085
H	0.7785394080193453 0.3890095518364573 0.5032899252423892	0.114892
H	0.9489125403137243 0.2263926718229465 0.5024964314613616	0.102028
H	0.8872666615037841 0.2861890059322106 0.5026937117217681	0.124579
H	0.9496890556092558 0.8821174346851396 0.0024728475138654	0.103300
H	0.8902981515394266 0.9445682034381980 0.0022084717682820	0.119956
H	0.7848894975903209 0.0503580037924684 0.0030195444202225	0.106832
H	0.7227054576978873 0.1098499677741121 -0.0006194770413738	0.114758
H	0.5468511944302017 0.2791001233488565 0.0206604742510796	0.121369
H	0.6093361558232715 0.2178784921206570 0.9989701446861258	0.124506
H	0.4532276599611870 0.3766829578225728 0.0200091658174472	0.122301
H	0.3933809834047868 0.4406400035071690 0.9986038080988431	0.121939
H	0.2836879490673146 0.5518206767885728 -0.0006658708603131	0.106683
H	0.2212022864112666 0.6109757743826308 0.0032845994119780	0.114588
H	0.0521830625880990 0.7754123821698751 0.0023090577981029	0.102013
H	0.1133644276942067 0.7146572566166517 0.0018227738161376	0.124863
H	0.0514039979370822 0.8802446248159000 0.0021153627435045	0.104206
H	0.1102551371416216 0.9436624960128460 0.0012513226580861	0.120339
H	0.2148147312140114 0.0503632514397623 0.0026893781052244	0.106622
H	0.2772048211925925 0.1096296193463326 -0.0004763070406740	0.115338
H	0.4529140556352610 0.2789981911513545 0.0208012402377569	0.121986
H	0.3905747389146135 0.2176177708508660 0.9986696323429098	0.123775
H	0.5466084378682645 0.3766107224145201 0.0196583981703197	0.122267
H	0.6065125230262044 0.4404659728703261 0.9984240678634375	0.121924
H	0.7163717290314390 0.5516973446232195 -0.0009922631150614	0.107060
H	0.7786589023694789 0.6110672936227504 0.0034324119633667	0.115121
H	0.9489139783506694 0.7737611529988506 0.0025019379409226	0.102123
H	0.8872369797128673 0.7139653269395484 0.0021679451788667	0.124597
H	0.9497666515861930 0.1180404739627019 0.5025101147838581	0.103267
H	0.8903607400173807 0.0555920369690084 0.5017200377610882	0.119905
H	0.7849080684605279 0.9496181144678327 0.5031627937375024	0.106521
H	0.7225429470548598 0.8902960410386105 0.4998386099948756	0.114648
H	0.5472139491217973 0.7208666061526523 0.5195103026777289	0.121181
H	0.6093081739038997 0.7821795184662540 0.4982149394364719	0.124359
H	0.4535155025708075 0.6233066436109139 0.5206476256197089	0.122681
H	0.3933605826186735 0.5593784099583440 0.4984674706607677	0.121865
H	0.2835206300551366 0.4483446033448967 0.4995986635705105	0.107138
H	0.2212128298942961 0.3889531259634786 0.5032220618791554	0.114675
H	0.0521787178620018 0.2244828993882340 0.5022789462371722	0.101845
H	0.1133829967704245 0.2851756904359193 0.5018375396571871	0.124950
H	0.9534411214761261 0.8766909233921313 0.4800636959212252	0.122034
H	0.8933432258619290 0.9402965522143115 0.5018380592191333	0.122226
H	0.7834572033394538 0.0516564916202977 0.5012117110830528	0.107395
H	0.7212912637739198 0.1111736078806760 0.4970571942455765	0.114156
H	0.5506462532705236 0.2737303710794831 0.4973756546698379	0.101996
H	0.6124688765896855 0.2138160556171332 0.4979759916738101	0.125489
H	0.4484840542932909 0.3807593037434581 0.4977575512837376	0.103643
H	0.3898995713773357 0.4438851584798666 0.4982927317433907	0.119478
H	0.2851551135554994 0.5505103355814451 0.4976471430327554	0.106340
H	0.2226308951784087 0.6096560863695998 0.5008437923141801	0.114731
H	0.0471713930599046 0.7791311046700053 0.4790221418544801	0.121885
H	0.1093984688125557 0.7176491121471350 0.5008029057672863	0.123867
H	0.0466589328214698 0.1234452620684433 0.9792884165436955	0.122933
H	0.1067152723288903 0.0594447890570278 0.0010672867732818	0.121565
H	0.2163654644109267 0.9482670303406934 0.0013987081905753	0.107353
H	0.2788252423808336 0.8890580837693949 0.9976622622119776	0.114738
H	0.4478915987306722 0.7250786636553027 0.9972790306717823	0.102000
H	0.3869263252256370 0.7855971560650051 -0.0026351520712363	0.125012
H	0.5498890399590565 0.6180569045870786 0.9972710559648585	0.104445
H	0.6095149139345604 0.5554848665132963 -0.0017010028967095	0.120132
H	0.7150656173980490 0.4496940088787315 0.9977049235270460	0.106345
H	0.7772871530630854 0.3902192950734675 0.0008708179180868	0.114551
H	0.9528594552093776 0.2209825643406615 0.9800682911754890	0.121097
H	0.8905625639343971 0.2820346873384587 0.0017065771842554	0.124424
Co	0.4999445656118585 0.6723479967015652 0.7565824333662101	0.539160
Co	0.0000953299523177 0.1723792329443298 0.7433640374117491	0.537836
Co	0.4999150985567298 0.3276116103646771 0.2567304346302832	0.537937
Co	0.0000507754848987 0.8276668982324579 0.2430921117270020	0.538591
B	0.4999310268216760 0.6730751779276183 0.1941620654802547	1.051814
B	-0.0005011960058359 0.1728700644966394 0.3043138644442909	1.053205
B	0.4997415614689524 0.3277051750379591 0.6956105742157302	1.052019
B	-0.0005892732172309 0.8273174351922931 0.8039070490669992	1.052491
F	0.4997395143078878 0.6251150943615286 0.2358844860452022	-0.455650
F	0.9765584167721654 0.2143071589301279 0.2609163673456301	-0.453904
F	0.9767425005453407 0.1313596923170599 0.2605154832710196	-0.452093
F	0.4989703517809405 0.2797292922511743 0.7372963592316775	-0.458827
F	0.9764093727215730 0.7859181937044699 0.7604346753563721	-0.452993
F	0.9768291361953677 0.8688888345936262 0.7600010666907192	-0.450962
F	0.5397023377893525 0.6967862845079409 0.2383989322001046	-0.452641
F	0.0454324808423946 0.1730724490991788 0.2624380668925781	-0.458121
F	0.4602692234883179 0.3520734370511000 0.7387314975360474	-0.452502
F	0.4602431738844293 0.6970835952324868 0.2372851407824576	-0.452370
F	0.5397522936697077 0.3508299021523806 0.7402791792897843	-0.452720
F	0.0453731353671465 0.8270272198424126 0.7622938034867546	-0.457747
F	0.4997185463202716 0.6723367684268544 0.5217165098583800	-0.566824
F	-0.0006003494230377 0.1727697187961259 0.4753440817076763	-0.451005
F	0.4997002411084609 0.3273613618426280 0.0216424657029125	-0.566614
F	-0.0007935570308737 0.8274578251209367 0.9748988487448776	-0.456083
F	0.5000365264004537 0.6733257917234573 0.0233629902949694	-0.454758
F	0.0003372993347254 0.1725719616243587 0.9787885370204270	-0.567518
F	0.4999745339859539 0.3280532311186884 0.5246470829569460	-0.451032
F	0.0003667431673651 0.8275375871305758 0.4782784888249911	-0.566799
N	0.5474741121609170 0.7212869756864898 0.7576775624721459	-0.171719
N	0.9531989246302177 0.1229378844880052 0.7420166076290415	-0.171196
N	0.0475816981763586 0.2211661012788661 0.7412282420873176	-0.173003
N	0.4531237528697049 0.6228874804860627 0.7583931815318482	-0.169421
N	0.4526261184231062 0.2785513006416649 0.2585652768760400	-0.171316
N	0.0470636553295514 0.8768615028312381 0.2410764406699207	-0.171070
N	0.9526359155053690 0.7786695871603727 0.2418895130334038	-0.171569
N	0.5469747313350485 0.3769599631922146 0.2579183569335792	-0.171442
N	0.4524535156388470 0.7212570852036432 0.7578703807329289	-0.171808
N	0.0471372717067705 0.1231169044860529 0.7414703777048671	-0.170845
N	0.9526462625137244 0.2214117530504389 0.7418999256846188	-0.171571
N	0.5467612073399837 0.6229089120993980 0.7583035585189333	-0.170603
N	0.5472189589785575 0.2786060839175680 0.2584282889540040	-0.172315
N	0.9531352324515154 0.8771454252634138 0.2418767797508014	-0.171625
N	0.0475594757949754 0.7788062609190539 0.2412352124087728	-0.172177
N	0.4529141475468209 0.3769344376992375 0.2581952409497591	-0.171740
	  	
