#======================================================================

# CRYSTAL DATA

#----------------------------------------------------------------------

data_VESTA_phase_1


_pd_phase_name                         BFFIVE_2_Cd_i
_cell_length_a                         14.32576
_cell_length_b                         14.32590
_cell_length_c                         8.74641
_cell_angle_alpha                      89.97137
_cell_angle_beta                       89.97279
_cell_angle_gamma                      89.74142
_symmetry_space_group_name_H-M         P 1
_symmetry_Int_Tables_number            1

loop_
_symmetry_equiv_pos_as_xyz
   x, y, z

loop_
   _atom_site_label
   _atom_site_fract_x
   _atom_site_fract_y
   _atom_site_fract_z
   _atom_site_charge
C	-0.0003270130605376 0.3060139471832148 0.3624021412824060	-0.162655
C	0.9992443810507329 0.2091751145856237 0.3732862849121180	0.096762
C	0.4993275549596888 0.8119940209003600 0.8610161618297590	-0.166327
C	0.4987070328128115 0.7150509103758229 0.8606799597828581	0.096629
C	0.9995357389402600 0.6949151905074563 0.3632558717567523	-0.165560
C	0.9992585641727196 0.7917380845512332 0.3742403554247647	0.098302
C	0.4989970011458675 0.1888299006304127 0.8599560184068746	-0.166744
C	0.4985087751760979 0.2857774511815247 0.8596418722060131	0.097239
C	0.6949131116824245 0.9995356671846580 0.3632568728543049	-0.165599
C	0.7917370252372719 0.9992605344511676 0.3742444600945651	0.098221
C	0.1888403541009206 0.4989943548377745 0.8599505120603268	-0.166601
C	0.2857880291594417 0.4985050804515696 0.8596364844128095	0.097252
C	0.3060088368102890 -0.0003383002609172 0.3623991654840887	-0.162548
C	0.2091684146819888 0.9992404379872200 0.3732908158852834	0.096757
C	0.8119958698405371 0.4993192193916581 0.8610270446873538	-0.166272
C	0.7150500258958626 0.4986929622944806 0.8606859781850728	0.096536
C	-0.0006913352387785 0.3118095761247384 0.6392407634410919	-0.165639
C	0.9987104379764209 0.2148730655818137 0.6394860193197017	0.097064
C	0.4997286133254773 0.8058668117259018 0.1378341700200035	-0.162265
C	0.4992531345833569 0.7090452679252327 0.1268326647155758	0.096332
C	0.9990298775281676 0.6888660164375738 0.6401310694263445	-0.166280
C	0.9985287155893033 0.7858035908976715 0.6402955626195163	0.097349
C	0.4996094683813271 0.1949581628024607 0.1367887050609016	-0.165642
C	0.4993329008968441 0.2917803721192933 0.1256573729638684	0.098036
C	0.3118087553988033 -0.0006943203360460 0.6392359140905965	-0.165545
C	0.2148702650070838 0.9987151716590196 0.6394841170098464	0.096995
C	0.8058710873161464 0.4997247902947263 0.1378384366673074	-0.162216
C	0.7090474796985409 0.4992434756213739 0.1268418956606002	0.096499
C	0.6888663596703067 0.9990274514300267 0.6401303760538909	-0.166234
C	0.7858060532724953 0.9985290224957494 0.6402979358709449	0.097251
C	0.1949692673432359 0.4996041691433863 0.1367852246723449	-0.165524
C	0.2917912589821753 0.4993261343677726 0.1256564205586305	0.097895
C	0.0001671885898190 0.4578423925885742 0.4941364125539549	-0.095987
C	-0.0001733352556881 0.3591879041805819 0.4979583882348483	0.161349
C	0.5000710124778177 0.9578581255684998 0.0062844616753214	-0.096170
C	0.4998533127111925 0.8591813444843126 0.0023700718779799	0.162051
C	0.0000610221531189 0.5429818227653240 0.4945547267412803	-0.099901
C	-0.0003572438589017 0.6416285742004326 0.4987553750379689	0.163739
C	0.4999705982342256 0.0429725677551101 0.0058386576506033	-0.099493
C	0.4996524997567915 0.1416387665983812 0.0014307283339220	0.163772
C	0.5429873848367819 0.0000560447607772 0.4945552508151241	-0.100015
C	0.6416262891733966 -0.0003608258753147 0.4987591523698878	0.163727
C	0.0429913496451253 0.4999705511290826 0.0058413940199497	-0.099507
C	0.1416472546762340 0.4996523466350175 0.0014277855810710	0.163621
C	0.4578319092582912 0.0001558811202937 0.4941300539289349	-0.095848
C	0.3591848344014031 -0.0001830791525701 0.4979540712736644	0.161239
C	0.9578554164043765 0.5000701993065770 0.0062938678738451	-0.096108
C	0.8591902179985719 0.4998502413214955 0.0023776316252191	0.162008
H	0.9998172102262407 0.3402654093322373 0.2511045192014579	0.119259
H	0.9990655268883447 0.1636661969663700 0.2725998984884375	0.112090
H	0.4992437631313823 0.8506990842609926 0.7536856813970895	0.117451
H	0.4976660882314869 0.6755290609829819 0.7538887861423587	0.102746
H	0.9996433471723913 0.6606238015082710 0.2520287322916422	0.120168
H	0.9991420013600470 0.8376061979024605 0.2738852044290335	0.112506
H	0.4987548191320286 0.1500139425457390 0.7528176527758422	0.117208
H	0.4971678923487279 0.3254863342851582 0.7530344340591535	0.102103
H	0.6606196100553198 0.9996419733302154 0.2520341897375465	0.120180
H	0.8376070319732245 0.9991484481933397 0.2738895872385347	0.112538
H	0.1500265975455366 0.4987564342557711 0.7528117518930191	0.117201
H	0.3254997736471996 0.4971620341376309 0.7530330709302947	0.102012
H	0.3402555719961912 0.9997980527506951 0.2511037883799779	0.119224
H	0.1636576040144164 0.9990594856295469 0.2726033006640192	0.112016
H	0.8506976450555507 0.4992389792273533 0.7536992244627994	0.117445
H	0.6755283594313632 0.4976519928505107 0.7539070177408482	0.102757
H	0.9993075635382473 0.3503843376679266 0.7466070096289936	0.116976
H	0.9977694344104781 0.1752851109087260 0.7462885879225059	0.102284
H	0.4998379004795654 0.8398263543358572 0.2492915836381776	0.119110
H	0.4989321730806661 0.6634961760789736 0.2275696207419831	0.112282
H	0.9989299738711512 0.6500794395070242 0.7473461999820198	0.116998
H	0.9973436996612419 0.8254928594107336 0.7468940848334876	0.102028
H	0.4996842142720689 0.1607979412515159 0.2481481489234249	0.120269
H	0.4991145500536013 0.3376351107892626 0.2259655053926375	0.112570
H	0.3503859893916696 0.9993037550388607 0.7466019710571532	0.116963
H	0.1752878289049857 0.9977732985478340 0.7462960775907759	0.102352
H	0.8398345644205581 0.4998384544290088 0.2492907101814876	0.119089
H	0.6635052099231621 0.4989248460327184 0.2275761339512062	0.112332
H	0.6500819524174494 0.9989262648505047 0.7473470280437177	0.117001
H	0.8255008526855159 0.9973451348478012 0.7468869654737431	0.102056
H	0.1608124904973621 0.4996786255784900 0.2481439439765042	0.120271
H	0.3376510458008280 0.4991052234847642 0.2259552903980917	0.112743
Cd	0.0004232335299188 0.0004146265462153 0.4961545374106800	0.771213
Cd	0.5004597362378893 0.5004793029165173 0.0036624139218378	0.770947
B	0.0018073757927032 0.0017440317827426 0.9307969311111359	1.063531
B	0.5020586168332754 0.5021600599617067 0.5679283285709226	1.066373
N	0.9988584066637471 0.1649434215761611 0.5092865218441986	-0.227629
N	0.4988622386826400 0.6649621808835587 0.9907896918525581	-0.227429
N	0.9989292987244306 0.8358340371527383 0.5102669972441629	-0.227089
N	0.4989904360952257 0.3358637046119098 -0.0104570660474883	-0.226611
N	0.8358366876027578 0.9989306566799683 0.5102654243885290	-0.226949
N	0.3358727787394946 0.4989884348696595 -0.0104644545410474	-0.226636
N	0.1649385919964389 0.9988619783356454 0.5092919303914581	-0.227625
N	0.6649585785211565 0.4988455238960900 -0.0091988953715386	-0.227594
F	0.0038686923930362 0.0040999584838729 0.7608472023448759	-0.462335
F	0.4985618873525811 0.4985575466454285 0.2446633087129728	-0.598044
F	-0.0008098213394609 -0.0007876557139220 0.2552080060164403	-0.598336
F	0.5045340425588333 0.5045867973142283 0.7379436857957651	-0.464429
F	0.5927715530390332 0.4767573515130579 0.5233909682084574	-0.461798
F	0.4766042746665420 0.5928572146903675 0.5235124000689541	-0.461676
F	0.4347506350787043 0.4348214074366730 0.5312610850414244	-0.465682
F	0.9345705233674070 0.9346185983120379 -0.0316517852999115	-0.464904
F	0.9766314895757784 0.0925702295681004 0.9752000201068870	-0.460675
F	0.0926027017300369 0.9762640026874352 -0.0252075553493005	-0.460792
	  	
