#======================================================================

# CRYSTAL DATA

#----------------------------------------------------------------------

data_VESTA_phase_1


_pd_phase_name                         BFFIVE_2_Cu
_cell_length_a                         13.69526
_cell_length_b                         13.69460
_cell_length_c                         8.97493
_cell_angle_alpha                      89.57173
_cell_angle_beta                       90.18532
_cell_angle_gamma                      90.05305
_symmetry_space_group_name_H-M         P 1
_symmetry_Int_Tables_number            1

loop_
_symmetry_equiv_pos_as_xyz
   x, y, z

loop_
   _atom_site_label
   _atom_site_fract_x
   _atom_site_fract_y
   _atom_site_fract_z
   _atom_site_charge
C	0.5216372309724606 0.6947517326641566 0.1199645646366281	0.093340
C	0.5231742069754995 0.7959490897139230 0.1294305192453812	-0.164756
C	0.4770284563236059 0.3046437109550030 0.1184972651129084	0.090467
C	0.4752176506125432 0.2033903118093933 0.1279146686393473	-0.162295
C	0.3056694778896457 0.5227336220310911 0.1184675871800166	0.093558
C	0.2044911465017412 0.5245396981648469 0.1280103734268551	-0.165385
C	0.6957563921862656 0.4782487572763018 0.1198322560765394	0.093208
C	0.7969958052710765 0.4766017212109642 0.1290625407808406	-0.165478
C	0.4758396547258016 0.7017174274566167 0.8695319491500639	0.090664
C	0.4749331415006600 0.8030389914436390 0.8703565402134436	-0.168162
C	0.5258738973218846 0.2998922479440470 0.8698611114037240	0.093760
C	0.5264027453450613 0.1985693848855801 0.8705362185172030	-0.168261
C	0.7009754444834775 0.5239166967330728 0.8691072281883934	0.092661
C	0.8023004677015961 0.5249153850725341 0.8696856601316135	-0.167317
C	0.2991025257678711 0.4737804183128667 0.8701273424577023	0.091690
C	0.1977698898133228 0.4733472230706890 0.8710054717856437	-0.167730
C	0.5004584161514065 0.1480451632723355 0.0019937235068302	0.168485
C	0.4998760882217931 0.0447660317695127 0.0060363559093026	-0.096716
C	0.4993292024650613 0.8524178966033483 0.0025993820213973	0.168495
C	0.4997195330512189 0.9557152929333338 0.0063760469175220	-0.093556
C	0.8525881685488361 0.5006360962644253 0.0020664921501592	0.168464
C	0.9559081056135268 0.5002599444514024 0.0058999833540998	-0.094733
C	0.1482077841303466 0.4994529572298098 0.0022299168899918	0.168214
C	0.0449531734278235 0.5000832136811401 0.0061052078457569	-0.094914
H	0.5361916610495697 0.6455785705996056 0.2144285550344241	0.120320
H	0.5428831149816006 0.8310648391499653 0.2337609629011458	0.127415
H	0.4613391799368797 0.3530240558338828 0.2120952079758031	0.121038
H	0.4540971455262546 0.1673314100964603 0.2314173930583161	0.127054
H	0.3548110242097345 0.5381965309270600 0.2119904742848525	0.120149
H	0.1692676620993558 0.5454105720200338 0.2315279851032226	0.127578
H	0.6473007812342360 0.4633884256564604 0.2143689329976633	0.121025
H	0.8328968645627188 0.4565558892038758 0.2333128715203738	0.127564
H	0.4588246635550217 0.6606947275615137 0.7689533985474790	0.106398
H	0.4556879621857101 0.8434813471738467 0.7695725664783938	0.127040
H	0.5444355670595936 0.3421007317011330 0.7704884779710682	0.105662
H	0.5465414663697891 0.1589899030091141 0.7705337931209363	0.127515
H	0.6591221783764692 0.5402566370430155 0.7683886439848744	0.105629
H	0.8420153868262474 0.5439809020689603 0.7687006778020258	0.127304
H	0.3403887294454126 0.4547599884432794 0.7707947531029961	0.106069
H	0.1574323338209090 0.4530060284308770 0.7712152710752462	0.127375
Cu	0.5003723069914183 0.5001268468320349 0.0005879521382502	0.690161
B	0.4981718107048444 0.5003664736801631 0.5688102853418915	1.058439
F	0.4985688324673783 0.5030096159300661 0.7332144126198608	-0.487818
F	0.5004667754776848 0.4988038243928412 0.2285002411540082	-0.622305
F	0.4724319531605383 0.5948314566383909 0.5207533918390326	-0.465617
F	0.4283249189866677 0.4298578219431098 0.5288835791013068	-0.468613
F	0.5933360088619164 0.4740036842448481 0.5269418084394749	-0.468163
N	0.5015795066869105 0.3515430532738570 0.9912326013671482	-0.214606
N	0.4988861534921160 0.6490180548105030 -0.0081422651537289	-0.217133
N	0.6491181209750283 0.5012021684552930 0.9916638496239474	-0.217910
N	0.3516293519534817 0.4983334569297384 -0.0086941369713761	-0.215272
	  	
