#======================================================================

# CRYSTAL DATA

#----------------------------------------------------------------------

data_VESTA_phase_1


_pd_phase_name                         BFFIVE_2_Fe
_cell_length_a                         14.00276
_cell_length_b                         14.00051
_cell_length_c                         8.50514
_cell_angle_alpha                      89.39401
_cell_angle_beta                       90.65281
_cell_angle_gamma                      90.03707
_symmetry_space_group_name_H-M         P 1
_symmetry_Int_Tables_number            1

loop_
_symmetry_equiv_pos_as_xyz
   x, y, z

loop_
   _atom_site_label
   _atom_site_fract_x
   _atom_site_fract_y
   _atom_site_fract_z
   _atom_site_charge
C	0.5215127658709071 0.7017729392770662 0.1273280844053812	0.094286
C	0.5223003890168538 0.8007128367586185 0.1366562929564919	-0.171640
C	0.4770797522961333 0.2969107102654606 0.1237353424864723	0.094724
C	0.4764589732040936 0.1979199085781493 0.1327195893352827	-0.171593
C	0.2990045910801731 0.5228154754886885 0.1255015978954561	0.094058
C	0.2001191688799075 0.5236100464605610 0.1349062191299062	-0.171559
C	0.7038227644052311 0.4784150989854983 0.1254243860236724	0.093921
C	0.8028214661397191 0.4776823020579406 0.1342793284672259	-0.170506
C	0.4779872435364458 0.7074709020599800 0.8632214564389606	0.090113
C	0.4771058364670606 0.8065590666547199 0.8620606527792437	-0.171140
C	0.5235545738953143 0.2947843704922933 0.8628164760684082	0.094993
C	0.5243747440376195 0.1957168177996802 0.8611136484385777	-0.170698
C	0.7058163828526840 0.5221395175333019 0.8615551245703289	0.092946
C	0.8048909787556788 0.5231009854011552 0.8598844980087670	-0.170388
C	0.2930331800191580 0.4764248879954164 0.8644005267137742	0.091970
C	0.1939555315682526 0.4757740437085809 0.8632420736395578	-0.171941
C	0.5002885915923545 0.1447101106243972 -0.0011258640787250	0.165332
C	0.5002568655458787 0.0438010807338651 0.0020996217461940	-0.099108
C	0.4999879189165748 0.8556971484431827 0.0012757706716567	0.165471
C	0.5003109864999252 0.9566087189297309 0.0035923824320859	-0.100273
C	0.8559700674990971 0.5003293682909598 -0.0009721395621354	0.163822
C	0.9569032820094754 0.5002597170353191 0.0021027333150794	-0.099223
C	0.1449692568605748 0.5000295239068016 0.0010566139442017	0.166672
C	0.0440838162670245 0.5003451651005000 0.0034517288516686	-0.100385
H	0.5370540540970966 0.6558874397431294 0.2290890743935719	0.107722
H	0.5404071742550554 0.8352954051808846 0.2471870467945707	0.124076
H	0.4600587204739653 0.3414666646154511 0.2244188684854712	0.107906
H	0.4573141989584165 0.1617446074231605 0.2419834165381546	0.123944
H	0.3450344978942272 0.5396493099988432 0.2260969758131784	0.107729
H	0.1656644991990534 0.5426994144846405 0.2444385408858551	0.124172
H	0.6592942240187986 0.4624565093825748 0.2271260799636443	0.108294
H	0.8390790528550889 0.4593502006857357 0.2445040891437890	0.123424
H	0.4611201175378509 0.6674758911476651 0.7570933104917774	0.096189
H	0.4583734358072947 0.8457771429818811 0.7547974677554486	0.123543
H	0.5421018186168157 0.3364421348653905 0.7585037755282991	0.094032
H	0.5441185690001779 0.1580019004301608 0.7548699725197905	0.124198
H	0.6643192624033606 0.5382877993397073 0.7554668238792337	0.096185
H	0.8424598281763277 0.5416826358177030 0.7523570904034931	0.123462
H	0.3330502694370868 0.4575549979705223 0.7598718586247325	0.095998
H	0.1545795549854979 0.4559788479031754 0.7572211503652160	0.123931
Fe	0.5005594519265918 0.5001530260639169 0.0028423159200129	0.792118
B	0.4970450070289681 0.4995483224580655 0.5744091299821573	1.057376
F	0.4968061738460580 0.5029524214244429 0.7517934842770680	-0.436501
F	0.5029377793185114 0.4977146412590857 0.2246213141267490	-0.533010
F	0.4722308699343754 0.5916355098567323 0.5242935729539071	-0.449914
F	0.4290830917193337 0.4308101741186118 0.5337225893010458	-0.453385
F	0.5899813837397248 0.4736010786656317 0.5352042774802389	-0.451644
N	0.5001052142743538 0.3450771580938106 0.9910050736646318	-0.241971
N	0.5001235903059018 0.6554676309885767 -0.0070825528414629	-0.242790
N	0.6556186203463567 0.5000884024430685 0.9912850549461736	-0.243711
N	0.3452004786275475 0.4999400210755302 -0.0074458560742641	-0.241226
	  	
