#======================================================================

# CRYSTAL DATA

#----------------------------------------------------------------------

data_VESTA_phase_1


_pd_phase_name                         BFFIVE_2_Cd
_cell_length_a                         14.32199
_cell_length_b                         14.32238
_cell_length_c                         8.82557
_cell_angle_alpha                      89.90617
_cell_angle_beta                       90.06637
_cell_angle_gamma                      90.09122
_symmetry_space_group_name_H-M         P 1
_symmetry_Int_Tables_number            1

loop_
_symmetry_equiv_pos_as_xyz
   x, y, z

loop_
   _atom_site_label
   _atom_site_fract_x
   _atom_site_fract_y
   _atom_site_fract_z
   _atom_site_charge
C	0.5196863615847078 0.7092231907035960 0.1226731951675685	0.094396
C	0.5210336210788281 0.8060998206168741 0.1313841010607559	-0.168111
C	0.4779647682304750 0.2912652910072112 0.1198052328084950	0.096547
C	0.4769118944176372 0.1943525874994461 0.1294189351747604	-0.169337
C	0.2910166949268417 0.5213766492921430 0.1215184735927990	0.094999
C	0.1941581353520735 0.5227155935177419 0.1301098337343857	-0.168495
C	0.7089143273660449 0.4798928569584315 0.1204831729608459	0.093658
C	0.8058435321585988 0.4786858135739843 0.1300120433041117	-0.168880
C	0.4791246407505391 0.7133758574109542 0.8671713867222095	0.094142
C	0.4777775019813770 0.8104022729506228 0.8663856563131678	-0.169669
C	0.5216695893677836 0.2866552038450264 0.8661618684224973	0.096745
C	0.5234141513395201 0.1897226178901250 0.8661363197541120	-0.171450
C	0.7137273602163832 0.5201550623500931 0.8648729080060770	0.095111
C	0.8106869114659148 0.5219095058304180 0.8650080328628484	-0.169360
C	0.2870177771557549 0.4773398286071386 0.8679922054600823	0.094660
C	0.1899859033609995 0.4761402767972051 0.8668700828888932	-0.171004
C	0.5000769284747711 0.1414652024014462 0.0002319151700488	0.170140
C	0.5000017692748761 0.0426913096942273 0.0036726171974585	-0.097027
C	0.4996108954787510 0.8587835031756652 0.0008585723309517	0.168244
C	0.4999019953342048 0.9575770234640295 0.0035795413305997	-0.095664
C	0.8587823339677417 0.5001914486463445 0.9999276046651921	0.167575
C	0.9575651102598901 0.5000158971255101 0.0031725417672893	-0.094216
C	0.1414806322723670 0.4997403445059191 0.0003050681826412	0.170627
C	0.0427219044349264 0.5000376535931719 0.0028987356014725	-0.098499
H	0.5336566588640830 0.6645498677689519 0.2209720129390053	0.111605
H	0.5385472752355910 0.8408034160618572 0.2374250869856891	0.125263
H	0.4629498787964561 0.3363134715851311 0.2169721490607411	0.111878
H	0.4583910638438521 0.1597217794024163 0.2352079551833708	0.125560
H	0.3355439623625806 0.5367188641937246 0.2193640651938286	0.110239
H	0.1595250035647963 0.5413085490411408 0.2356152320078698	0.125211
H	0.6635565220783749 0.4660514759737835 0.2179482521918663	0.112938
H	0.8405462343816217 0.4613098473772235 0.2362523989890279	0.125438
H	0.4642611814304061 0.6728527746766920 0.7650865870203239	0.102727
H	0.4601107811471861 0.8486738674382120 0.7635339853482707	0.124663
H	0.5381573438610794 0.3269107297248874 0.7643811117475908	0.101532
H	0.5426290419359766 0.1516365411760276 0.7641308763764982	0.124517
H	0.6736414770842062 0.5342044271769880 0.7619566142465075	0.101999
H	0.8489596699477602 0.5397623686957537 0.7623896838729218	0.124148
H	0.3276104922539004 0.4603676021086484 0.7669642203966950	0.102968
H	0.1519026765214593 0.4570255637719084 0.7645643034559747	0.124993
Cd	0.5003803831053243 0.5002855131882319 0.0058123101785236	0.769630
B	0.4995581898970377 0.5010245222168304 0.5714753821590155	1.065046
F	0.4967548537535230 0.5035918252009119 0.7403632895023597	-0.467888
F	0.5042757654425770 0.4962840462908565 0.2445910720436498	-0.602534
F	0.4760025667245545 0.5917503029985278 0.5249066492277180	-0.467141
F	0.4333334465817248 0.4336842014677738 0.5293945768438194	-0.468436
F	0.5914621831669725 0.4759827274009129 0.5347552287777675	-0.466553
N	0.4993553437021207 0.3361108222047934 0.9900972321681403	-0.228870
N	0.4997005782797191 0.6642207767364610 0.9927268221117791	-0.228560
N	0.6642605329578845 0.4996830587384118 0.9898789223591369	-0.228249
N	0.3361822188281933 0.4996862769256141 0.9925840251326461	-0.227257
	  	
