#======================================================================

# CRYSTAL DATA

#----------------------------------------------------------------------

data_VESTA_phase_1


_pd_phase_name                         BFFIVE_1_Cd
_cell_length_a                         11.78054
_cell_length_b                         11.77958
_cell_length_c                         9.00111
_cell_angle_alpha                      90.12621
_cell_angle_beta                       90.36703
_cell_angle_gamma                      89.80126
_symmetry_space_group_name_H-M         P 1
_symmetry_Int_Tables_number            1

loop_
_symmetry_equiv_pos_as_xyz
   x, y, z

loop_
   _atom_site_label
   _atom_site_fract_x
   _atom_site_fract_y
   _atom_site_fract_z
   _atom_site_charge
C	0.2440336438647294 0.4771387619416101 0.3823988015826961	0.094461
C	0.1259395520552748 0.4743471500772404 0.3756161393909598	-0.172165
C	0.7558363344575494 0.5201402194680917 0.3797201001193641	0.096222
C	0.8738537938735947 0.5229960471421885 0.3740168251313958	-0.172950
C	0.5226127613055437 0.2442487757131084 0.3814672353649132	0.097476
C	0.5257568702817597 0.1261667849217900 0.3756119617981086	-0.173425
C	0.4787353064659135 0.7564700278092987 0.3814791969773165	0.098038
C	0.4766809664272180 0.8745463434631217 0.3749047668564146	-0.172995
C	0.7598272388977242 0.4732658356309184 0.6302230028560400	0.098245
C	0.8778078365222300 0.4725216596352358 0.6323541931042259	-0.175880
C	0.2411660963490013 0.5284958637805044 0.6314261836484658	0.100106
C	0.1232311236983558 0.5292502672220302 0.6327341756240100	-0.175213
C	0.4701522267410771 0.2419903942605601 0.6295808603591514	0.100216
C	0.4700342749957844 0.1240056935321003 0.6317646177038634	-0.175344
C	0.5242760659592046 0.7600977186142636 0.6328652231736722	0.096805
C	0.5261275719132389 0.8780033025154094 0.6341351615007511	-0.173977
C	0.0628989056622171 0.5008497198802168 0.5029392167858719	0.098172
C	0.9375241411319303 0.4987525249742936 0.5025325991131462	0.099112
C	0.4990744130304341 0.0633817261636959 0.5029901780693627	0.099072
C	0.5009240497755685 0.9379783724794705 0.5033399411596222	0.098113
H	0.2977614454165579 0.4595479604039377 0.2861043046689117	0.112085
H	0.0836342362825597 0.4499071221791234 0.2724605869361585	0.117471
H	0.7018887160517863 0.5360211000919953 0.2824360647014477	0.109538
H	0.9156777771775071 0.5457253976473750 0.2705933333272262	0.116679
H	0.5403947031221470 0.2975422537005949 0.2849578836900284	0.108900
H	0.5505600432738527 0.0836649778456548 0.2730904925281125	0.116586
H	0.4627308056175901 0.7024098972416207 0.2844005034328409	0.109543
H	0.4544245653844436 0.9165336492352246 0.2709537150054188	0.117021
H	0.7107613782068831 0.4554940078550359 0.7301030708769798	0.100810
H	0.9225356549093405 0.4503752599396713 0.7345864634354202	0.117066
H	0.2908043890350971 0.5483500103163227 0.7308657144965288	0.099822
H	0.0788872793346731 0.5531688696375501 0.7340464612514555	0.116947
H	0.4491974307520448 0.2918032670918471 0.7282763412480807	0.100524
H	0.4459208000069179 0.0798993830984580 0.7329662396392791	0.116568
H	0.5402548549870454 0.7108824426278521 0.7334955847051104	0.100958
H	0.5481158689641492 0.9225308206193186 0.7365609785056692	0.115804
Cd	0.5002091824692377 0.5010459770924266 0.4908979525717240	0.771817
B	0.5028005221234195 0.4975335084038648 0.9171004373951362	1.061181
F	0.5062206113444397 0.4975392624076587 0.7515722053188856	-0.465263
F	0.4976239974141055 0.5022077429060163 0.2564387655959407	-0.607470
F	0.4219924491733700 0.4154468965368663 -0.0449078811724701	-0.468532
F	0.6131548369673365 0.4689971490939433 -0.0365254207228146	-0.465830
F	0.4704951218010680 0.6081273399135745 0.9573613999150762	-0.467838
N	0.3001774181657605 0.5029939833032916 0.5086030325110670	-0.229678
N	0.7002725982743240 0.4965548445871273 0.5060648906537052	-0.229587
N	0.4960638822834410 0.3007157059123467 0.5066672097337624	-0.230278
N	0.5013562760525591 0.7007440420861274 0.5087294494319589	-0.228934
	  	
