#======================================================================

# CRYSTAL DATA

#----------------------------------------------------------------------

data_VESTA_phase_1


_pd_phase_name                         BFFIVE_16_Zn_i
_cell_length_a                         25.16215
_cell_length_b                         25.16173
_cell_length_c                         8.23009
_cell_angle_alpha                      92.10629
_cell_angle_beta                       91.75571
_cell_angle_gamma                      90.00681
_symmetry_space_group_name_H-M         P 1
_symmetry_Int_Tables_number            1

loop_
_symmetry_equiv_pos_as_xyz
   x, y, z

loop_
   _atom_site_label
   _atom_site_fract_x
   _atom_site_fract_y
   _atom_site_fract_z
   _atom_site_charge
C	0.4873377355780093 0.3865600757123531 0.3839842427101914	0.093936
C	0.4861063457233570 0.3313471924412212 0.3734724447591162	-0.175245
C	0.9554848743744273 0.6117991252911992 0.9330126523102535	-0.124552
C	0.9552096966338937 0.5566827298400057 0.9380577235382290	-0.125903
C	0.5091733629743871 0.6094783073266896 0.3679567392859013	0.095938
C	0.5104250160089947 0.6643858179993600 0.3548657359799066	-0.173385
C	0.0439178124745823 0.3862431006342817 0.9432112767080483	-0.124302
C	0.0438108398264632 0.4414321585518621 0.9438956356841715	-0.129488
C	0.6104224626297707 0.4897525365226869 0.3745132985486208	0.093385
C	0.6654483345653261 0.4887114258399521 0.3639609036239051	-0.175064
C	0.3866385454642156 0.9555855822476715 0.9322965901029860	-0.125549
C	0.4418548798605215 0.9556110044278299 0.9372152803972966	-0.126405
C	0.3876492721709397 0.5117314396256631 0.3725713755830569	0.095496
C	0.3324959168135351 0.5132914192663662 0.3585589027461111	-0.176870
C	0.6127047807161787 0.0437253551936365 0.9459182814263372	-0.123876
C	0.5575027431325168 0.0440301856369274 0.9451454361625835	-0.127232
C	0.5164915491115067 0.3867548710456248 0.6543266112585115	0.098245
C	0.5168060605462230 0.3315343450983903 0.6539894075675150	-0.177967
C	0.0454863652643382 0.6134379229293998 0.0484754492951893	-0.123491
C	0.0449952751062881 0.5582849318764502 0.0515652329493648	-0.127075
C	0.4862338260217456 0.6173367881727359 0.6389087006174350	0.089817
C	0.4860209175080428 0.6724695211217551 0.6357086421510516	-0.177062
C	0.9558780076192974 0.3876438593905931 0.0561916326347927	-0.124665
C	0.9559244108242311 0.4428383377701337 0.0546621231711626	-0.126675
C	0.3851620699249949 0.4839203339324456 0.6381448313307061	0.091912
C	0.3299160139157991 0.4837912575726051 0.6337743304622308	-0.177392
C	0.6128224363377655 0.9558848586028219 0.0587487754595699	-0.125133
C	0.5575823129524906 0.9563343561388180 0.0558498459676926	-0.127243
C	0.6163417572840046 0.5139280294100104 0.6494775799230510	0.094113
C	0.6715247343669830 0.5143403657329060 0.6490747371821826	-0.178975
C	0.3871423971727239 0.0457391975480022 0.0480797552428740	-0.125216
C	0.4423731421823547 0.0455819126333381 0.0509175824417980	-0.126269
C	0.5456989664848422 0.8871701576974189 0.5478493070191348	-0.124463
C	0.5455816408244871 0.9424054478561459 0.5506653189114061	-0.126276
C	0.0138863597188674 0.1165219260502468 0.1488215728105686	0.093107
C	0.0143334546712666 0.1717017336761302 0.1487323436972545	-0.178237
C	0.4559010303666184 0.1128889797240120 0.5591285865132249	-0.124899
C	0.4564045991212851 0.0576619823474758 0.5560782229163763	-0.127540
C	0.9838227921884268 0.8853302974125157 0.1384838085823716	0.093083
C	0.9836835613225290 0.8300932316694016 0.1339317243821725	-0.175481
C	0.1133641462991477 0.5456302652648048 0.5488965102464363	-0.123509
C	0.0582003420245911 0.5451533749345714 0.5518014047716449	-0.126755
C	0.8864769418534095 0.0164582600287986 0.1540533173334211	0.097677
C	0.8312706333367075 0.0167581053747412 0.1539496593678464	-0.177699
C	0.8876024406843044 0.4559214736255512 0.5558711204337996	-0.125752
C	0.9428028111274571 0.4560597570803466 0.5543987472624892	-0.125512
C	0.1171056367264569 0.9862335148408832 0.1383337405325733	0.090794
C	0.1722348876253292 0.9860241705498041 0.1351397302299731	-0.176012
C	0.4557043093500894 0.8865451745436346 0.4323294099218415	-0.124721
C	0.4558217056361826 0.9417757961974758 0.4372476875651472	-0.126819
C	0.9899314761640881 0.1101740714286592 0.8740626701788869	0.094932
C	0.9889214435621909 0.1651965808449773 0.8637673078393107	-0.174371
C	0.5439758803278067 0.1126171069432615 0.4461668443046491	-0.123735
C	0.5442828342316304 0.0574223970732604 0.4452865783372815	-0.127835
C	0.0119071698991249 0.8874139636618139 0.8726541488207502	0.095512
C	0.0134463976922916 0.8322306411001321 0.8583783635439914	-0.176862
C	0.8863565906874200 0.5437802512092844 0.4431125284137707	-0.123840
C	0.9415455739682628 0.5437416634046599 0.4439419266254347	-0.127660
C	0.1097266341832324 0.0090698140114540 0.8677979837484244	0.096146
C	0.1646684014520261 0.0103847961485002 0.8547076136134919	-0.174024
C	0.1119720917606273 0.4554310727759088 0.4331256235674417	-0.124737
C	0.0568375620305019 0.4551877061232403 0.4380041113701481	-0.125586
C	0.8867845372563892 0.9873589645404834 0.8831614324515797	0.094399
C	0.8315931912042771 0.9860997998026448 0.8727646009350707	-0.176352
C	0.5009733238248799 0.3025363788908280 0.5110900831285292	0.174232
C	0.5001162245083108 0.2461451171332101 0.5068871548395251	-0.117372
C	0.4995911486964104 0.1976566580233339 0.5054213768174662	-0.096561
C	0.4997203017475158 0.1412875794859048 0.5034818715922924	0.124376
C	0.5005053630342076 0.0290685060616767 0.4994248360224418	0.070034
C	0.9992133676390154 0.8022833360845567 0.9915894529340363	0.172760
C	0.0003047270389800 0.7459027398383995 0.9850338035114135	-0.116525
C	0.0007443582725912 0.6974380660692958 0.9858142972550112	-0.096562
C	0.0006933582266129 0.6411206052457601 0.9885634652283883	0.122824
C	0.9999267681883168 0.5290460498225755 0.9966531490407320	0.067371
C	0.4987944599003242 0.6972467975102390 0.4912363130387902	0.171068
C	0.4998338313914275 0.7535002844343666 0.4855803858697954	-0.114992
C	0.5004312392035715 0.8019643330495896 0.4859926189886892	-0.098323
C	0.5006997237220645 0.8583361161812348 0.4881790824744883	0.124930
C	0.5006853634671344 0.9705718058812707 0.4959353711551771	0.066575
C	0.0012807032839319 0.1972808524299197 0.0035615518851344	0.170978
C	0.0005520722141625 0.2535855165736578 0.9998215351443562	-0.113663
C	0.0000448825134498 0.3020466339543333 0.9999208795754555	-0.099549
C	0.9998915313132528 0.3584068034656056 0.9997524865335237	0.125309
C	0.9998308531545135 0.4706051029039102 0.9988656097826265	0.069929
C	0.6973393517105819 0.5011763926857142 0.5036439918658715	0.172573
C	0.7536374168138025 0.5004451322542707 0.4996468135385399	-0.115223
C	0.8021032018467480 0.4999271077558092 0.4994658714043752	-0.098105
C	0.8584501187574460 0.4998061187432228 0.4994174431636225	0.124720
C	0.9706420149067938 0.4998927600220924 0.4988044875451791	0.066951
C	0.1972463546442143 0.9987649901703648 0.9908496396386042	0.170494
C	0.2535002979813967 0.9998411355850223 0.9851986209703725	-0.115547
C	0.3019696672885601 0.0004629138035668 0.9858759000248511	-0.098202
C	0.3583458236138526 0.0006954663494056 0.9882405210936298	0.125954
C	0.4705945152503119 0.0005485445936131 0.9960265538611424	0.067648
C	0.3023256646702066 0.4992158808528302 0.4917659281883644	0.173663
C	0.2459453731508106 0.5003367664179734 0.4854149172953157	-0.116734
C	0.1974934666022108 0.5007947493250029 0.4862449746786339	-0.096617
C	0.1411665549742693 0.5007315775026058 0.4889355948692256	0.123526
C	0.0290857402927500 0.5000009416315407 0.4966749811672599	0.067201
C	0.8025625129750154 0.0009448926537630 0.0107846347435867	0.174556
C	0.7461825580259500 0.0000823356693260 0.0065480605229169	-0.117035
C	0.6976996738013881 0.9995440522311085 0.0050775318392269	-0.096964
C	0.6413203015024322 0.9996109268209850 0.0031639978464852	0.125049
C	0.5290799226276022 0.0003369790915784 0.9993341977986461	0.067598
H	0.4775146662218503 0.4113305334887727 0.2806850641591936	0.112091
H	0.4737825152185380 0.3107300862436446 0.2599665317495123	0.121688
H	0.9208986605318685 0.6328670312462918 0.8852780060389023	0.111406
H	0.9204135922334018 0.5344197774869741 0.8916186030541553	0.105456
H	0.5164868321887894 0.5822281043935931 0.2645671981842455	0.110770
H	0.5202853543852868 0.6815827540874935 0.2401160210819100	0.123463
H	0.0779240933556480 0.3639389468725582 0.8982824869528372	0.111273
H	0.0777074813095737 0.4624556469659993 0.8971704604065494	0.107697
H	0.5836452773119873 0.4814391637086644 0.2693792654521445	0.112980
H	0.6834941343546319 0.4782583811507735 0.2485986311708714	0.123834
H	0.3646658543909638 0.9207906376456734 0.8846659713720584	0.111232
H	0.4632861267503756 0.9208361097746049 0.8908796139939099	0.106807
H	0.4131817555991333 0.5207582001324482 0.2720270793356931	0.110043
H	0.3129872056103054 0.5251902253806122 0.2457639575188963	0.122560
H	0.6344092864250044 0.0774585980121145 0.9014537451273981	0.110491
H	0.5358369508404550 0.0779727359363278 0.8978164084338971	0.106324
H	0.5280189582021322 0.4104520137222281 0.7633403155191800	0.096500
H	0.5289609440321357 0.3109315764344842 0.7630164940136552	0.122784
H	0.0803513048856743 0.6358267254163437 0.0932690572992882	0.111217
H	0.0794906033002931 0.5373638205478599 0.1010051036962736	0.106264
H	0.4775183882549356 0.5968328324988335 0.7495940092739346	0.101692
H	0.4763346862281210 0.6962130478888255 0.7439949691935510	0.121408
H	0.9219115129056377 0.3664600359237014 0.1015209990617763	0.111325
H	0.9219950415772118 0.4649820077781257 0.1011715813402461	0.105997
H	0.4078291451428626 0.4728455079954799 0.7469583390640153	0.102674
H	0.3082310305427711 0.4720790735492244 0.7391922754913907	0.122285
H	0.6345920761953465 0.9218380151376238 0.1045708143830950	0.111762
H	0.5360260453288319 0.9226705354891607 0.1018057792888811	0.106794
H	0.5950192930627765 0.5228308905277785 0.7605574726901523	0.098430
H	0.6945136453380698 0.5245057986739496 0.7600213975246746	0.121775
H	0.3655509282885987 0.0805464040295760 0.0930478044544429	0.111701
H	0.4641691341423808 0.0803109748242932 0.1003837940716750	0.106033
H	0.5804128980926038 0.8656295842973094 0.5926851554582839	0.111577
H	0.5802254684336816 0.9642903816042505 0.5999569183843718	0.105791
H	0.0226254273464690 0.0952599469833757 0.2595063148065933	0.098373
H	0.0244098339216308 0.1948318701558378 0.2597223861336886	0.121918
H	0.4217670107101199 0.1347228424921028 0.6051168931404689	0.111843
H	0.4226894719218635 0.0361243333450147 0.6019798183233931	0.106345
H	0.9726565042483983 0.9082127019753443 0.2473757147806879	0.099627
H	0.9718971084161083 0.8085616392250969 0.2394066036683640	0.121943
H	0.1356471718860348 0.5805774112389059 0.5938193420729547	0.110919
H	0.0371381132581519 0.5797060236183000 0.6012299698924721	0.106143
H	0.9100805153360980 0.0278492940055415 0.2630298750460014	0.096005
H	0.8105046764405799 0.0289043333602876 0.2632785572088281	0.123059
H	0.8663721396008768 0.4220065428031035 0.6010988522171132	0.111720
H	0.9649337144753787 0.4222552750894621 0.6007585645249875	0.106861
H	0.0963601923507085 0.9775448797686295 0.2487445796019045	0.098858
H	0.1958124949661979 0.9764303084126880 0.2431973995503327	0.121509
H	0.4209501190916782 0.8645287707600602 0.3848257337892420	0.111329
H	0.4211766051629837 0.9632007625725834 0.3911205301057734	0.106533
H	0.9817047377600261 0.0831066984821263 0.7692763208414632	0.112230
H	0.9785789970047958 0.1831766116323692 0.7487401208068363	0.123591
H	0.5777995808048288 0.1342822153809067 0.4018329544907502	0.110853
H	0.5782785542312610 0.0356369855643806 0.3978683362590161	0.106308
H	0.0210462002095468 0.9129504511598370 0.7725118064374357	0.110343
H	0.0254637960463313 0.8124486513606826 0.7455384196725348	0.121954
H	0.8640857004587090 0.5776787273001034 0.3982907097257993	0.110932
H	0.9626635239299333 0.5775458529689814 0.3972840767673347	0.107254
H	0.0825012039123862 0.0162979488957831 0.7650051627361094	0.110906
H	0.1822096930210435 0.0202716461553933 0.7403579839494654	0.123877
H	0.1331457603234156 0.4207676577932631 0.3853444664034242	0.111417
H	0.0346286726542502 0.4203481664509496 0.3914152235738868	0.105638
H	0.9118785340066609 0.9775342183495184 0.7800620427691101	0.112635
H	0.8110815295610578 0.9738242385160092 0.7591933448094821	0.122171
Zn	0.4999032808985717 0.4997921223851094 0.5010012102519568	0.690096
Zn	0.9997678937606267 0.9998481583468575 0.0014638828704605	0.690016
B	0.4999217824095723 0.5027922359508068 0.9406457181586987	1.061804
B	0.0021841040012731 0.0006499428420383 0.4403428506070952	1.061676
F	0.4977873001223898 0.4933764784872920 0.2690120705165953	-0.568753
F	0.9938021253619951 0.9970121947757988 0.7696348863562790	-0.568263
F	0.5013341727137544 0.5081206235274038 0.7626840748323005	-0.447532
F	0.0073952548434377 0.0026279512166738 0.2622199412983548	-0.446391
F	0.4603762724721463 0.4649252806672024 0.9656689402095964	-0.454354
F	0.9635236891687242 0.9617158121300804 0.4644993681878020	-0.454053
F	0.4874906874236800 0.5539588269377518 0.0020859436075185	-0.455588
F	0.9860736496180706 0.0521137642436784 0.4896609360323367	-0.456530
F	0.5512075043961318 0.4856900373966155 0.9867616480010426	-0.456723
F	0.0530772763682634 0.9870748090485293 0.4996350839525121	-0.454740
N	0.5018955130362812 0.4137699654335947 0.5223461944083212	-0.217173
N	0.9978482499888415 0.9134511051086989 0.0106728164372427	-0.217833
N	0.4977337889615825 0.5863835577503025 0.5078846740703824	-0.219439
N	0.0018980000866762 0.0863246911121038 0.0145538752568868	-0.218498
N	0.5863275503328751 0.5018535289439328 0.5152190548595144	-0.217752
N	0.0864060960966953 0.9976595651120732 0.0075737727420986	-0.218754
N	0.4134892350656187 0.4978259130599270 0.5103152393792314	-0.218196
N	0.9137139054887626 0.0019304161658553 0.0217287172737244	-0.217369
	  	
