#======================================================================

# CRYSTAL DATA

#----------------------------------------------------------------------

data_VESTA_phase_1


_pd_phase_name                         BFFIVE_16_Co_i
_cell_length_a                         24.74521
_cell_length_b                         24.74487
_cell_length_c                         8.45721
_cell_angle_alpha                      90.22012
_cell_angle_beta                       90.11650
_cell_angle_gamma                      89.90516
_symmetry_space_group_name_H-M         P 1
_symmetry_Int_Tables_number            1

loop_
_symmetry_equiv_pos_as_xyz
   x, y, z

loop_
   _atom_site_label
   _atom_site_fract_x
   _atom_site_fract_y
   _atom_site_fract_z
   _atom_site_charge
C	0.4798883198101880 0.3915792186216051 0.3718590982424798	0.081636
C	0.4797453164824743 0.3355428157332154 0.3731674155764781	-0.173408
C	0.9545687315555346 0.6148594885709102 0.9434054155708416	-0.123545
C	0.9547907390980017 0.5587183573309448 0.9437522646562260	-0.129571
C	0.5188527871257299 0.6076759414705798 0.3647751950072506	0.081952
C	0.5194428300059848 0.6637520081262437 0.3640121278058703	-0.172160
C	0.0456129490838308 0.3851017990054746 0.9464510751192757	-0.125331
C	0.0451744204177890 0.4412413663798707 0.9450145368750520	-0.126632
C	0.6087662192706735 0.4807682665500158 0.3700395931473807	0.080650
C	0.6648222537134523 0.4805018277536533 0.3726702206313818	-0.173118
C	0.3852157272278022 0.9548964753999388 0.9433065033094451	-0.123454
C	0.4413696841437693 0.9550261152428812 0.9432525606737661	-0.127861
C	0.3919688836084428 0.5199004051916944 0.3668271273928799	0.081191
C	0.3359058432921288 0.5203668226764731 0.3666377025368935	-0.171808
C	0.6148905234141195 0.0453352164600415 0.9452243391104795	-0.125308
C	0.5587325067543127 0.0449638077324152 0.9438533065724818	-0.126430
C	0.5168172700194089 0.3952248510175550 0.6254562974912627	0.089232
C	0.5185758332796541 0.3392525388622923 0.6344559372863365	-0.172601
C	0.0448824160951258 0.6149733479927236 0.0563247220227895	-0.126008
C	0.0449214205034931 0.5588414879470178 0.0547515533258749	-0.126252
C	0.4833709971350083 0.6059486301604698 0.6197762799535612	0.085725
C	0.4819704468159630 0.6619665446931216 0.6266624113300486	-0.170649
C	0.9554633561957251 0.3853793850453150 0.0593939424522390	-0.126219
C	0.9552069712833982 0.4415066884441305 0.0559549516815288	-0.126276
C	0.3946527999743322 0.4832784094881137 0.6202793240083860	0.087317
C	0.3386641272861173 0.4819133636323067 0.6279099205658663	-0.170028
C	0.6150246081395494 0.9555283384292957 0.0599851867143572	-0.124620
C	0.5588718140988604 0.9553019327914585 0.0565923205517168	-0.126511
C	0.6049888989033009 0.5164006351571588 0.6252529601575068	0.087050
C	0.6609523636639589 0.5181528004957129 0.6354771830505088	-0.172046
C	0.3852643597861182 0.0449728422149585 0.0583101896377546	-0.124467
C	0.4414183800855100 0.0449387485998548 0.0562620060109752	-0.128127
C	0.5449240694769546 0.8852883690081579 0.5582543464614089	-0.125081
C	0.5449047487336877 0.9414351069640152 0.5561735829818881	-0.127080
C	0.0166012246637799 0.1051100205684313 0.1249818510068483	0.088007
C	0.0182632259738462 0.1610939573119457 0.1349334978256713	-0.172727
C	0.4554782284361069 0.1151481588316589 0.5601255804955355	-0.123873
C	0.4552591162394377 0.0589863684989621 0.5565723154406207	-0.127386
C	0.9829857065986825 0.8946740293493783 0.1209626365654110	0.085708
C	0.9816375311259433 0.8386603932764023 0.1284762755220653	-0.169473
C	0.1150087972472570 0.5449310240170591 0.5561039058605290	-0.125450
C	0.0588894077202741 0.5449519887644521 0.5546068684370871	-0.125594
C	0.8950259056805394 0.0170656017947742 0.1248670792725385	0.089398
C	0.8390335280210487 0.0187003660586292 0.1340249627111743	-0.172138
C	0.8853824560592259 0.4554310541572028 0.5595851326209369	-0.125492
C	0.9415036759314509 0.4551710003564206 0.5559592207154557	-0.125931
C	0.1059133825126448 0.9830351517534804 0.1194690888358885	0.087815
C	0.1619331541351102 0.9817374439676275 0.1264012140657893	-0.169942
C	0.4548920067618060 0.8851703173226938 0.4432670218928686	-0.123265
C	0.4550477694755091 0.9413144095848054 0.4432612356267527	-0.127669
C	0.9805752730623337 0.1086045815056774 0.8703007493033288	0.080755
C	0.9803081465565406 0.1646653477052704 0.8727333569018362	-0.173439
C	0.5453437300148973 0.1149704367506928 0.4452386949917822	-0.125688
C	0.5449703157430201 0.0588041405484333 0.4437653531761626	-0.127077
C	0.0198914340365188 0.8918098671678439 0.8675931089332135	0.083166
C	0.0203017532670851 0.8357519984431776 0.8673460274999870	-0.172993
C	0.8851276775428726 0.5455720638767733 0.4468580874172066	-0.124314
C	0.9412614774712619 0.5451060549592949 0.4452083181458044	-0.125933
C	0.1078272416493236 0.0190725427943842 0.8652606461882789	0.083331
C	0.1638952762067274 0.0197144678628173 0.8646080639269765	-0.172009
C	0.1149877765670363 0.4544957319221543 0.4433946938903400	-0.123155
C	0.0588559656239710 0.4547162667079889 0.4437390153820371	-0.128089
C	0.8914837228709813 0.9797587188097827 0.8713999653384915	0.081052
C	0.8354410028328683 0.9795782105356298 0.8728912625803171	-0.173074
C	0.5000059725927462 0.3079507463275524 0.5059881910257105	0.169941
C	0.5010492304486556 0.2507060856096527 0.5088176616676190	-0.114426
C	0.5009868386478030 0.2014025182321036 0.5071158208774184	-0.099132
C	0.5006372999562273 0.1440656971483900 0.5044081993919708	0.125906
C	0.5000393867549798 0.0299205562502598 0.4994006268165612	0.066496
C	0.0003382372733479 0.8077841955473292 -0.0004463240474666	0.170887
C	-0.0004346694686816 0.7505162515752408 0.0017070145391909	-0.117225
C	-0.0005403383679241 0.7012199224951550 0.0011585446662328	-0.097307
C	-0.0003906060593852 0.6439270344915051 0.0003457159114711	0.125688
C	-0.0000782065558195 0.5298189718165133 -0.0009209734234457	0.068920
C	0.5002774074705542 0.6923293261309440 0.4968695260703473	0.169225
C	0.4998001762213929 0.7495857496639359 0.4995824679324942	-0.117325
C	0.4998580876773105 0.7988828008420252 0.5010522787793605	-0.096643
C	0.4998882926215671 0.8562188038284833 0.5011831122474819	0.125219
C	0.5000051326044604 0.9703427414213037 0.4991664375721923	0.066542
C	0.0000238680556380 0.1923498556055671 0.0066025370505600	0.169034
C	0.0010661822407829 0.2496274633122247 0.0098311133151027	-0.115572
C	0.0011445218619342 0.2989212074630108 0.0074462100224691	-0.098850
C	0.0007956687504855 0.3562137510593745 0.0045636209840458	0.128509
C	0.0000602027635163 0.4703313363858505 -0.0003324115876710	0.066146
C	0.6923665028899536 0.5000620491601471 0.5069886419067956	0.169063
C	0.7496205607491200 0.5011062229545802 0.5104615584349272	-0.116431
C	0.7989174474554092 0.5011069803549900 0.5079904875418001	-0.096955
C	0.8562341392674961 0.5007580809720760 0.5049749277182404	0.125139
C	0.9703542419395169 0.5000087912467204 0.4996686840794550	0.067101
C	0.1923742776796739 0.0003111266372964 -0.0029107279281657	0.167704
C	0.2496305923395018 -0.0001716930516007 -0.0001971937487746	-0.116553
C	0.2989213952694683 -0.0001476516376969 0.0011819317893826	-0.096906
C	0.3562196536823420 -0.0000967674362594 0.0012414641850140	0.125345
C	0.4703476300003779 0.0000137075777257 -0.0007360341076770	0.066680
C	0.3078624154164626 0.5005061594809391 0.4989331640253512	0.168898
C	0.2506096271221545 0.4996809601403680 0.5011401102721023	-0.116929
C	0.2013114918745462 0.4995202697903570 0.5007807803932706	-0.097035
C	0.1440012806272477 0.4996146884635997 0.5001701397345992	0.125138
C	0.0298957425686687 0.4998939624324127 0.4989920935702732	0.065793
C	0.8078027586392542 -0.0000726931003764 0.0057593187697043	0.170110
C	0.7505502061286188 0.0009808937118688 0.0086242786481538	-0.114857
C	0.7012599415373116 0.0009851597591108 0.0068556650834047	-0.099075
C	0.6439722287539923 0.0006529735695915 0.0042557410080666	0.126469
C	0.5298444376211860 0.0000614797795217 -0.0005174452657320	0.065476
H	0.4655430210269837 0.4142648772147579 0.2698299641854616	0.105300
H	0.4642211550322861 0.3132144013040788 0.2716357711435614	0.125579
H	0.9196846876700843 0.6369678680908404 0.8982813802205847	0.110886
H	0.9200647499634133 0.5366461697566658 0.8969645519927136	0.107981
H	0.5320337780596061 0.5842030486183813 0.2626764134843932	0.105408
H	0.5345321591098450 0.6852494389270785 0.2610745997664789	0.125201
H	0.0804970519939512 0.3628582876843775 0.9018786216962622	0.111705
H	0.0797356569729706 0.4631560677166163 0.8974681711332443	0.106323
H	0.5862637907268342 0.4673839681549747 0.2662890513891155	0.105394
H	0.6872521602373277 0.4654644965080496 0.2709609064656538	0.125408
H	0.3630058877118761 0.9201525514732100 0.8976308839095570	0.111474
H	0.4633078293128193 0.9203348383848663 0.8954641581094661	0.106508
H	0.4151173785359504 0.5340311524538626 0.2656106539402004	0.104739
H	0.3138962603271556 0.5358210821291692 0.2647594286533992	0.124676
H	0.6370055345624588 0.0800372929762194 0.8999771763360888	0.112149
H	0.5367072770825995 0.0794143003388565 0.8954188908417355	0.106434
H	0.5285308633824377 0.4219229937610083 0.7230060951258993	0.119946
H	0.5340316367106621 0.3198866567440639 0.7407838429173078	0.125758
H	0.0796684178993805 0.6371419820986544 0.1018883755764171	0.112074
H	0.0797180355532512 0.5368336346671011 0.1013042122886996	0.105944
H	0.4720638883605364 0.5800117951739331 0.7186820579499501	0.122145
H	0.4670835100038847 0.6821298403405528 0.7325998445586038	0.125514
H	0.9207802122933471 0.3634026045375305 0.1054746903428711	0.111602
H	0.9203539479982764 0.4636795101637369 0.1015666390857585	0.106157
H	0.4209117601083811 0.4714357517331987 0.7183145837397851	0.121117
H	0.3189789987538289 0.4666840995491444 0.7337600199075655	0.125577
H	0.6371897512044162 0.9209683589967120 0.1067762693293381	0.110399
H	0.5368964901872045 0.9205914084551673 0.1028093931650638	0.107063
H	0.5781781344511637 0.5275844262377974 0.7226641624364135	0.120881
H	0.6801185464465492 0.5332268927101134 0.7429632215734201	0.125426
H	0.3631811074075823 0.0796966534701052 0.1049005163863426	0.111184
H	0.4634783635238663 0.0796286882377541 0.1033916813376188	0.107937
H	0.5795912617620295 0.8632508729364449 0.6048290026734567	0.111702
H	0.5795453935829488 0.9635169546888038 0.6032402562968684	0.106851
H	0.0279048470297824 0.0783722531295444 0.2222957715025451	0.120932
H	0.0334140136954775 0.1804377949316689 0.2419502640967985	0.125325
H	0.4209095976718248 0.1372849186911035 0.6069757115861808	0.110509
H	0.4205389112179283 0.0370287448046399 0.6027562891035879	0.106897
H	0.9710749514428413 0.9210230341045156 0.2190394047198699	0.121979
H	0.9663379346131642 0.8189932679960347 0.2341719121254110	0.124483
H	0.1371617980214586 0.5797475717207434 0.6014612713948393	0.112116
H	0.0368646963397818 0.5797805343804228 0.6011137772168030	0.105966
H	0.9217263328034592 0.0289870092213892 0.2221089150732942	0.119756
H	0.8195657020582220 0.0342183784312272 0.2402051928678761	0.124899
H	0.8633799542581699 0.4207900215561414 0.6055950181778695	0.111785
H	0.9636396393023897 0.4203329691628684 0.6014633742292130	0.106202
H	0.0798707798406914 0.9715436677331443 0.2180814622653816	0.121249
H	0.1820646919595786 0.9666842549714870 0.2319927176421281	0.125088
H	0.4201869599379814 0.8629725806497311 0.3976547455998237	0.111626
H	0.4204038839353195 0.9632395571358510 0.3955843610696751	0.106400
H	0.9669839872386667 0.0859587420279414 0.7669117740020730	0.104906
H	0.9651813346223249 0.1869054564441666 0.7710783945996971	0.125777
H	0.5800575602731021 0.1370203348311121 0.3999686012741733	0.112395
H	0.5794276770676499 0.0367563419476843 0.3953286327211209	0.106828
H	0.0342063186171365 0.9149605999024785 0.7666448196724593	0.104443
H	0.0357808237217069 0.8137574618376215 0.7653900654533978	0.124569
H	0.8629008621142548 0.5804292940553999 0.4024755966388230	0.111835
H	0.9631671081054163 0.5796539738190086 0.3976837911393722	0.105887
H	0.0843981723005013 0.0324854468373208 0.7634858497565199	0.104910
H	0.1854469658206553 0.0349643752206199 0.7620574044511380	0.125056
H	0.1371346707236313 0.4195987992072979 0.3983331163496098	0.110766
H	0.0368294717234077 0.4199522796412738 0.3970388387915715	0.107211
H	0.9142420312644520 0.9653001924807224 0.7694308070234063	0.105871
H	0.8131648763178460 0.9639531299053145 0.7715447361959747	0.125387
Co	0.4999123923665305 0.5000656025839785 0.4937044107437851	0.549249
Co	0.0000148622395813 -0.0001018089924611 -0.0061305686265245	0.548905
B	0.4991876731699613 0.4978564594073432 0.0503333014654466	1.059490
B	-0.0018463709669668 -0.0009721744579210 0.5506635084420397	1.059525
F	0.5008501486513988 0.4966886277763701 0.2247171110782118	-0.462219
F	-0.0029144969797534 0.0001736365847261 0.7253619097768961	-0.462625
F	0.4990285801689877 0.5016092385453749 0.7301591688139779	-0.573329
F	0.0013997326873770 -0.0005518515597766 0.2302907018431907	-0.573920
F	0.4605084263450852 0.4588726297669601 0.0064964646695050	-0.464792
F	0.9593594369786129 0.9602118841352772 0.5065256337074291	-0.464684
F	0.4836678599469137 0.5509842645873896 0.0122359005921189	-0.464816
F	0.9844051036244643 0.0518459224410039 0.5045954439801866	-0.462181
F	0.5519975904059139 0.4844962379340347 0.0024194601657101	-0.462855
F	0.0513269058033734 0.9839723551602796 0.5117184258151540	-0.464933
N	0.4984823274493266 0.4209869178583239 0.4951878901096492	-0.177133
N	0.0012890849516553 0.9208097647157171 -0.0085477391782496	-0.176167
N	0.5010713692010311 0.5792062452753914 0.4899622131548126	-0.179378
N	-0.0013272179262868 0.0792523078954116 -0.0061611638271146	-0.178390
N	0.5792523793073152 0.4986321064118172 0.4937918094454213	-0.178582
N	0.0792883819124910 0.0009681248951842 -0.0100741538803839	-0.180541
N	0.4208944200464417 0.5014387061048698 0.4907843083725372	-0.175983
N	0.9208082530614419 -0.0014266184868312 -0.0053859077687135	-0.177027
	  	
