#======================================================================

# CRYSTAL DATA

#----------------------------------------------------------------------

data_VESTA_phase_1


_pd_phase_name                         BFFIVE_14_Zn_i
_cell_length_a                         13.34908
_cell_length_b                         13.34488
_cell_length_c                         8.70560
_cell_angle_alpha                      91.20136
_cell_angle_beta                       91.25355
_cell_angle_gamma                      87.31124
_symmetry_space_group_name_H-M         P 1
_symmetry_Int_Tables_number            1

loop_
_symmetry_equiv_pos_as_xyz
   x, y, z

loop_
   _atom_site_label
   _atom_site_fract_x
   _atom_site_fract_y
   _atom_site_fract_z
   _atom_site_charge
C	0.5742739655084023 0.2591410439134434 0.3567770042569303	-0.184661
C	0.4700595542186619 0.2618726073486755 0.3559108162140118	0.101901
C	0.9461763167494458 0.2729781972242650 0.4143174021496916	-0.175704
C	0.0496705030804643 0.2682805640382068 0.3955950848998119	0.104210
C	0.2573832273641926 0.5737261557266646 0.3579259574761275	-0.184145
C	0.2600978171948359 0.4694649089058178 0.3573660312907748	0.101876
C	0.2797764944898095 0.9449964534342508 0.4123831250715889	-0.175297
C	0.2745593562983669 0.0485732734625562 0.3941755792693308	0.105503
C	0.9267720766736607 0.2443747188352278 0.1401324612764260	-0.188130
C	0.0305296184453861 0.2420512231626231 0.1315616602742108	0.105304
C	0.5651468839896016 0.2213084278450244 0.0839332902190891	-0.176614
C	0.4611895114965193 0.2274977059463593 0.0927780207296075	0.104082
C	0.2229145131686101 0.5644862704675051 0.0840838399342466	-0.176398
C	0.2292946584765766 0.4605325103815068 0.0932350750533963	0.102280
C	0.2430347888383506 0.9263378218661709 0.1401501363932904	-0.187449
C	0.2405982975574873 0.0301444407218346 0.1319408683693765	0.105106
C	0.4258115826526133 0.7461057973144640 0.6411758777393863	-0.187370
C	0.5295157564881359 0.7440758153653652 0.6326865949761096	0.105124
C	0.0639584611722166 0.7323454301926841 0.5802289860268720	-0.174708
C	0.9599849419804980 0.7369342340656260 0.5893274095035900	0.102559
C	0.7473896429414830 0.4261993398224030 0.6404870139071137	-0.188380
C	0.7459824001731931 0.5299309328368313 0.6317840859927737	0.106840
C	0.7233256548634929 0.0648837764604039 0.5824703535076393	-0.174778
C	0.7284627729380753 0.9608522590361845 0.5912729561708526	0.101950
C	0.0730478624639453 0.7561147862862108 0.8564273194257205	-0.183388
C	0.9688866493086764 0.7579673386833156 0.8554775703538632	0.101871
C	0.4453438193008983 0.7707729902536867 0.9161062539897596	-0.173774
C	0.5488684366838248 0.7667320672891935 0.8973067193940305	0.106790
C	0.7708866059686067 0.4456789243365877 0.9156732989745346	-0.175296
C	0.7673446929805636 0.5491981417365301 0.8966373972779083	0.104981
C	0.7565807158051653 0.0735183198850145 0.8566365439449255	-0.183368
C	0.7584361491802640 0.9693217365813153 0.8556774067140136	0.104034
C	0.6227560272452757 0.2383666048225876 0.2172651290510179	0.189434
C	0.8837215838514149 0.2602121340642112 0.2848752476047389	0.189801
C	0.2383236010019451 0.6221101021090084 0.2178610665630612	0.190902
C	0.2629924078644990 0.8828996902037473 0.2837570105466669	0.189528
C	0.3828060910567278 0.7597540013466089 0.7863442489876452	0.189691
C	0.1215202559331082 0.7428615747784465 0.7152810361947268	0.189294
C	0.7600497938783225 0.3831896214886928 0.7858856945147681	0.190940
C	0.7386194510828051 0.1222363193747176 0.7165249267883002	0.190216
H	0.6173592639985438 0.2703252901173205 0.4630326185448506	0.106463
H	0.4260647542519586 0.2750944716531092 0.4595428492001521	0.112645
H	0.9139270227253523 0.2855074749725172 0.5272773418816215	0.127506
H	0.1032054328393730 0.2760762456907943 0.4916176804332749	0.114121
H	0.2673798419282885 0.6170507090247177 0.4642306167287839	0.107297
H	0.2721598533739806 0.4255597258137123 0.4614254429581670	0.113320
H	0.2957965041294000 0.9123721258562911 0.5243245172346811	0.126881
H	0.2851522090531985 0.1018978900834638 0.4897443109160249	0.113020
H	0.8797414680523468 0.2364839484451259 0.0370853086048199	0.102004
H	0.0678408067446030 0.2304370598571690 0.0220580683245578	0.099228
H	0.6016686374010064 0.2042274656098016 0.9753810921765922	0.122915
H	0.4135673879761396 0.2158385192963780 0.9912014859832797	0.101611
H	0.2073751493622454 0.6009753300176038 0.9749518650893797	0.122161
H	0.2196267597621348 0.4129073854199036 0.9911845153347646	0.101521
H	0.2322822713466628 0.8795102277384074 0.0376190134745690	0.101681
H	0.2259827501133877 0.0677781967705448 0.0232870790849523	0.099632
H	0.3789826375881170 0.7394083936145381 0.5377314011554372	0.098712
H	0.5668237775672181 0.7341975715857211 0.5228985930655410	0.100289
H	0.1006165087126922 0.7212400716990655 0.4702935316974671	0.122582
H	0.9125844360058155 0.7296891764564660 0.4865135486558881	0.102039
H	0.7409827498577342 0.3791916698734679 0.5371617904939545	0.100142
H	0.7367896888835125 0.5672112560960456 0.5218876785560760	0.099822
H	0.7083649324021005 0.1017055604382565 0.4734418182280998	0.122943
H	0.7181841723685188 0.9134943469993125 0.4890445973882005	0.101560
H	0.1159764006885727 0.7626476003139558 0.9638192710049336	0.104532
H	0.9247777713000822 0.7661802126813042 0.9598691081960564	0.112923
H	0.4130861566212529 0.7817846919726954 0.0294133802071980	0.127176
H	0.6023533723752965 0.7738059050738950 -0.0065642496772313	0.113143
H	0.7810401480182034 0.4134341075704326 0.0291527305186219	0.127313
H	0.7740035253292543 0.6027161168377241 -0.0071538781883076	0.113655
H	0.7666645075739564 0.1163628211348361 0.9633575157957706	0.104384
H	0.7699020228291628 0.9250725809436343 0.9595430355301022	0.112448
N	0.7788171837452698 0.2684148633877583 0.3074647617014351	-0.102493
N	0.2715079913072430 0.7778642780020258 0.3058142878501716	-0.101894
N	0.7279110302907972 0.2294836717594393 0.1996426037379849	-0.103672
N	0.2295250800662401 0.7272904421299503 0.2004713136577609	-0.105250
N	0.2266014060963714 0.7354752389259844 0.6967735076519284	-0.101774
N	0.7312479163442605 0.2274608360811075 0.6983531751356029	-0.104701
N	0.2778576624373282 0.7669960172445807 0.8100304532983111	-0.104495
N	0.7666330296839639 0.2782174531643891 0.8093034280358937	-0.102364
N	0.4147084565125030 0.2469345224970310 0.2263374205856769	-0.212719
N	0.0907794341563060 0.2539371763988773 0.2563455877551540	-0.213181
N	0.2468237924063028 0.4140662233981411 0.2274376457889099	-0.213381
N	0.2561319895946165 0.0900723711025005 0.2559886473721744	-0.212986
N	0.5898756493233769 0.7542035769556275 0.7577649972021977	-0.213018
N	0.9135529339601862 0.7489009537774575 0.7244292834386041	-0.212242
N	0.7557330874970462 0.5902644508834467 0.7569031987148129	-0.214064
N	0.7452330745312097 0.9141998730206480 0.7254134153560589	-0.212529
F	0.3294090348260779 0.1942304855672999 0.7814806689850764	-0.449223
F	0.2138198264614617 0.3323533268036397 0.7795177411084068	-0.445958
F	0.1580226890240114 0.1696240825955473 0.7818207988406964	-0.463881
F	0.7021048369307441 0.8315697929237653 0.2800246931190299	-0.447157
F	0.8314601930699573 0.7063885867166474 0.2804137962750303	-0.446911
F	0.6645309262614347 0.6632502569223757 0.2760244678712213	-0.463747
F	0.2682145304070072 0.2663222696756111 0.4776308801963003	-0.571586
F	0.2376444261921663 0.2370065101346152 0.9962644594926524	-0.454487
F	0.7350905171842884 0.7363564734912983 0.4945965898827476	-0.454388
F	0.7672736508408421 0.7671546997983345 -0.0231713126915854	-0.568939
B	0.2348201648761041 0.2335791234952058 0.8258657681658430	1.050359
B	0.7334650216630008 0.7345167768196473 0.3241959108634690	1.048278
Zn	0.2534336605340485 0.2529695420338656 0.2569384224660950	0.684963
Zn	0.7525553432295969 0.7531335640209758 0.7565431355161307	0.683017
	  	
