#======================================================================

# CRYSTAL DATA

#----------------------------------------------------------------------

data_VESTA_phase_1


_pd_phase_name                         BFFIVE_16_Cd_i
_cell_length_a                         25.45717
_cell_length_b                         25.45410
_cell_length_c                         6.96543
_cell_angle_alpha                      94.93317
_cell_angle_beta                       94.55127
_cell_angle_gamma                      82.98389
_symmetry_space_group_name_H-M         P 1
_symmetry_Int_Tables_number            1

loop_
_symmetry_equiv_pos_as_xyz
   x, y, z

loop_
   _atom_site_label
   _atom_site_fract_x
   _atom_site_fract_y
   _atom_site_fract_z
   _atom_site_charge
C	0.4908839857028156 0.3739737054137890 0.3996920203940277	0.084289
C	0.4880858951727234 0.3205090850895189 0.4153914269323948	-0.176734
C	0.9508398971245384 0.6143813347893641 0.9211657425663162	-0.131940
C	0.9529211555089745 0.5601554674575056 0.9353672467848639	-0.118619
C	0.5338696347457628 0.6070872602593198 0.3420305306851290	0.109114
C	0.5372747073647943 0.6608637545184024 0.3335207622097869	-0.182576
C	0.0502989866153598 0.3826818286904299 0.9655947179648265	-0.129447
C	0.0478793083349771 0.4368178262655604 0.9480966105153925	-0.120976
C	0.6255298762824708 0.4730781505152493 0.4108881759304808	0.081748
C	0.6796333805754742 0.4767149546864289 0.4171414196668621	-0.173799
C	0.3897912832936470 0.9594732719902410 0.9023684615645919	-0.128215
C	0.4446392642139045 0.9583208508586267 0.9130467861575653	-0.118958
C	0.3748472452248990 0.5284127072560310 0.3284625781964223	0.111552
C	0.3200921045945435 0.5293290755383069 0.3225429321832749	-0.167858
C	0.6073779584149008 0.0451823690148814 0.9917009319405565	-0.126854
C	0.5526491044049422 0.0459108888162589 0.9671924082784429	-0.116355
C	0.5173767932227236 0.3875054798154451 0.7255163667447775	0.103962
C	0.5177018676337184 0.3337336992005504 0.7521864018143987	-0.176830
C	0.0456026443393540 0.6088625078431136 0.0063226216095202	-0.126264
C	0.0471315083312334 0.5546582585289244 0.0194051655940655	-0.112313
C	0.4758693784758492 0.6232051248654784 0.5852964439489554	0.098670
C	0.4766644353604192 0.6777542652829283 0.5860412130460091	-0.173520
C	0.9612861746050285 0.3959283737480916 0.0762893071094695	-0.126952
C	0.9593238762599086 0.4498773215560732 0.0571072369723922	-0.117457
C	0.3873248630707735 0.4642651582547472 0.5484134405510943	0.103288
C	0.3331760946827274 0.4627809094630493 0.5528362607077995	-0.167601
C	0.6148844189048788 0.9547399854899226 0.0836988193652104	-0.134399
C	0.5601198182672178 0.9557241266199981 0.0558707069175313	-0.120012
C	0.6179379489927399 0.5216537166130593 0.7066832393745273	0.095495
C	0.6719402567338690 0.5272667375308799 0.7250722746000662	-0.188284
C	0.3822718844810282 0.0513794727414805 0.0326782571456548	-0.130536
C	0.4371222124525644 0.0497052418725517 0.0421743394601322	-0.119655
C	0.5512788741599479 0.8822513224599362 0.5323836637438646	-0.130852
C	0.5497221127643357 0.9371227147888277 0.5427376349967332	-0.119024
C	0.0219256204242271 0.1185180749820276 0.2077911484315251	0.093883
C	0.0276052676030432 0.1725350930437770 0.2267913987118035	-0.187736
C	0.4550349563895892 0.1150987377603698 0.5851853636928723	-0.135829
C	0.4560179074959407 0.0603059522911238 0.5575138466227898	-0.118097
C	0.9649091708528204 0.8871663172673081 0.0449161648234124	0.101571
C	0.9633060880698778 0.8330209416216121 0.0476150294493749	-0.165796
C	0.1086905956596311 0.5452213174711389 0.5061823169105324	-0.127552
C	0.0543991886967845 0.5468406184347003 0.5181655717627081	-0.111608
C	0.8871520217421605 0.0175481217508775 0.2265373682578868	0.104661
C	0.8332631119780345 0.0180152501153472 0.2524657432389503	-0.177841
C	0.8956137904702217 0.4612567223910915 0.5767154483686880	-0.126326
C	0.9496013364030418 0.4592776319472591 0.5572511458067595	-0.118755
C	0.1226212225812944 0.9762070136303009 0.0816224399300651	0.097643
C	0.1772339548983197 0.9767267174315037 0.0840469967867250	-0.173512
C	0.4596492588916163 0.8897945063122776 0.4021425676498467	-0.128152
C	0.4585957003607462 0.9446882186612982 0.4138432172401281	-0.118402
C	0.9732962043428444 0.1259475345390015 0.9134219454383370	0.081502
C	0.9768088195442033 0.1801014510246119 0.9207457239868475	-0.173202
C	0.5456459453989524 0.1073189252007793 0.4926940338929953	-0.126396
C	0.5463695744111305 0.0525452565369093 0.4683908305222815	-0.115886
C	0.0281496797864875 0.8746988777661713 0.8197813722538214	0.111962
C	0.0291566747298830 0.8199169664677299 0.8128530478584821	-0.168777
C	0.8825061890497850 0.5500014916623215 0.4655934333690013	-0.130024
C	0.9366858827114370 0.5475623074681693 0.4478075823599283	-0.120548
C	0.1077915497356230 0.0341157100515730 0.8391105791223765	0.108997
C	0.1617275270081677 0.0369164177800130 0.8312774901641404	-0.181628
C	0.1144280041268289 0.4501865042748321 0.4224762474441448	-0.132383
C	0.0601194760188122 0.4523580535393350 0.4355775393578725	-0.117834
C	0.8746874030894887 0.9898135877963838 0.9013153635882105	0.085715
C	0.8210463299634227 0.9875232463165915 0.9159098373385675	-0.177169
C	0.5023591316539253 0.2990313903792199 0.5948003917755997	0.171856
C	0.5015814649383827 0.2435420150666232 0.6037836991085754	-0.116410
C	0.5001333777186900 0.1955965614990660 0.5831866259437319	-0.098679
C	0.5001484511737289 0.1396980755634445 0.5548937087051797	0.126660
C	0.5018447600421254 0.0278051549638221 0.5018995897682075	0.062186
C	0.9959799076719023 0.7979261652236715 0.9285629855261632	0.175504
C	0.9960458224855486 0.7424064514841433 0.9305585522790381	-0.107883
C	0.9960265371925914 0.6948398505316078 0.9406387267672542	-0.102919
C	0.9973541606061289 0.6396578111680853 0.9558196897319320	0.128008
C	0.0009568833373095 0.5291465614883606 0.9835020086306798	0.061320
C	0.5078891466718432 0.6978311240130282 0.4578150901730638	0.178197
C	0.5086501771950935 0.7533888730609561 0.4541906150054587	-0.115990
C	0.5073533173788007 0.8015308779780241 0.4560923787201645	-0.095114
C	0.5060874243508025 0.8575434444410561 0.4623755460419190	0.124240
C	0.5033881307194932 0.9695254916017433 0.4846191039513528	0.063545
C	0.0050233917036806 0.2044726671307231 0.0791856834550657	0.172990
C	0.0093098160984937 0.2595436913580116 0.0811989368230215	-0.122062
C	0.0092975524859824 0.3065519470568034 0.0585871846951633	-0.093886
C	0.0072232278632356 0.3613865679960284 0.0334181036506180	0.121571
C	0.0027634298471497 0.4716162043663559 0.9960766890832886	0.064688
C	0.7039615071871879 0.5047346098780423 0.5762934718581931	0.174154
C	0.7590462266354052 0.5089424895776702 0.5785261812996936	-0.122320
C	0.8061692074773816 0.5089901315754162 0.5573674949229925	-0.093534
C	0.8610951416821280 0.5070106042898175 0.5331547670547536	0.121787
C	0.9714073027530858 0.5025126103940210 0.4953665388083124	0.065328
C	0.1979720703480154 0.0075139465646856 0.9562632117320646	0.175925
C	0.2535372441268464 0.0081840758146541 0.9539887531815694	-0.115338
C	0.3016218606076606 0.0073129566929708 0.9568148425978507	-0.094512
C	0.3575707691678218 0.0060912280882448 0.9630858506403044	0.123519
C	0.4695192171257290 0.0031705831315278 0.9837665861265634	0.064564
C	0.2981209305122476 0.4957949416439646 0.4366501161222374	0.176014
C	0.2426122940322557 0.4956292255748380 0.4380282706665284	-0.107714
C	0.1949321188874151 0.4954322743017059 0.4448855159687000	-0.103037
C	0.1396141566714917 0.4967979552883435 0.4571824547002379	0.128483
C	0.0289700100702888 0.5005939147621703 0.4825530813845589	0.061309
C	0.7989112358571546 0.0025485095022688 0.0945801294176221	0.171369
C	0.7433469449401926 0.0018596258756531 0.1029831980909677	-0.115761
C	0.6954858892545204 0.0000102207608563 0.0826009429446088	-0.098634
C	0.6396353688009100 0.9997897130869902 0.0538037818848167	0.125928
C	0.5277721234733619 0.0014889515099057 0.0005246918095310	0.062848
H	0.4829691689701221 0.3919997538491273 0.2619763456710871	0.102413
H	0.4758667536921877 0.2950279086899386 0.2903029588436041	0.119995
H	0.9134838483087862 0.6376188359624848 0.8792561435833619	0.109279
H	0.9168611070634540 0.5410864847463728 0.9016526207600322	0.099775
H	0.5547321785611388 0.5775490034105673 0.2436720896941154	0.091131
H	0.5616949588197784 0.6740987989525635 0.2297538464770099	0.119823
H	0.0855732495716737 0.3562271373593902 0.9280175148717333	0.109862
H	0.0812983750953720 0.4524896377384877 0.8930469496987286	0.108204
H	0.6035234825430464 0.4533095884541609 0.2892615778124039	0.105046
H	0.7030342410675487 0.4585066380765568 0.2994016708887628	0.120455
H	0.3712062028365324 0.9244098921181987 0.8460094842939441	0.113023
H	0.4686352973859940 0.9221764065343478 0.8613270438745673	0.105094
H	0.3930525116392332 0.5539034642980241 0.2422319533166331	0.095749
H	0.2947793491989685 0.5555308120323730 0.2292993055900183	0.123956
H	0.6259282837723887 0.0798091160887040 0.9629614836585745	0.112189
H	0.5287778855006309 0.0813265767402669 0.9172128122911758	0.101725
H	0.5266236796945449 0.4158779541539133 0.8468237293396257	0.112596
H	0.5297098536475602 0.3193120890490206 0.8935854613358174	0.123482
H	0.0815641478092104 0.6283001727313646 0.0355784407299140	0.112742
H	0.0846506077145506 0.5318131816864735 0.0625538041553781	0.104369
H	0.4514390045856018 0.6067393109160051 0.6815210491446635	0.101243
H	0.4529986078750525 0.7045324089759717 0.6848500669636195	0.124529
H	0.9277524518410516 0.3799868894869149 0.1289434390472195	0.111152
H	0.9240510347607440 0.4759619014409040 0.0971738857477789	0.103703
H	0.4150323724465323 0.4399486070244549 0.6402162772742201	0.085984
H	0.3182603122070731 0.4370571682601110 0.6477113537113439	0.123197
H	0.6389676084582234 0.9192337729228797 0.1313522089611325	0.110352
H	0.5418112416488512 0.9209240466427033 0.0850581699178861	0.105124
H	0.5915413325162646 0.5386627204746404 0.8178524524728488	0.096260
H	0.6891064108718723 0.5488761447078545 0.8518508806737444	0.118342
H	0.3578031699912216 0.0874774179862428 0.0814382553562467	0.110318
H	0.4553682092097588 0.0848083865938349 0.1009838948435657	0.107110
H	0.5871330388318228 0.8576320455890851 0.5811781057898884	0.110509
H	0.5846572145302389 0.9554590224117518 0.6023986049948320	0.106828
H	0.0388107155545256 0.0921647744321703 0.3182960392414245	0.096106
H	0.0492286570589897 0.1898093995262968 0.3532438297649207	0.117945
H	0.4195284430831734 0.1394633670751659 0.6328280605063412	0.110558
H	0.4211288468956198 0.0421086863230187 0.5866038382849155	0.104464
H	0.9412808007948925 0.9149182229011927 0.1401610048387454	0.086882
H	0.9380647998002090 0.8179174327219911 0.1441126191214295	0.122475
H	0.1281983041126225 0.5811515300843126 0.5358084715978322	0.113253
H	0.0313843186046228 0.5844214747222409 0.5610593118201521	0.103875
H	0.9151722649649869 0.0270111598446547 0.3481957606217421	0.112713
H	0.8185552048397469 0.0299377186227687 0.3941354664956904	0.123098
H	0.8796343222206175 0.4279162360404172 0.6301782419652184	0.111121
H	0.9756493861743252 0.4241988236587204 0.5980526554259953	0.104037
H	0.1054641397031304 0.9520606110746357 0.1767677486031403	0.100716
H	0.2035692278456054 0.9533871585512799 0.1839253574063733	0.125352
H	0.4246331924211475 0.8711636881231897 0.3457988991794352	0.112764
H	0.4225890138895281 0.9688623330648483 0.3632725885249570	0.104811
H	0.9535583542548949 0.1037967371594419 0.7919526573003992	0.105651
H	0.9584040679529622 0.2036178803683981 0.8045609121017847	0.119945
H	0.5802904398370359 0.1258328345047843 0.4634718623751368	0.112246
H	0.5818036248565548 0.0285250883362735 0.4179805100228293	0.101950
H	0.0533850040931867 0.8929739720024514 0.7325233825907418	0.095029
H	0.0553536862114754 0.7944778784279052 0.7186514634176433	0.123858
H	0.8561161834372939 0.5852292767390779 0.4284232390844238	0.109880
H	0.9523578217935267 0.5809756021551920 0.3931305056892000	0.108094
H	0.0786610127901000 0.0553549032502048 0.7416488239774779	0.092568
H	0.1758446576032213 0.0609748637498768 0.7285044567134165	0.120134
H	0.1379331571159526 0.4127209838315835 0.3821007146063167	0.109240
H	0.0411204924019373 0.4161851918396451 0.4030092209370792	0.099966
H	0.8932669911964553 0.9806547760468476 0.7644214056484486	0.102173
H	0.7960450025688459 0.9747611645668499 0.7906539392744421	0.120154
Cd	0.5010041741957068 0.4953143158244515 0.4464059703255003	0.813819
Cd	0.9957351424515934 0.0011103096874194 0.9455129573034924	0.814850
B	0.4440567698300697 0.5312866469655688 0.9212074750968213	1.040670
B	0.0296382065154717 0.9455465081171610 0.4201493069648095	1.038947
F	0.5314319386561976 0.4536441145795038 0.1858771729605380	-0.602478
F	0.9539731757488923 0.0318398536905846 0.6883685908168289	-0.602417
F	0.4038104404289058 0.5647331147365122 0.8229881729301667	-0.462066
F	0.0634714596527743 0.9050289295213716 0.3230768851913197	-0.462046
F	0.4245273214327980 0.4842457239303499 0.9583803517684260	-0.456348
F	0.9827070939288447 0.9258957911839971 0.4583912495415277	-0.454794
F	0.4613616362190527 0.5592101850372089 0.0945186695772691	-0.454276
F	0.0175261876135266 0.9894624082678760 0.3001594097485523	-0.444606
F	0.4885986422509703 0.5193879187708532 0.8028380303110296	-0.446848
F	0.0573188718058972 0.9637773741917783 0.5922328738110352	-0.453766
N	0.5048603628357284 0.4070118929058637 0.5518354615078636	-0.237249
N	0.9963371221658335 0.9080489926600706 0.9325609862932112	-0.229792
N	0.5040586758808274 0.5882961928552888 0.4656604808851696	-0.221976
N	0.9958337773433996 0.0955290657339276 0.0539014721777988	-0.235280
N	0.5950611363062066 0.4955169793369905 0.5526344584910419	-0.235694
N	0.0883943914168199 0.0045150735536694 0.9617496579197962	-0.221065
N	0.4081737919152104 0.4961370005092860 0.4379401801571134	-0.229251
N	0.9072650991675459 0.0044004500331667 0.0534012041958221	-0.237722
	  	
