#======================================================================

# CRYSTAL DATA

#----------------------------------------------------------------------

data_VESTA_phase_1


_pd_phase_name                         BFFIVE_18_Cd
_cell_length_a                         14.51232
_cell_length_b                         14.28420
_cell_length_c                         8.29911
_cell_angle_alpha                      92.12015
_cell_angle_beta                       90.45927
_cell_angle_gamma                      89.87703
_symmetry_space_group_name_H-M         P 1
_symmetry_Int_Tables_number            1

loop_
_symmetry_equiv_pos_as_xyz
   x, y, z

loop_
   _atom_site_label
   _atom_site_fract_x
   _atom_site_fract_y
   _atom_site_fract_z
   _atom_site_charge
F	0.4666047526960771 0.3854073400081089 0.4279559135223112	-0.432831
F	0.5461591758184273 0.4309716294175300 0.7486756160718607	-0.570989
F	0.4287313176664282 0.5353373505488783 0.5285872819152027	-0.435989
F	0.9662535986455081 0.8852195330223096 0.4276198954580244	-0.434000
F	0.0463389007558427 0.9315832703205136 0.7491285173517769	-0.571409
F	0.9281380052500522 0.0350312905060822 0.5283265322711622	-0.436542
F	0.5775521226753029 0.5042806717666510 0.4365478757139558	-0.429691
F	0.4544414584834174 0.5094658906607297 0.2597869143656000	-0.446371
F	0.0770065158760069 0.0041865094902131 0.4364864582422238	-0.429537
F	0.9539751761076436 0.0093559153667750 0.2596657993585100	-0.446708
C	0.6890870845377605 0.1519972133721623 0.6715556546677094	-0.421573
C	0.7586021716574537 0.1517656617623814 0.8047815980723795	0.203470
C	0.7587017771867415 0.1966857642783789 0.9578508167812737	-0.147489
C	0.6882840657914103 0.2587378713800640 0.0274620702295584	-0.148801
C	0.6791165928455434 0.3558925416928682 0.0018185494347436	0.219610
C	0.7357050078328932 0.4148488865683149 0.8959596401258184	-0.434108
C	0.8818388583668895 0.2095540580421951 0.1878704315146617	-0.429991
C	0.8454206336199569 0.1757532925336682 0.0276368943416322	0.212212
C	0.6190997188882646 0.2375545758168759 0.1370463708185484	0.195808
C	0.5943683992696142 0.1478553268136331 0.2121388253912072	-0.422428
C	0.1889046380258192 0.6519698548141335 0.6715838377893436	-0.423193
C	0.2584773914844222 0.6516382806409431 0.8046870863272342	0.204580
C	0.2587390437870015 0.6966507936477599 0.9576444602234027	-0.147676
C	0.1883085485462007 0.7587127317333004 0.0272431648429744	-0.148461
C	0.1791155313957784 0.8558586011423385 0.0015794804414732	0.219756
C	0.2357305770267983 0.9148918716169417 0.8958965582555704	-0.434421
C	0.3820772931319187 0.7096555063015102 0.1873064297378576	-0.428773
C	0.3455088153988058 0.6756913826619639 0.0272461234077149	0.212015
C	0.1191417782402756 0.7375387740852591 0.1368777845260521	0.196127
C	0.0944430647362924 0.6477738509862041 0.2117818322363391	-0.422623
C	0.3104892157858067 0.1516177775820967 0.3282481069319687	-0.421289
C	0.2424295111273716 0.1508883945875553 0.1928075864744486	0.200919
C	0.2432007839445185 0.1971980743142216 0.0465233922142920	-0.142112
C	0.3127431288896348 0.2614090879855784 0.9890440114572219	-0.161220
C	0.3211111345015332 0.3578722690199044 0.0320194138071095	0.210908
C	0.2621078012277671 0.4167455896508299 0.1419130041751026	-0.420162
C	0.1233718316968958 0.2019396972752617 0.8086717040127468	-0.428678
C	0.1595491257871639 0.1719725029586555 0.9675219777431131	0.205194
C	0.3814744065871077 0.2427772235146689 0.8735637872608752	0.199190
C	0.4070424142518836 0.1536225671457949 0.7858750405669340	-0.420888
C	0.8104821556272530 0.6515154119682269 0.3274652170681321	-0.420271
C	0.7424278809478785 0.6507788408014032 0.1920256338086238	0.200578
C	0.7432375624701257 0.6971075659887076 0.0457384682540562	-0.143140
C	0.8127619812317598 0.7614293295860184 0.9884083470601235	-0.160766
C	0.8209188783189072 0.8579132185184846 0.0313613943084319	0.210303
C	0.7616950581096186 0.9167207320804041 0.1409724188909836	-0.419979
C	0.6234564709050717 0.7019751820008552 0.8078882399567172	-0.427101
C	0.6595779373262403 0.6719034446275123 0.9667326501474524	0.204705
C	0.8816717204918935 0.7429332687255333 0.8731450007014835	0.197957
C	0.9074903751902708 0.6538049574701410 0.7855808033527345	-0.420378
H	0.7205607312448673 0.1719669874140635 0.5578053763379249	0.144071
H	0.6345423021896203 0.2027923810338650 0.7016373893327627	0.148488
H	0.6573630978204724 0.0826875200266220 0.6503954425042778	0.131500
H	0.6916665931979408 0.4429202871522379 0.8004785554445644	0.155084
H	0.7907195960125911 0.3724814426849252 0.8396527928009484	0.129119
H	0.7676637804899433 0.4736137801750430 0.9650926232899202	0.122547
H	0.8665198470030510 0.0696383915093993 0.6947860634430164	0.288834
H	0.8856120854135366 0.1530012505211226 0.2736124052749337	0.144569
H	0.8366793632936566 0.2650270710517058 0.2375850927249850	0.131328
H	0.9518372514125991 0.2377123004310422 0.1773445645627807	0.137777
H	0.5690363581449739 0.1600438387389041 0.3355608581439253	0.138034
H	0.6549170560355503 0.1019146950262466 0.2167753373012331	0.142084
H	0.5402587453531158 0.1100093949480633 0.1426120854671709	0.131299
H	0.5241744788044390 0.3323923451634051 0.2538933268735813	0.269625
H	0.2202753596635809 0.6719374653992263 0.5577880342453080	0.144377
H	0.1343635157329351 0.7027530677659953 0.7015615887140396	0.148726
H	0.1571284939453393 0.5827248506926912 0.6502568717834274	0.131490
H	0.1916413191664301 0.9432776835426354 0.8007667924371745	0.155194
H	0.2906638467537080 0.8725972943745043 0.8391177989078790	0.129181
H	0.2677659230705766 0.9734568555297716 0.9654535291915640	0.122597
H	0.3663910616408613 0.5696703769968597 0.6941513481107958	0.289035
H	0.3859091922851006 0.6531423696345829 0.2731563885290935	0.144241
H	0.3369553315472510 0.7652172611337067 0.2369476247984784	0.131230
H	0.4521037203907938 0.7377756112114727 0.1765737782917415	0.137427
H	0.0690485302888734 0.6598243842499443 0.3351536889462247	0.137978
H	0.1549934522296455 0.6018501294800178 0.2164137949115910	0.141869
H	0.0403930156138638 0.6098839683849258 0.1422212448865868	0.131386
H	0.0240873881334929 0.8323492648140119 0.2535861187335664	0.269567
H	0.2784754142262550 0.1734247929241347 0.4432552792384628	0.144480
H	0.3659484603604958 0.2010454233662031 0.3040966279533772	0.142714
H	0.3409944588380372 0.0818986985197761 0.3435640587551677	0.136136
H	0.3037786053010911 0.4565860714967162 0.2313474427739740	0.142687
H	0.2133432260115115 0.3725682228092029 0.2047999747022249	0.129162
H	0.2223120843167591 0.4674224112865498 0.0725570570126531	0.125911
H	0.1374492384038456 0.0601564586177233 0.2816502761205620	0.279480
H	0.1140757430516060 0.1421358834695757 0.7226751430227146	0.147932
H	0.1712461213063484 0.2518612028908065 0.7568660975860787	0.134676
H	0.0557847565734891 0.2361503320053895 0.8226004004659160	0.139104
H	0.4313445620938360 0.1668818378632393 0.6639116487292404	0.138572
H	0.3474673080935836 0.1065192241530780 0.7764000106447301	0.142802
H	0.4624008563502128 0.1165703389207692 0.8491638255945483	0.128744
H	0.4817080045639412 0.3483586850855919 0.7835198201440734	0.284205
H	0.7785591384773365 0.6734039502505994 0.4424628851973726	0.144342
H	0.8660030746567282 0.7008469039980889 0.3033176845494141	0.142461
H	0.8409194044493375 0.5818065486389432 0.3430289573220411	0.135914
H	0.8032002568861494 0.9566652100289973 0.2305207624020906	0.142641
H	0.7128546009960421 0.8725355956000546 0.2037189266214145	0.129305
H	0.7219600657284623 0.9673294292419614 0.0713480622333065	0.125972
H	0.6374610972860106 0.5600184194176144 0.2809317980104203	0.278822
H	0.6141799926148537 0.6422186048119901 0.7217663424077142	0.147823
H	0.6714057129276978 0.7519540327586841 0.7563568183400635	0.134163
H	0.5558477852548454 0.7361713084591118 0.8217806266643364	0.138631
H	0.9317608095536953 0.6670138762566840 0.6635913226837002	0.138205
H	0.8480518564019317 0.6065212360913965 0.7761872155230216	0.142727
H	0.9629436454650270 0.6169722991773781 0.8489476050447988	0.128732
H	0.9818933316339462 0.8485368559521141 0.7836399727324335	0.284023
N	0.8402470778728703 0.1066805016529276 0.7920428901073154	-0.156048
N	0.6085471248294783 0.3914526314366123 0.0886047880738789	-0.270103
N	0.8943587049467299 0.1207270730626286 0.9245726170569124	-0.253785
N	0.5730862525435193 0.3185551868670979 0.1678106490028994	-0.149642
N	0.3400291352332629 0.6063623937730080 0.7918071582255338	-0.156462
N	0.1085534363414367 0.8914354763846336 0.0883971273240655	-0.270253
N	0.3942706163535464 0.6204593955641495 0.9242301897682804	-0.254301
N	0.0731029409928275 0.8185405398631067 0.1676507543360881	-0.149832
N	0.1628987828839221 0.1019009415109748 0.1939741574316936	-0.145680
N	0.3905778982012392 0.3943599834549364 0.9491926997596264	-0.259503
N	0.1117312540950187 0.1140384867616764 0.0593090614275107	-0.246212
N	0.4257971853890741 0.3242832302203325 0.8538628964124908	-0.158016
N	0.6629393977348453 0.6017086412288082 0.1931256006504036	-0.143966
N	0.8903966777649648 0.8945538536626714 0.9487282275003580	-0.259505
N	0.6117919669703529 0.6138792338675630 0.0584206402445820	-0.246133
N	0.9258512611133557 0.8245292771950953 0.8535758658962934	-0.156202
B	0.4829470873862360 0.4826598507548909 0.4177349684358126	1.050732
B	0.9825905229929027 0.9825471758298917 0.4175939172514882	1.052818
Cd	0.5054919808652021 0.5065093434708026 0.9730205921313492	0.824898
Cd	0.0053685796241152 0.0067595124582959 0.9735940008693830	0.824425
	  	
