#======================================================================

# CRYSTAL DATA

#----------------------------------------------------------------------

data_VESTA_phase_1


_pd_phase_name                         BFFIVE_3_Co
_cell_length_a                         13.97046
_cell_length_b                         13.97825
_cell_length_c                         8.47883
_cell_angle_alpha                      90.19366
_cell_angle_beta                       90.11394
_cell_angle_gamma                      89.58899
_symmetry_space_group_name_H-M         P 1
_symmetry_Int_Tables_number            1

loop_
_symmetry_equiv_pos_as_xyz
   x, y, z

loop_
   _atom_site_label
   _atom_site_fract_x
   _atom_site_fract_y
   _atom_site_fract_z
   _atom_site_charge
C	0.2511213431370778 0.4382439609618959 0.6324544343016302	0.038184
C	0.2474271170577130 0.0632044480491298 0.6322165395177772	0.040496
C	0.2465320052675380 0.4475409615613586 0.3605178655815369	0.038432
C	0.2528138648722852 0.0528623484527509 0.3604925036346359	0.039905
C	0.0527020092329890 0.2523060443600527 0.3602961948880404	0.041819
C	0.4478913359825774 0.2467956245886227 0.3604172347582860	0.038690
C	0.4381846574738954 0.2508978758643783 0.6323705718866550	0.039430
C	0.0630302607725621 0.2476598363870397 0.6320206935824776	0.040556
C	0.9634068998720549 0.2480815987766704 0.6408853066480021	0.055012
C	0.5378355643713238 0.2502143383934310 0.6411326134710035	0.057442
C	0.5475191891748111 0.2464974237609882 0.3708331705470164	0.054463
C	0.9531014651743540 0.2527916696707141 0.3704825227098970	0.052760
C	0.7447496085180215 0.0556484852166706 0.3705792692601459	0.053259
C	0.7539008522354415 0.4450689394229653 0.3684177140010084	0.049719
C	0.7521332013677886 0.0455589298639351 0.6419871550881500	0.055668
C	0.7463697291321516 0.4561552214814502 0.6399407175432739	0.052836
C	0.4560189260140630 0.7463479729214579 0.6402204591308096	0.054298
C	0.0455501471302562 0.7520694687242004 0.6424958538680688	0.055529
C	0.0559234308817079 0.7449065309158085 0.3711058057773314	0.053347
C	0.4450706559489418 0.7536464215522805 0.3687139613189280	0.049902
C	0.2462763693241136 0.5471038863372714 0.3706909838361963	0.054446
C	0.2532699530546378 0.9533128288123952 0.3704422031418528	0.053400
C	0.2504291694411964 0.5378234288293616 0.6409666749191386	0.057924
C	0.2478336595367412 0.9636096503009539 0.6408418245792353	0.054637
C	0.7535942594327775 0.9462849642251645 0.6316465500022886	0.051562
C	0.7453592946331731 0.5553788824760981 0.6295132743419382	0.053400
C	0.7460070502460594 0.9564049761366992 0.3601440552333425	0.052470
C	0.7526162980843002 0.5443108609020915 0.3582335984998402	0.057049
C	0.5443591041619417 0.7524902915230985 0.3584899650502702	0.057278
C	0.9566498335456238 0.7460298446155721 0.3606150153109682	0.053370
C	0.9462386958125937 0.7533736609743271 0.6321102511713368	0.052881
C	0.5552813917449445 0.7454732635469853 0.6297414282726281	0.052456
H	0.2524558747606905 0.3917950387977504 0.7359823895258393	0.133562
H	0.2450934016200109 0.1102470911780715 0.7354771527533867	0.132591
H	0.2442818169344471 0.4112072887380072 0.2466934548479187	0.116250
H	0.2536270852004324 0.0891463321652224 0.2471210367580527	0.117207
H	0.0889342582806747 0.2528288922355706 0.2467738176234307	0.116723
H	0.4117488921021602 0.2447423716752560 0.2464906677886348	0.116366
H	0.3915645524113213 0.2521847796558082 0.7358229568864996	0.133200
H	0.1101069635280662 0.2455400262007787 0.7351285480704385	0.132504
H	0.9275387870614964 0.2456855245626237 0.7549870075315558	0.111909
H	0.5740863222435778 0.2504448553453307 0.7550907007273210	0.111309
H	0.5930098302683016 0.2448955951474002 0.2662411579584810	0.123580
H	0.9075275322679535 0.2540765419908075 0.2657102433109656	0.123833
H	0.7414383459362914 0.1020501583685176 0.2674205294785117	0.124515
H	0.7565532071701864 0.3985061050932200 0.2649124572239115	0.125110
H	0.7533962796517433 0.0820447284877825 0.7556586376809068	0.110867
H	0.7432598005366224 0.4201933825197086 0.7536324756309039	0.111205
H	0.4200930661749420 0.7432453399013434 0.7540735308015173	0.110379
H	0.0818933350328487 0.7533691842260025 0.7562039806536732	0.110611
H	0.1024015537039745 0.7416801314190712 0.2678558311439224	0.124205
H	0.3986209281346508 0.7561274950167790 0.2651703776910119	0.124848
H	0.2445660171612574 0.5924090537097734 0.2660086331071312	0.123903
H	0.2547383359715664 0.9078123615047450 0.2654944387140081	0.123640
H	0.2508079608260576 0.5742829075525890 0.7548467847445499	0.111176
H	0.2450740788503768 0.9277592614171517 0.7548321097678643	0.111871
H	0.7562806290239884 0.9000838831461485 0.7351056203021448	0.123197
H	0.7422002106809988 0.6021048460058871 0.7327941321903151	0.123376
H	0.7429361979180561 0.9199870776344710 0.2463572165587360	0.110111
H	0.7539549089400684 0.5805323439298955 0.2447208134545359	0.109867
H	0.5805310274881750 0.7537935232012208 0.2447994912124749	0.109430
H	0.9204514839406174 0.7430336522038055 0.2467286438816254	0.110153
H	0.9000617387938661 0.7559563425171382 0.7357792427645908	0.123293
H	0.6018821934756092 0.7425009725393253 0.7330561475648383	0.123939
Co	0.2502786485686539 0.2502151595425097 0.4903128000305171	0.535482
Co	0.7501896154948473 0.2504891301754926 0.5086699514427340	0.781980
Co	0.2505774925802148 0.7502309652163158 0.5088054912398824	0.782240
Co	0.7505536806340737 0.7505277129741571 0.4913450737778941	0.779086
B	0.2497426158264291 0.2499549170240488 0.0537289129254793	1.049225
B	0.7508820045251388 0.2503668418168132 -0.0633724195102327	1.055306
B	0.2503110556984721 0.7512161414002315 -0.0632182807697792	1.056789
B	0.7500005869595400 0.7499444139482420 0.0611817054077499	1.053660
F	0.2508237289645939 0.2509663480478726 0.7276559276417626	-0.570024
F	0.2502876787230717 0.2500430910176240 0.2285860024275931	-0.457078
F	0.1818995500634445 0.1814621116176510 0.0098528455690905	-0.449841
F	0.2235535271196356 0.3433617819112289 0.0107491344738690	-0.446745
F	0.3434793125366745 0.2251019281466130 0.0101332360174451	-0.446509
F	0.7523633181473156 0.2528055798793268 0.7588524468439157	-0.460082
F	0.7501428864970165 0.2497430317722699 0.2847246230634203	-0.557237
F	0.6828469063855341 0.1815976335535557 0.9759974200616215	-0.447548
F	0.7245782018142370 0.3428156071641039 -0.0166326606150939	-0.442047
F	0.8439021388048209 0.2249497432733107 -0.0186114945107583	-0.443567
F	0.2529283017093425 0.7525426395376467 0.7590685185814972	-0.460414
F	0.2498060208714278 0.7498953917615329 0.2848481184337262	-0.557666
F	0.1818007994430061 0.6828870527600525 0.9757719144317265	-0.447830
F	0.2242609523106795 0.8440228312294165 -0.0182943078608761	-0.443994
F	0.3429408315203245 0.7255580178889729 -0.0164833564845759	-0.442088
F	0.7503888375422221 0.7506620075649044 0.7161856599158276	-0.555478
F	0.7517984377854355 0.7513746783353010 0.2387986530171415	-0.460610
F	0.6815966142973563 0.6816848320083083 0.0199650599344045	-0.447331
F	0.7240577395037905 0.8427553744997281 0.0168101903126667	-0.442222
F	0.8428055154080016 0.7241541924124960 0.0158430254193443	-0.442338
N	0.3930719510828781 0.2493716015842324 0.4913200760156505	-0.142417
N	0.1078002617026530 0.2501588555140136 0.4910912406374572	-0.142562
N	0.2493791954929541 0.3929424288097826 0.4914543805497763	-0.141881
N	0.2503003976615039 0.1079081310364007 0.4913811040369150	-0.140863
N	0.9081700341205725 0.2510199075603659 0.5108284211626212	-0.211593
N	0.5927900478021813 0.2484396342037936 0.5110932620991759	-0.212337
N	0.7509810875051177 0.4013435735070013 0.5095552626850752	-0.209508
N	0.7482073319974428 0.0999093516517836 0.5117061349086025	-0.211681
N	0.4012488079336008 0.7508082751426255 0.5099209487114331	-0.209451
N	0.1000815439339943 0.7483192411580948 0.5121915263875749	-0.211070
N	0.2511272341356250 0.9084010226819375 0.5106543257818823	-0.211375
N	0.2484659902476761 0.5925816316081269 0.5108835499362411	-0.212412
N	0.9021293428285010 0.7507012027963752 0.4909300405202887	-0.210835
N	0.5991289233027841 0.7488188633449692 0.4887014440447826	-0.211757
N	0.7508492119845206 0.9020841639103246 0.4904355805216735	-0.208945
N	0.7487580728060649 0.5991015733174730 0.4885719985595404	-0.211784
	  	
