#======================================================================

# CRYSTAL DATA

#----------------------------------------------------------------------

data_VESTA_phase_1


_pd_phase_name                         BFFIVE_4_Cd_i
_cell_length_a                         27.01152
_cell_length_b                         16.14574
_cell_length_c                         9.58501
_cell_angle_alpha                      91.00132
_cell_angle_beta                       51.55172
_cell_angle_gamma                      90.48402
_symmetry_space_group_name_H-M         P 1
_symmetry_Int_Tables_number            1

loop_
_symmetry_equiv_pos_as_xyz
   x, y, z

loop_
   _atom_site_label
   _atom_site_fract_x
   _atom_site_fract_y
   _atom_site_fract_z
   _atom_site_charge
C	0.4481211484943313 0.6446785627836686 0.5925791221727884	0.093765
C	0.3925570715659333 0.6231434909778693 0.6210541918760761	-0.175100
C	0.2531645268862432 0.5953428670382347 0.7739912435483427	-0.112162
C	0.2013464764574981 0.5616416997305360 0.7947811981671979	-0.118645
C	0.1220966093216615 0.4559901730126785 0.7350631755921259	-0.172389
C	0.0812306387039914 0.4066475746021248 0.7283155952446964	0.091801
C	0.9749682725953090 0.1212148468249377 0.5490372622791341	0.093879
C	0.9230551797086276 0.0908641678605625 0.5666402131661357	-0.174198
C	0.7844600652301552 0.0590804755288215 0.7228772510603907	-0.121553
C	0.7316580124410109 0.0265862137689217 0.7469144540795277	-0.127803
C	0.6495391106302324 0.9239034388394896 0.6912850203417245	-0.181796
C	0.6056147500310003 0.8777485596470420 0.6922213810396848	0.092987
C	0.5630335386829596 0.4654752252013218 0.2155969141414825	0.106138
C	0.6083918165380200 0.5186828812418304 0.1929372982387410	-0.161022
C	0.7538472782404636 0.4929016519887678 0.1458696162819241	-0.121660
C	0.8011094482995533 0.5285271066726271 0.1437589739375249	-0.120311
C	0.9025677913945924 0.6138461167319952 0.1235168823949934	-0.175403
C	0.9421161970114161 0.6383434444875604 0.1627108877789504	0.099287
C	0.0667196917294188 0.9577534378826573 0.1905982624230590	0.105857
C	0.1096025682819681 0.0157604704862052 0.1683039419935054	-0.169352
C	0.2636220859497339 0.0107199114459197 0.0823096281299864	-0.126656
C	0.3089693057826192 0.0525047036747003 0.0802166259421261	-0.114099
C	0.4060044141853062 0.1484664767839682 0.0609810434428070	-0.159620
C	0.4462042770317063 0.1725003245570717 0.0980571175088503	0.088509
C	0.6360953380894947 0.6369918182264738 0.6987840047264410	0.087019
C	0.6760556142523189 0.5840864204754993 0.6981386486287496	-0.183524
C	0.6967816095543170 0.3704179340155350 0.7894425190555375	-0.114301
C	0.7417726785355353 0.3306961590133168 0.7926451302233904	-0.115374
C	0.8335730086643703 0.2945198523224459 0.8723372630210192	-0.184545
C	0.8804353829696209 0.2741297210572715 0.8856437792693945	0.094614
C	0.1400614267760957 0.1785805521568451 0.7303010633306777	0.085981
C	0.1851087771143833 0.1320484813894636 0.7197658715685913	-0.185876
C	0.2275342290266605 0.9152112275529068 0.7264370778470749	-0.109167
C	0.2716787150803873 0.8731499753777510 0.7290329062843371	-0.112951
C	0.3509315403706003 0.8289825773037255 0.8443902511609762	-0.179879
C	0.3937995982383641 0.8013811061665781 0.8678363283540554	0.095511
C	0.3993902507337170 0.4322620086873860 0.3701834362492943	0.093184
C	0.3450582439310708 0.4603277479218075 0.3999975903752975	-0.164371
C	0.2600963516815543 0.5577073857901208 0.3566744038701112	-0.120406
C	0.2082629848082984 0.5891120774932262 0.3767387770626537	-0.122206
C	0.0817637409296231 0.6382581677317577 0.4976800720751955	-0.189644
C	0.0378713179134410 0.6812532129871937 0.4956588718438895	0.087291
C	0.9073029886024773 0.9187515803580634 0.3215074205018579	0.095998
C	0.8563738992601245 0.9528767929036337 0.3412033976707949	-0.161280
C	0.7688998891356047 0.0462911267258558 0.3182047902230211	-0.126403
C	0.7165880739775815 0.0820394398946208 0.3464091411322597	-0.128212
C	0.5765665323202940 0.1162499210847086 0.4758287173294801	-0.185797
C	0.5351111648829155 0.1615337329988532 0.4657479922007031	0.081563
C	0.5857648960824329 0.3650627776610934 0.3372315621626009	0.095611
C	0.6326008864517935 0.4133287922289678 0.3152866503812763	-0.183506
C	0.6951034643716228 0.6220169068647950 0.2528484833672932	-0.116487
C	0.7422234082575051 0.6570390963071251 0.2539288662415533	-0.116379
C	0.8195999638247125 0.6924601062417726 0.3795343047620555	-0.185625
C	0.8618319538434039 0.7129983427478214 0.4112543555568169	0.093277
C	0.1100349272286157 0.8542503118854405 0.2476804316798482	0.094920
C	0.1541444122840684 0.9079423422530847 0.2276857537545594	-0.181351
C	0.1917923576317186 0.1266470611173248 0.2338121970372699	-0.117619
C	0.2371193938203203 0.1679214691968787 0.2350096929685585	-0.100432
C	0.3206048412742135 0.2108566950247636 0.3387025878071026	-0.178233
C	0.3634249591493217 0.2307779338097763 0.3686766414863969	0.090334
C	0.4143642616508967 0.5851397573019106 0.8560344369527618	0.087890
C	0.3585308225801094 0.5594517839667331 0.8912304776145863	-0.155116
C	0.2700629633387830 0.4653984383491701 0.8605112977288962	-0.116125
C	0.2186657096121894 0.4315368070102860 0.8800708091002697	-0.126567
C	0.0915818185297528 0.3804013051669428 0.9900274730398730	-0.193420
C	0.0501285998417012 0.3356089281546393 0.9778860663568629	0.076592
C	0.9431483682497799 0.0584147195600466 0.8073204045187931	0.093014
C	0.8913562548930671 0.0233631746890884 0.8308399251258706	-0.165599
C	0.8047121701502801 0.9255602486795599 0.7897159939376281	-0.110489
C	0.7512254137214238 0.8940281578044702 0.8172901179277146	-0.121484
C	0.6203354096788003 0.8473325529925271 0.9440272683313025	-0.190703
C	0.5755603559381540 0.8063531185476793 0.9403915082886878	0.084756
C	0.4385034836479805 0.3789104993461668 0.0935632525999719	0.100311
C	0.3847584867932522 0.4028262315616164 0.1153665681021353	-0.169803
C	0.2439736423913460 0.4243774391028683 0.2713148456592243	-0.120449
C	0.1909733025860249 0.4552890639881910 0.2959187897580077	-0.115563
C	0.1036720218519065 0.5540876224595728 0.2572310053140526	-0.178697
C	0.0606480515043251 0.6019587390331533 0.2597509975310627	0.100259
C	0.9348425211524202 0.8403452914593711 0.0796267508472860	0.095970
C	0.8834487187961056 0.8697403494578987 0.0940060753873182	-0.182375
C	0.7493641559500537 0.9182475355483853 0.2259413863146632	-0.119616
C	0.6974667058349984 0.9545030768020869 0.2516404809651703	-0.112625
C	0.6381707492345994 0.0896167390130855 0.1627813310000631	-0.182847
C	0.5961885374043057 0.1383402663207697 0.1618692038893586	0.088371
C	0.5738629967995243 0.5285162708005318 0.7307899775931873	0.114387
C	0.6126538683294327 0.4706475160538768 0.7273698029386541	-0.169799
C	0.7753755478235739 0.4729526775714031 0.5927783456743135	-0.121990
C	0.8198484249009800 0.4327083272350843 0.5948615317450114	-0.116547
C	0.9152995546239975 0.3388209371946718 0.5743872251740542	-0.159525
C	0.9592057544230673 0.3177443410950349 0.5979310149862923	0.079607
C	0.1031588941125038 0.0634080790248761 0.6752276106504175	0.109176
C	0.1475387560324750 0.0124655210066716 0.6601842076594790	-0.155825
C	0.2963743163679572 0.0347634604713529 0.6050180269056840	-0.114061
C	0.3408907537903572 0.9921041732936193 0.6038328884418884	-0.115356
C	0.4382327064700322 0.8844045489091584 0.5634829164331785	-0.170544
C	0.4782244352287266 0.8524750796892694 0.5939429687270060	0.085609
C	0.3462838515552241 0.5786205998451228 0.7735346174508881	0.109986
C	0.2884771464024986 0.5475922261600790 0.8055828043187923	0.065861
C	0.1836097066860876 0.4789573551780528 0.8469773605750661	0.041398
C	0.1312492486580506 0.4398317755090603 0.8608559814652695	0.112146
C	0.8790635569828135 0.0413714039765817 0.7126303926061731	0.117386
C	0.8218012934491583 0.0088694225784658 0.7432557681101449	0.063890
C	0.7139147572661565 0.9435585553713031 0.7957093135515841	0.051004
C	0.6601868012168695 0.9062067405921274 0.8134676887829810	0.109982
C	0.6462228953913604 0.4915239077658736 0.2369768569310938	0.119525
C	0.6991642910863901 0.5379279341200458 0.2070709337561693	0.061251
C	0.7945701910654331 0.6103785877381377 0.2057482048974827	0.048389
C	0.8393828729834565 0.6406970268706105 0.2334808592496801	0.113329
C	0.1551180148692670 0.9913525112884254 0.1861215319065378	0.120765
C	0.2037150006714109 0.0455545617927691 0.1637819895890208	0.055870
C	0.2956185043292659 0.1308533167081641 0.1628662472146657	0.060911
C	0.3409828785798944 0.1656417552677142 0.1847411133129032	0.122717
C	0.6661857334974515 0.4980994054567150 0.7075392509091373	0.119509
C	0.7126218359170758 0.4445288558260517 0.6952260779206442	0.055754
C	0.8033264011944126 0.3623723778952253 0.6998502807577101	0.058726
C	0.8504280615473673 0.3295877272813635 0.7149793929825239	0.114167
C	0.1903023109557483 0.0466753975855782 0.6821127667800487	0.120565
C	0.2386633644398121 0.9975756136781343 0.6690235963769426	0.056064
C	0.3284189216053163 0.9114401283771254 0.6705748448190237	0.055409
C	0.3727374839810739 0.8731310450943832 0.6907778480386627	0.116495
C	0.3363819101384954 0.4447592564921914 0.2724684877098439	0.111172
C	0.2789863403858879 0.4749201272227850 0.3021399645860399	0.057562
C	0.1725728561711108 0.5384104633736337 0.3480304925635703	0.047513
C	0.1183285786948588 0.5753731384081607 0.3700807312599289	0.119006
C	0.8420523381778126 0.9275636836615501 0.2296881561903657	0.101036
C	0.7862714243108789 0.9635911509599856 0.2574003600075834	0.053064
C	0.6805459203109639 0.0369466517521865 0.3113892298781538	0.056724
C	0.6301693389780415 0.0796489214522849 0.3205824986441106	0.116390
H	0.4850020572472939 0.6783052025896272 0.4734486891294020	0.086284
H	0.3864574468093467 0.6392652057276555 0.5228665183797867	0.122444
H	0.2668682623428852 0.6590574602120203 0.7297603070611276	0.111745
H	0.1746103177335304 0.6005542901573316 0.7709102246327774	0.113648
H	0.1503108549572171 0.5027107024566008 0.6346862066114328	0.108188
H	0.0780520319356231 0.4125375149697424 0.6209109107697472	0.086245
H	0.0096525660325646 0.1602226120016604 0.4369582634828201	0.084793
H	0.9173751287115623 0.1058894672745585 0.4672875805071087	0.119868
H	0.7975379228736937 0.1235673951539248 0.6845906812888251	0.113602
H	0.7034802849321593 0.0663102544417895 0.7293185095205285	0.113514
H	0.6782657677081076 0.9694689591797829 0.5882309762952129	0.098603
H	0.6010066105127180 0.8843185653740268 0.5877414736109763	0.083400
H	0.5346353151089139 0.4833486834123815 0.1756284270211560	0.092759
H	0.6154501587235895 0.5794131811968789 0.1353345537261719	0.126028
H	0.7585577739839202 0.4286183666956045 0.1026391149471444	0.090879
H	0.8416276377949132 0.4911420968525231 0.1035785478170300	0.104510
H	0.9215647743402372 0.5756534402073773 0.0051979632666483	0.123024
H	0.9918926417160000 0.6208869330334406 0.0750351290251127	0.086626
H	0.0318723017987654 0.9751970428504565 0.1734891739480000	0.096563
H	0.1081208569112967 0.0790265876868637 0.1331991337767579	0.123345
H	0.2743612451128950 0.9492389742143524 0.0219257795198071	0.081486
H	0.3539439271454283 0.0220986963202561 0.0226397571360143	0.100254
H	0.4253823508448144 0.1176429375213754 0.9345285523363438	0.115469
H	0.4973462135234771 0.1635024629548754 0.0025834872814138	0.089307
H	0.6445316556643389 0.7034451472594773 0.6855114442789793	0.074927
H	0.7150048791354938 0.6095880388863496 0.6908594232653471	0.109131
H	0.6493340394806288 0.3437624058381977 0.8630618296026312	0.119827
H	0.7283945941036029 0.2742924529745434 0.8697020884675083	0.098886
H	0.7840515434607918 0.2852272891754468 0.9861190909600961	0.109449
H	0.8691353711545735 0.2473392967066185 0.0060626195018104	0.097088
H	0.1362316581363652 0.2449453068125594 0.7568702645730687	0.076039
H	0.2156106356130609 0.1619646302477032 0.7435082215567077	0.119321
H	0.1833070825452837 0.8852092419037756 0.7745893365174803	0.115164
H	0.2618435042073150 0.8098078750632910 0.7773643876923817	0.103090
H	0.3005860562266934 0.8176028055791725 0.9467932451545754	0.112136
H	0.3785314658388312 0.7681553932964814 0.9867988180685235	0.099478
H	0.4061864795677874 0.4410007747102983 0.4705350479116207	0.088492
H	0.3090448313109408 0.4931854058838531 0.5229215517892193	0.100615
H	0.2879138454859562 0.5980079814715454 0.3763434517559626	0.126309
H	0.1951963164139156 0.6538758539832803 0.4160650281467331	0.113434
H	0.0877988650334546 0.6552943946147245 0.5965070317455372	0.127044
H	0.0093897041797672 0.7313849924505484 0.5911499619336327	0.094788
H	0.9165721941376924 0.9347093511272415 0.4144277832115434	0.080058
H	0.8271358713538980 0.9983871599036125 0.4461075208376269	0.101776
H	0.7978823950844647 0.0835644944785731 0.3382973835752357	0.122818
H	0.7045869383397795 0.1465784113658367 0.3910700680431397	0.109078
H	0.5672752082969978 0.1107438455089074 0.6034872875163486	0.122870
H	0.4933873126941423 0.1913010228127626 0.5840922093200718	0.094847
H	0.5745934904780454 0.3044946415677490 0.3981382293382443	0.077893
H	0.6584681220330653 0.3907225537913875 0.3599430020328186	0.113375
H	0.6538331489345578 0.6603155919330947 0.3006546203076128	0.120571
H	0.7366329022063378 0.7212967212263041 0.2986926449415496	0.098882
H	0.7712323553551242 0.7156979390736865 0.4691339871705195	0.113605
H	0.8485763369737127 0.7530959944110094 0.5228558754889766	0.093440
H	0.1092324027011013 0.7895115662848355 0.2791239360057157	0.078599
H	0.1871221576722284 0.8854402163325169 0.2479280817787490	0.117739
H	0.1465581642933654 0.1578460518375855 0.2962286805275116	0.114619
H	0.2254709184561994 0.2294536546839394 0.2966104611739390	0.103297
H	0.2709487827488424 0.2271460267059887 0.4382272522835101	0.106515
H	0.3486888972491181 0.2635174762570621 0.4896583602892976	0.091453
H	0.4238929647107319 0.5722115301056571 0.9486380922982390	0.084770
H	0.3242530253186022 0.5248315680590536 0.0108138146461502	0.103491
H	0.2978181333303702 0.4264751962789590 0.8803823016147204	0.114501
H	0.2066231098039760 0.3667298058798137 0.9173229461981475	0.108404
H	0.0940371620769283 0.3667441204961553 0.0966724205711153	0.123356
H	0.0200063855555132 0.2878552504004960 0.0739633820029090	0.095727
H	0.9513560105126617 0.0485626684099008 0.9039485334810203	0.088350
H	0.8587305250164806 0.9851332888982602 0.9454264448879831	0.098667
H	0.8365133417736096 0.8842367065589598 0.7897392075380049	0.128509
H	0.7393677858700837 0.8287685045137608 0.8497699272591602	0.104862
H	0.6244069646141677 0.8323345767870581 0.0470366222370405	0.122056
H	0.5439800549481494 0.7606218540816372 0.0405138062737090	0.097451
H	0.4768087256355247 0.3458123567195078 0.9730887349487403	0.085502
H	0.3811398855705305 0.3894396911225809 0.0104320538425842	0.118435
H	0.2586004779768425 0.3603607846108768 0.2268439988864984	0.110621
H	0.1630234774412996 0.4133043512229184 0.2793632892541678	0.112615
H	0.1294064842704947 0.5048554469194781 0.1581927234114370	0.103739
H	0.0528023994012069 0.5907250121529481 0.1624371003320697	0.078776
H	0.9681478742255027 0.7964471744111075 0.9743594104076716	0.089920
H	0.8771978479688114 0.8486527168854469 0.9970560977232105	0.121404
H	0.7609736731186784 0.8537669682277693 0.1813962720639257	0.106642
H	0.6696121229113244 0.9177879617258738 0.2265412146979079	0.109526
H	0.6791989494215527 0.0627884756168966 0.0390788060233447	0.103469
H	0.6034846402225351 0.1528999902388893 0.0391438792371610	0.093329
H	0.5321858114995813 0.5089790578063029 0.7452026076096872	0.093501
H	0.6012962678756494 0.4048588718841709 0.7397069538408704	0.129217
H	0.7892828536965697 0.5280281344146927 0.5122266811355803	0.090710
H	0.8672553451040097 0.4584482734301583 0.5208003702422915	0.103916
H	0.9317093649119882 0.3609487520842828 0.4454499065558987	0.118125
H	0.0102922843704631 0.3228080088267992 0.4923786136442650	0.095973
H	0.0697459827865406 0.0387287047862513 0.6572642999610799	0.084029
H	0.1482454784297020 0.9465493002256409 0.6331829940593010	0.132795
H	0.3064320740702139 0.0978239033210620 0.5561105110314476	0.092267
H	0.3844783260376288 0.0230306071545703 0.5591309940470296	0.106743
H	0.4578846230216216 0.9157855647980941 0.4392792385474147	0.119752
H	0.5296822730440253 0.8547078885981628 0.4948263696451797	0.091005
Cd	0.5287427733009283 0.7179962973218708 0.7131479751241807	0.799008
Cd	0.0287855083828444 0.2301980628116809 0.7170751527839977	0.800900
Cd	0.5020081772680915 0.2851157155855331 0.2435161862798445	0.797305
Cd	0.9896033066214929 0.7790566623486881 0.3091814866628694	0.804156
F	0.5986812024485292 0.7631306821114795 0.4431068810423060	-0.615266
F	0.0912618720867910 0.2761983734900970 0.4463251303970994	-0.618522
F	0.5744808427199030 0.2589059318579345 0.9612076048934370	-0.622086
F	0.0860519064449437 0.7272022416864891 0.9970667483947435	-0.447993
F	0.4458244643879956 0.7146758368512487 0.0487390083559917	-0.444211
F	0.9408707163505811 0.2088634634657609 0.0512859533722170	-0.444285
F	0.4154138267361719 0.2714500506628171 0.5786767179743993	-0.443616
F	0.9212216546593940 0.8187034344860382 0.5823204536979534	-0.630596
F	0.3712570453755591 0.6593173335343040 0.3274105581878925	-0.439229
F	0.4711032197418936 0.6913503909078734 0.2366705475914020	-0.440237
F	0.8671821328656135 0.1529714295914757 0.3303733149704072	-0.444761
F	0.9590472293532990 0.2095207162276980 0.2588699988702894	-0.437658
F	0.4425886130960434 0.2853115442763990 0.7655682681996326	-0.445341
F	0.4167213186034328 0.4010797116764440 0.6840522694303282	-0.447498
F	0.1596305979168871 0.7261788804880551 0.6889439004972439	-0.440806
F	0.0940385529320026 0.8399996852442294 0.8366191174800399	-0.447201
F	0.4585273222753207 0.5808062210951764 0.1051203384707209	-0.446729
F	0.9638035017438734 0.0865506764154885 0.1235422853173333	-0.450645
F	0.3390362631394208 0.3063926404130172 0.8774211558421178	-0.445477
F	0.0524497378937921 0.7161899316316748 0.8273364206248290	-0.440004
N	0.4590650707755232 0.6272908014005671 0.7085009985913988	-0.271745
N	0.5697912028337404 0.8185991092442024 0.8122200562195947	-0.252920
N	0.9844874796508127 0.1077679112296138 0.6692350172160634	-0.279633
N	0.0469312776802681 0.3453321051196191 0.8440407470721479	-0.262392
N	0.5525097823139609 0.3892223705888948 0.2837695958849817	-0.232496
N	0.4251834609513684 0.2111501069610090 0.2517850105805419	-0.247416
N	0.0664312542269018 0.8781294003916128 0.2308586481290745	-0.230155
N	0.9223713115533532 0.6867658625185706 0.3042035551474725	-0.251029
N	0.5854650664312616 0.6105032656173661 0.7150575543654528	-0.238005
N	0.4564884251864380 0.8125759067266067 0.7444723568696607	-0.246092
N	0.0990550999583895 0.1452971036416879 0.7099082370185713	-0.237326
N	0.9421631150102925 0.2867023747979548 0.7519394580927077	-0.242198
N	0.4456166218253213 0.3917305891210472 0.2195785525263732	-0.274642
N	0.5453715637572617 0.1746838982772765 0.3109569537690950	-0.252415
N	0.9462181069615654 0.8625748616127475 0.1937235312814614	-0.261467
N	0.0294225355366289 0.6665845271596867 0.3727090130440280	-0.258551
B	0.4363443052064579 0.6606115241801647 0.1814901216216195	1.028610
B	0.9325710525651008 0.1635635430593453 0.1921663878538817	1.028006
B	0.4030226958240284 0.3168062096586002 0.7287077700728356	1.027836
B	0.0987108994975754 0.7532612045276494 0.8347719948139650	1.026851
	  	
