#======================================================================

# CRYSTAL DATA

#----------------------------------------------------------------------

data_VESTA_phase_1


_pd_phase_name                         BFFIVE_4_Ni_i
_cell_length_a                         23.55163
_cell_length_b                         20.66349
_cell_length_c                         11.20679
_cell_angle_alpha                      90.00346
_cell_angle_beta                       90.00017
_cell_angle_gamma                      90.00236
_symmetry_space_group_name_H-M         P 1
_symmetry_Int_Tables_number            1

loop_
_symmetry_equiv_pos_as_xyz
   x, y, z

loop_
   _atom_site_label
   _atom_site_fract_x
   _atom_site_fract_y
   _atom_site_fract_z
   _atom_site_charge
C	0.4150995662165265 0.5940170070633253 0.6471418510214654	0.096501
C	0.3719031763994244 0.5482470880631017 0.6440945927365513	-0.176218
C	0.2781814463607806 0.4510939898045557 0.6436773288688939	-0.115291
C	0.2326902963744718 0.4083762715900919 0.6433246276517871	-0.116226
C	0.1331234246733767 0.3207303210912846 0.6434156063989208	-0.182787
C	0.0868129762394192 0.2791197872117120 0.6469920812898969	0.091563
C	0.9151713782572261 0.0940244987435181 0.6471609315214661	0.096227
C	0.8720016975991760 0.0482280418386867 0.6440841367465586	-0.176260
C	0.7783424141960905 0.9511675875565576 0.6436991099983507	-0.116122
C	0.7328311119094898 0.9084737728565913 0.6433102757680561	-0.114150
C	0.6331505340166871 0.8208025839154266 0.6433526901754301	-0.182214
C	0.5868340796187876 0.7791941016889615 0.6468912526123550	0.091141
C	0.5848331570194937 0.4061291723674035 0.1472954128239514	0.095789
C	0.6280239470459437 0.4519096632972186 0.1441230823684430	-0.178939
C	0.7217181954681359 0.5488955081194347 0.1436834822620163	-0.114690
C	0.7672154658374026 0.5915926876653181 0.1432582594255259	-0.114967
C	0.8668803759912354 0.6791129882707262 0.1433777861646259	-0.181648
C	0.9132691418239982 0.7206322144702291 0.1469176551353577	0.091242
C	0.0849783169948028 0.9059223301010739 0.1471544910646928	0.095953
C	0.1281925695986217 0.9516709230094315 0.1440436186003704	-0.177625
C	0.2219381538617362 0.0485996096688383 0.1436930153892319	-0.115061
C	0.2674640446494847 0.0912653440581075 0.1433001040685603	-0.115107
C	0.3670158978947490 0.1790280821760614 0.1435427702984441	-0.181881
C	0.4132854640077822 0.2207274680690885 0.1471653849851226	0.089242
C	0.5849612545839539 0.5939717188444681 0.8528266007443729	0.096284
C	0.6281546270793472 0.5482021404172768 0.8559029746551322	-0.177725
C	0.7219380181983949 0.4511230570487084 0.8563020875197205	-0.115697
C	0.7674778872478585 0.4084681063847688 0.8566763583530608	-0.116288
C	0.8671507299842645 0.3209635194316672 0.8566101551806942	-0.181867
C	0.9134608310193499 0.2793434963878428 0.8530869812289326	0.089682
C	0.0848782695040421 0.0939772149447071 0.8529122844933466	0.096495
C	0.1280416822472832 0.0481741075680467 0.8559608551328866	-0.177818
C	0.2217452411692562 0.9511861471854566 0.8562512380974878	-0.116150
C	0.2673100515630926 0.9085680352231675 0.8566316873725622	-0.114152
C	0.3670617118088942 0.8209696057483167 0.8565313200788269	-0.181021
C	0.4133643716906744 0.7793353147541319 0.8529780727036549	0.088889
C	0.4151692073426042 0.4061610903797079 0.3529716573663004	0.096240
C	0.3720342228446067 0.4519929960837166 0.3559830361946292	-0.178108
C	0.2784048089176927 0.5489808473262384 0.3562764725570304	-0.115297
C	0.2329166168827447 0.5916882792013336 0.3566783408664698	-0.115561
C	0.1333064204926490 0.6792594221295551 0.3565680911764878	-0.182929
C	0.0869241232431030 0.7207879721186733 0.3530304690479482	0.091206
C	0.9150521524852462 0.9059176285530539 0.3528102592306795	0.096329
C	0.8718834356696998 0.9517124529231249 0.3558871628331232	-0.176859
C	0.7781899413385002 0.0486468119469549 0.3562771107766811	-0.116297
C	0.7326870471380003 0.0913377846858461 0.3567125890374988	-0.114030
C	0.6332546562889835 0.1791934718685390 0.3567132766758185	-0.183158
C	0.5869865067593625 0.2208879985195847 0.3532464357810088	0.091285
C	0.5848676798683002 0.4061931060990509 0.3529458094109983	0.096108
C	0.6280565499355172 0.4519587593743892 0.3559753328031133	-0.179216
C	0.7217304438872612 0.5489039177673914 0.3562747506147057	-0.115432
C	0.7672285978241319 0.5915987103778481 0.3566830419759102	-0.114971
C	0.8668805449956283 0.6791127955606037 0.3565649916673935	-0.181889
C	0.9132676334109215 0.7206321982326260 0.3530322300774253	0.091279
C	0.0849840303941640 0.9059304503426753 0.3527979591116763	0.096209
C	0.1281965271573965 0.9516806217610045 0.3558874022829001	-0.177811
C	0.2219195243571865 0.0485914726816263 0.3562701671675740	-0.114868
C	0.2674435072066134 0.0912551464196045 0.3567117092585509	-0.115067
C	0.3669617053308670 0.1789928881029852 0.3567253672193447	-0.181539
C	0.4132322504862010 0.2206960191516266 0.3532738193983816	0.092069
C	0.4151178251395021 0.5940143988545220 0.8528150605188609	0.096433
C	0.3719233560049503 0.5482387596086351 0.8558758486048044	-0.175982
C	0.2782002220387567 0.4510849730130385 0.8562910340362061	-0.115674
C	0.2327079357561018 0.4083678535533196 0.8566551201686337	-0.115902
C	0.1331392320756119 0.3207458483318720 0.8566198448547744	-0.183026
C	0.0868257871318728 0.2791356239373323 0.8530938043667026	0.091630
C	0.9151652685801177 0.0940097195003757 0.8529033944366832	0.096721
C	0.8719956239192890 0.0482143780411832 0.8559383134636767	-0.176435
C	0.7783422889924595 0.9511615788541524 0.8562545989492165	-0.115740
C	0.7328309046319367 0.9084701555960211 0.8566320922828006	-0.114798
C	0.6331465006197923 0.8208019411254434 0.8565460250072802	-0.182334
C	0.5868307299001603 0.7791926015745223 0.8529914254007994	0.090764
C	0.4152104715192108 0.4061165947564013 0.1472808064123395	0.095446
C	0.3720788853426438 0.4519572336320383 0.1441250248731438	-0.177058
C	0.2784196376585330 0.5489752416097365 0.1436759329790004	-0.115418
C	0.2329298023108537 0.5916843697121049 0.1432670167504013	-0.115638
C	0.1333062845002346 0.6792576790087019 0.1433703177106252	-0.183164
C	0.0869224197703081 0.7207872715644410 0.1469280730644631	0.091407
C	0.9150582337969858 0.9059098811946030 0.1471295794890424	0.096086
C	0.8718863698881137 0.9517001725470882 0.1440382286118449	-0.176428
C	0.7781683880600788 0.0486538540986476 0.1436822835657593	-0.115809
C	0.7326657730188997 0.0913484295895931 0.1433137503092361	-0.114519
C	0.6332112877655333 0.1792324062398688 0.1435219001104839	-0.182751
C	0.5869449129194092 0.2209304451478481 0.1471520393643316	0.090710
C	0.5849831542928335 0.5939843628091436 0.6471699011203673	0.096307
C	0.6281771370645828 0.5482171658681333 0.6440992703926017	-0.177332
C	0.7219553857501387 0.4511424542923284 0.6436965779258750	-0.115883
C	0.7674946263248691 0.4084843053217861 0.6433103878486649	-0.116254
C	0.8671632072589190 0.3209485102424879 0.6434060432748864	-0.181958
C	0.9134720705273202 0.2793265886524959 0.6469656437902502	0.090114
C	0.0848654476266797 0.0939830879131635 0.6471808306970602	0.096246
C	0.1280268183191128 0.0481834484179405 0.6440729602883793	-0.177522
C	0.2217410325935561 0.9511956280080562 0.6436963727281974	-0.115885
C	0.2673058266095543 0.9085743608211236 0.6432909452930348	-0.114059
C	0.3670593257268607 0.8209785285150019 0.6433431524489494	-0.181291
C	0.4133628208367716 0.7793451404777076 0.6468646334462608	0.089922
C	0.3486148909306963 0.5232047740529608 0.7499852033164904	0.103328
C	0.3019861347026546 0.4750042795154084 0.7499843948400351	0.065395
C	0.2078614439568937 0.3863699446530454 0.7499897456070240	0.063445
C	0.1581879228541490 0.3425910600879977 0.7500088611144581	0.100397
C	0.8487396068835255 0.0232062297741753 0.7499946869730129	0.104224
C	0.8021357981750361 0.9750352854118730 0.7499809863870136	0.065057
C	0.7079681825919399 0.8864448435985525 0.7499657281310059	0.063297
C	0.6582481597710564 0.8426545124541268 0.7499555227842503	0.099486
C	0.6513347471275844 0.4769157780192486 0.2500212228851619	0.104968
C	0.6979434666769948 0.5250506720097886 0.2499843010267683	0.065769
C	0.7920429581252372 0.6136044233531832 0.2499658876684097	0.063666
C	0.8417659191385037 0.6573374448058565 0.2499646775902230	0.099665
C	0.1515048019502516 0.9766457237736723 0.2499635179109045	0.103145
C	0.1981308792002682 0.0247673584664893 0.2499666691930913	0.065949
C	0.2922793670804853 0.1132795077262186 0.2500264181313486	0.063158
C	0.3419345300500331 0.1571296734822276 0.2500903922333824	0.100115
C	0.6514774900797886 0.5231944405286527 0.7500047607192917	0.102807
C	0.6981500750408207 0.4750470381202355 0.7499969934971265	0.065994
C	0.7923703132509001 0.3865278890390850 0.7499983343526875	0.063460
C	0.8420764601416371 0.3427732215416269 0.7499970318477878	0.100137
C	0.1513050096674638 0.0231834634558856 0.7500054919827666	0.103416
C	0.1979465608394448 0.9750590248824409 0.7499777643235959	0.065251
C	0.2922164860003675 0.8866005890984696 0.7499580850184451	0.063467
C	0.3419400589460882 0.8428040998898830 0.7499387123248896	0.099292
C	0.3488021496962150 0.4769891535668613 0.2500217548939062	0.106233
C	0.3022085713558414 0.5251509924901937 0.2499900540972129	0.065562
C	0.2081150688627373 0.6137185832252574 0.2499632507518768	0.064948
C	0.1584009775647066 0.6574520529771332 0.2499707224507633	0.098783
C	0.8486029173619107 0.9766942143549878 0.2499558615743581	0.104184
C	0.8019908595180548 0.0248359184206260 0.2499677314009814	0.066546
C	0.7078815294020415 0.1134110907881585 0.2500246275623942	0.062622
C	0.6582569980406672 0.1572905096871930 0.2500862137696162	0.100137
H	0.4341700092832591 0.6146352051486391 0.5666934514300581	0.099771
H	0.3569349286218129 0.5330887346557739 0.5570061947787316	0.092099
H	0.2949891865000094 0.4657546357827516 0.5577010389862628	0.083464
H	0.2163578243658841 0.3923056914918291 0.5574034591928160	0.102746
H	0.1491727605760647 0.3355420780481872 0.5565313988988978	0.109902
H	0.0661297563822174 0.2600478376576527 0.5670975759222316	0.098525
H	0.9342496026548613 0.1146846420885478 0.5667317226342453	0.099999
H	0.8569849128757610 0.0330554349947888 0.5570239871714912	0.092198
H	0.7952377481872649 0.9658953429004459 0.5578329467736458	0.083030
H	0.7165420606827009 0.8924863365740994 0.5573066773655025	0.101850
H	0.6491495263461614 0.8356142712841075 0.5564534940491381	0.109674
H	0.5661224401929388 0.7601655655611218 0.5670019381755547	0.098848
H	0.5657702875957845 0.3854022066600672 0.0669623780337267	0.100847
H	0.6430562118596248 0.4670874901903541 0.0570593944489797	0.092623
H	0.7048637278438231 0.5341697115466744 0.0578115974465936	0.082803
H	0.7835338795300689 0.6076025239140501 0.0572666842525397	0.102310
H	0.8507893842529021 0.6643647184890455 0.0564749555064149	0.109979
H	0.9339065353185351 0.7395950175729804 0.0668764157595457	0.098264
H	0.0658969647536252 0.8852265980745879 0.0668089160407294	0.100445
H	0.1432215770385016 0.9668727190296530 0.0569942534617423	0.092225
H	0.2051017290223050 0.0338692954380273 0.0578098884715340	0.083257
H	0.2838225269632681 0.1072382652865991 0.0573296761301267	0.102633
H	0.3509938604894577 0.1642323611733906 0.0566163008814760	0.109835
H	0.4338989925825998 0.2397847655491978 0.0671657160883196	0.100673
H	0.5659032469100098 0.6146628545500299 0.9332165470794745	0.100400
H	0.6431504902629498 0.5330680020818774 0.9429908771202645	0.092275
H	0.7050798325777177 0.4657242342281129 0.9422760314696427	0.083558
H	0.7837884309411713 0.3923808796013322 0.9426259147463760	0.103404
H	0.8511283931857976 0.3358117685580150 0.9435046587146415	0.109702
H	0.9341238083019682 0.2603181473188213 0.9330418901307487	0.100689
H	0.0658393920944101 0.1146841033979369 0.9333229966624161	0.100390
H	0.1430983483301400 0.0330051603249777 0.9429883398357517	0.092539
H	0.2048216477435215 0.9658799347020000 0.9421090209430700	0.082990
H	0.2835774382074560 0.8925673739569071 0.9426665081260800	0.102263
H	0.3510861049708177 0.8358158894593406 0.9434431359086586	0.109348
H	0.4340586170418412 0.7603505509001888 0.9329346729513385	0.100860
H	0.4342099590935347 0.3855207766443379 0.4334105469966324	0.100128
H	0.3569978620846619 0.4672478080698680 0.4429899683437455	0.092380
H	0.2952124381242489 0.5342012142237844 0.4421651551334473	0.083038
H	0.2165431819412389 0.6076456742486575 0.4426501986720098	0.102019
H	0.1494056538381168 0.6645024113630004 0.4434495109752774	0.110307
H	0.0662904692602601 0.7397888969004504 0.4330402891849598	0.098848
H	0.9341392811601200 0.8852716337462890 0.4331976009902644	0.099768
H	0.8568790406885678 0.9669589817988946 0.4429236404342822	0.092252
H	0.7950167311411152 0.0338579170625717 0.4421435404419409	0.083244
H	0.7163287343124992 0.1072829337319529 0.4426921208794108	0.102094
H	0.6493291521154698 0.1643787250195032 0.4435805892595751	0.110105
H	0.5664186000826900 0.2399756416545339 0.4332626857542523	0.098900
H	0.5658214946060778 0.3855183555888920 0.4333385833991534	0.100562
H	0.6431189560459393 0.4671759157125587 0.4429968904923954	0.092502
H	0.7048899287766827 0.5341871848881088 0.4421572858141581	0.083401
H	0.7835547288938296 0.6076129366421635 0.4426638522182717	0.102267
H	0.8507882944903724 0.6643675705475919 0.4434616695211531	0.109982
H	0.9339030852251691 0.7395945212967027 0.4330836855811132	0.098330
H	0.0659083074790107 0.8852458245498648 0.4331496653780413	0.100531
H	0.1432282259525215 0.9668941192323516 0.4429301404017201	0.092152
H	0.2050705413975270 0.0338567722677347 0.4421331608105773	0.083099
H	0.2837871239983312 0.1072224374704929 0.4427009327202835	0.102460
H	0.3509091983668420 0.1641705113661582 0.4435982243812473	0.109642
H	0.4338034284922997 0.2397279494490235 0.4333506369945984	0.098409
H	0.4341949436310684 0.6146355778628928 0.9332618228454457	0.099931
H	0.3569719302669168 0.5330701747688513 0.9429676291813989	0.092111
H	0.2950239667110588 0.4657344487628253 0.9422662987804850	0.083546
H	0.2163880808067968 0.3922894059966315 0.9425746037021732	0.102573
H	0.1491958320843323 0.3355719711764194 0.9434936225133389	0.110111
H	0.0661548354696676 0.2600840271284674 0.9330089613097210	0.098596
H	0.9342374027318220 0.1146598811689832 0.9333475817225181	0.099685
H	0.8569745139924462 0.0330302115275360 0.9429775486195713	0.092200
H	0.7952393468066357 0.9658857812767743 0.9421341409609965	0.082819
H	0.7165415274352428 0.8924810506382159 0.9426350051102240	0.102288
H	0.6491458151584764 0.8356086027226192 0.9434510617683476	0.109788
H	0.5661112654334184 0.7601596859154856 0.9328602364232400	0.098951
H	0.4342850038782924 0.3854284237731387 0.0669110937584861	0.100087
H	0.3570763179041554 0.4671841763409471 0.0570719736042522	0.092276
H	0.2952387345017206 0.5341908185849972 0.0578026217467797	0.083057
H	0.2165649085447006 0.6076378931662448 0.0572799416388291	0.102080
H	0.1494060305171654 0.6644993142788187 0.0564879994327990	0.110391
H	0.0662880929938323 0.7397884865431137 0.0669155797199255	0.098806
H	0.9341503979154536 0.8852546252624073 0.0667516644199622	0.099638
H	0.8568847292535967 0.9669388930718760 0.0569981697292192	0.092238
H	0.7949812678329841 0.0338699445002723 0.0578029783696194	0.083068
H	0.7162897547718192 0.1072988181489626 0.0573466391134534	0.102185
H	0.6492609095114082 0.1644434838314631 0.0566170052016439	0.110112
H	0.5663510110928255 0.2400450316764600 0.0671891926492211	0.099123
H	0.5659427704508295 0.6146794216966658 0.5667697527666417	0.100191
H	0.6431947704448862 0.5331027915512179 0.5570175249827194	0.092193
H	0.7051141778127048 0.4657600951165428 0.5577165573459014	0.083653
H	0.7838174784240032 0.3924102066955243 0.5573655332804148	0.103410
H	0.8511464011089113 0.3357871032262612 0.5565019509792123	0.109653
H	0.9341422795077943 0.2602871510288124 0.5670292426827852	0.100495
H	0.0658093162578287 0.1147045264894822 0.5668003740474906	0.100503
H	0.1430797017133976 0.0330232546721803 0.5570315451192744	0.092454
H	0.2048165877176533 0.9658946556808425 0.5578432284785928	0.082906
H	0.2835714022692015 0.8925764055205494 0.5572547478002324	0.102128
H	0.3510856765683159 0.8358320669379319 0.5564321863505505	0.109523
H	0.4340561772356507 0.7603734882980229 0.5668988606486063	0.100785
Ni	0.5000789564756378 0.6881674691755981 0.7499322147656908	0.717985
Ni	0.0000669841861896 0.1881811591279772 0.7500632772518517	0.717925
Ni	0.5000499384162395 0.3118947797928484 0.2503952994403397	0.717943
Ni	0.0000531553047832 0.8118052103482897 0.2499780284025650	0.718967
F	0.5001545249692788 0.6880009653884278 0.5693052918043765	-0.630462
F	0.0001205001974675 0.1880464172001271 0.5694488246344612	-0.630230
F	0.5000805994040837 0.3121371061511684 0.0699045639206440	-0.630385
F	0.0000818905849408 0.8120710158849536 0.0694407950043620	-0.630107
F	0.5001830757067324 0.6880494576691335 0.9304594065634939	-0.630278
F	0.0000475759637499 0.1880392307690653 0.9306976828651792	-0.630387
F	0.5001352912138672 0.3121008578787804 0.4309862573078360	-0.630191
F	0.0000853561022522 0.8120854131143114 0.4305260587180441	-0.630182
F	0.4851218004425263 0.7481801600801724 0.2517366723004759	-0.368983
F	0.5540648116614684 0.6690186381274177 0.2516885795688479	-0.367184
F	0.9810937390015448 0.2491766670546580 0.2491988183185757	-0.369483
F	0.0537368576695580 0.1744766237513496 0.2487097249219975	-0.367134
F	0.5534442796011452 0.2961747132748561 0.7503542238804438	-0.368552
F	0.4847875307407064 0.3756107064973864 0.7477432750458585	-0.365169
F	0.0526689754524021 0.7945212644505448 0.7497075389881128	-0.368288
F	0.9854403922098176 0.8755625044953685 0.7500635486100903	-0.364786
F	0.4594208095502921 0.6406219683183267 0.2503907295237296	-0.365921
F	0.9605734066867928 0.1402106394464692 0.2506971970997028	-0.366402
F	0.4588096100759758 0.2681026335665121 0.7471656251747762	-0.369483
F	0.9574642490819251 0.7687348506973835 0.7499459976115538	-0.369659
N	0.4366260096224764 0.6167277238562370 0.7499748081523574	-0.211634
N	0.5641810485391779 0.7582921332303590 0.7499344664986085	-0.211812
N	0.9366616058812304 0.1167451996780401 0.7500445238950402	-0.211411
N	0.0641488737382948 0.2582393641917745 0.7500499123368644	-0.212030
N	0.5633362222923938 0.3834473247976022 0.2501652140083122	-0.210172
N	0.4359211119323519 0.2416633000412901 0.2502638300015500	-0.213930
N	0.0634392196042331 0.8832406128179910 0.2499791455353131	-0.210727
N	0.9359799174676388 0.7415139388598367 0.2499814667909790	-0.213473
N	0.5634245816243034 0.6166498989623892 0.7499914197858042	-0.210266
N	0.4359751325702307 0.7583599404206409 0.7499164265555212	-0.213320
N	0.0633576881496680 0.1166692553454787 0.7500587803055335	-0.210801
N	0.9360879869116050 0.2583712282528985 0.7500374760420513	-0.213582
N	0.4366626328921942 0.3833749562794360 0.2501668294127237	-0.210558
N	0.5642781807091370 0.2418136457903346 0.2502339605275416	-0.212273
N	0.9365633087256920 0.8831867014496066 0.2499745792017094	-0.211458
N	0.0642044204001700 0.7416444256821644 0.2499777435091777	-0.212529
B	0.4995278503610080 0.6859115101199394 0.2513915934879805	1.090005
B	-0.0015113831709564 0.1879022180863159 0.2495122999001217	1.090639
B	0.4990039912765633 0.3133426022168058 0.7483701655716265	1.091137
B	0.9985432152966057 0.8129692540283566 0.7499088841724547	1.090625
	  	
