#======================================================================

# CRYSTAL DATA

#----------------------------------------------------------------------

data_VESTA_phase_1


_pd_phase_name                         BFFIVE_1_Ni
_cell_length_a                         11.26569
_cell_length_b                         11.26570
_cell_length_c                         8.02411
_cell_angle_alpha                      89.92159
_cell_angle_beta                       90.07732
_cell_angle_gamma                      89.99052
_symmetry_space_group_name_H-M         P 1
_symmetry_Int_Tables_number            1

loop_
_symmetry_equiv_pos_as_xyz
   x, y, z

loop_
   _atom_site_label
   _atom_site_fract_x
   _atom_site_fract_y
   _atom_site_fract_z
   _atom_site_charge
C	0.2535471275870799 0.4584323340869593 0.3678572098131996	0.098030
C	0.1300520332453312 0.4571362927249920 0.3630246590739187	-0.182237
C	0.7466309760583778 0.5414194577008181 0.3674356259152131	0.099489
C	0.8701122363311414 0.5428999933285015 0.3627874215090102	-0.183467
C	0.5414500710455257 0.2536871976837236 0.3678169977976416	0.099620
C	0.5428040595288115 0.1301897377785008 0.3630508032234281	-0.182489
C	0.4585592603713962 0.7467519369638436 0.3679089479160911	0.098151
C	0.4571318680817188 0.8702458839392143 0.3630725523972342	-0.183008
C	0.7467525604354228 0.4585571454679983 0.6320928079962865	0.098243
C	0.8702478564188312 0.4571301043225593 0.6369268180767228	-0.183123
C	0.2536841288219240 0.5414468787511233 0.6321864025246626	0.099450
C	0.1301882168341249 0.5428025912341130 0.6369496105023650	-0.182414
C	0.4584354717055086 0.2535425384984019 0.6321474755741247	0.098169
C	0.4571376915565210 0.1300489577009529 0.6369770403216584	-0.182305
C	0.5414210541202844 0.7466317541275652 0.6325649534576802	0.099589
C	0.5429017326087032 0.8701132745790366 0.6372111147019733	-0.183441
C	0.0657850749557022 0.4999743849988123 0.4999443115064525	0.099753
C	0.9345734669491123 0.4999932895325015 0.4999063768285796	0.099480
C	0.4999735621417561 0.0657842894429432 0.5000526977235739	0.099908
C	0.4999923173025647 0.9345732821271969 0.5000935246948597	0.099449
H	0.3078931899688530 0.4272309630850942 0.2640934430966053	0.102896
H	0.0843582581561793 0.4210033697377745 0.2545044980188074	0.115940
H	0.6922532493771123 0.5721035178964489 0.2633989484031752	0.102643
H	0.9157843594230750 0.5789296321585858 0.2541484616815955	0.115233
H	0.5727997105926252 0.3082508324450167 0.2642777438241096	0.101520
H	0.5789628514898508 0.0845330499216824 0.2546244114107438	0.115194
H	0.4279406399217577 0.6925118687156236 0.2637675189669750	0.103311
H	0.4211030129011775 0.9158943154968873 0.2543027830782668	0.115603
H	0.6925135172648086 0.4279378709994542 0.7362340117912554	0.103244
H	0.9158931062489399 0.4211001889867385 0.7456990319247754	0.115699
H	0.3082438370919137 0.5728020274602053 0.7357255822512517	0.101496
H	0.0845269869638814 0.5789628658022193 0.7453697275337609	0.115197
H	0.4272279909653210 0.3078833605456973 0.7359140450286465	0.102756
H	0.4210028572964090 0.0843514299145311 0.7454938160197390	0.115904
H	0.5721048068945770 0.6922553784659118 0.7366008603444580	0.102591
H	0.5789305985121114 0.9157823547554842 0.7458529626244753	0.115202
Ni	0.5000662892335516 0.5000692498426793 0.5000080007498162	0.723587
B	0.4993244234655991 0.4993330756282701 -0.0000944444954046	1.113189
F	0.5009905389410956 0.4991488487264172 0.7443027636974109	-0.582998
F	0.4991454663694695 0.5009839187036317 0.2557626315737427	-0.583180
F	0.4135789720214857 0.4136061896726493 -0.0000098042656998	-0.421728
F	0.6163816310326434 0.4677323507854705 0.0018402010879449	-0.422216
F	0.4677487862543910 0.6163911959019890 0.9981635605036735	-0.422186
N	0.3139475770586405 0.4999507976657148 0.5001186583635476	-0.218473
N	0.6863674676643932 0.4999854069587681 0.4996583271572202	-0.219291
N	0.4999545384291265 0.3139464721079830 0.4998864189841327	-0.218660
N	0.4999845883611548 0.6863682036293044 0.5003486490903000	-0.219320
	  	
