#======================================================================

# CRYSTAL DATA

#----------------------------------------------------------------------

data_VESTA_phase_1


_pd_phase_name                         BFFIVE_15_Cu_i
_cell_length_a                         29.74877
_cell_length_b                         28.44959
_cell_length_c                         8.72128
_cell_angle_alpha                      89.70039
_cell_angle_beta                       90.00095
_cell_angle_gamma                      90.00142
_symmetry_space_group_name_H-M         P 1
_symmetry_Int_Tables_number            1

loop_
_symmetry_equiv_pos_as_xyz
   x, y, z

loop_
   _atom_site_label
   _atom_site_fract_x
   _atom_site_fract_y
   _atom_site_fract_z
   _atom_site_charge
C	0.9365132519835963 0.1052737110925353 0.8781419742898312	0.091853
C	0.9037639177195084 0.0705640263620341 0.8883724366427709	-0.163876
C	0.7702167622006902 0.9358292420585835 0.8924011880452110	-0.117559
C	0.7358353419077481 0.9030163884565946 0.8923735607097081	-0.114529
C	0.5646597827480777 0.7382686513834544 0.8780539635008765	0.088602
C	0.5986619094825611 0.7716024388395542 0.8880624848804672	-0.167545
C	0.4365522721233308 0.6052104840737927 0.8768278252836790	0.092448
C	0.4038382889761842 0.5704908474453697 0.8869886664279854	-0.165213
C	0.2701801559290258 0.4357914645589677 0.8925506228212358	-0.117379
C	0.2357906776300349 0.4029721617081493 0.8924140724759928	-0.115478
C	0.0646965923649795 0.2383153720470314 0.8770221097423748	0.090477
C	0.0987073006134186 0.2716254165559443 0.8867675966272883	-0.166757
C	0.0656736161833662 0.8961593830604865 0.3901642308945579	0.093844
C	0.0983192049966176 0.9309900395467020 0.3898397909447391	-0.167699
C	0.2292143240398160 0.0637700287684897 0.3889590925496287	-0.115648
C	0.2636000367309901 0.0965929422422299 0.3906306505190419	-0.115235
C	0.4352624691331564 0.2614378137704212 0.3770060207864186	0.090769
C	0.4012472139675569 0.2281133109273479 0.3870203447360318	-0.166985
C	0.5632972450399745 0.3945488458355865 0.3785938103401090	0.092191
C	0.5959691294356119 0.4292965918520105 0.3887565113808987	-0.165648
C	0.7300058361394222 0.5645083365038924 0.3912099022856518	-0.117641
C	0.7644160521744761 0.5973106055008356 0.3886652668164763	-0.114908
C	0.9335014500223707 0.7590859993527413 0.3889488134386416	0.089777
C	0.8993693043621127 0.7258691456430272 0.3883309192547094	-0.172470
C	0.0656123834932879 0.1039006733861106 0.6095186126490230	0.094349
C	0.0982364780558071 0.0690653937838628 0.6097210547241161	-0.169045
C	0.2295659747781854 0.9359118617659766 0.6125570893998987	-0.117592
C	0.2640211506123903 0.9031413670064323 0.6130334104550985	-0.116786
C	0.4328727950609068 0.7402973582334933 0.6109154027994242	0.088702
C	0.3989054958468145 0.7736938238668316 0.6114932947741728	-0.170951
C	0.5647662545941439 0.6030809178748897 0.6095202897274318	0.093608
C	0.5976147489377007 0.5684684959756068 0.6097576495636233	-0.168340
C	0.7295432228211753 0.4360023444904768 0.6128691479003546	-0.117265
C	0.7638883896178684 0.4031033384501105 0.6131948553529075	-0.117061
C	0.9334629749772315 0.2409689507134415 0.6109570159000304	0.089819
C	0.8993084594284090 0.2741624216224346 0.6114643063007491	-0.172574
C	0.9364745442037492 0.8947947979625041 0.1216628494309269	0.092272
C	0.9037232110115266 0.9294946599593827 0.1112832951219609	-0.164211
C	0.7697219812322587 0.0646222373035718 0.1092234256232585	-0.116745
C	0.7354047106055508 0.0975175782293598 0.1113468714510460	-0.116193
C	0.5660553294184123 0.2592141123290851 0.1099653934434069	0.090658
C	0.6001975849430590 0.2259970619896847 0.1104496303724927	-0.171333
C	0.4341331281510269 0.3965292905325321 0.1112270544199176	0.092120
C	0.4014840129191936 0.4313521492456049 0.1116458027824068	-0.168162
C	0.2706232734581426 0.5639664276219527 0.1115603435779159	-0.116591
C	0.2361773324177660 0.5967284024561278 0.1094710517092798	-0.115158
C	0.0646415940527958 0.7617590860592799 0.1228854156239229	0.090751
C	0.0986357156507911 0.7284427761929678 0.1130109595399469	-0.168141
C	0.0635561631401409 0.8946755588480549 0.1228614669301681	0.093211
C	0.0962613281318988 0.9294142304005667 0.1125878654851047	-0.164433
C	0.2301422408725945 0.0645948360059543 0.1093151342069752	-0.115971
C	0.2645384779838711 0.0974060740065515 0.1113925068474542	-0.116359
C	0.4338844392868841 0.2591426960978676 0.1099514668256446	0.091370
C	0.3997831412419878 0.2258866095173403 0.1104675613100564	-0.171139
C	0.5657749936060090 0.3965056122573867 0.1111764220516575	0.091914
C	0.5984367771657478 0.4313094779816700 0.1115577498714996	-0.168295
C	0.7292817825970074 0.5639064628328073 0.1115256377257274	-0.117511
C	0.7636752662064752 0.5967136054177341 0.1093549589097254	-0.114774
C	0.9354382716958184 0.7616222953032485 0.1218034410969748	0.089306
C	0.9013895702021422 0.7283494481780139 0.1117306076036349	-0.167830
C	0.9349212126932936 0.1032284614907431 0.6107175420144783	0.091558
C	0.9020935320754958 0.0686006805446731 0.6111715683831725	-0.168271
C	0.7703247217778141 0.9359742199343974 0.6126422792973614	-0.118210
C	0.7359133266539861 0.9031452998258840 0.6130650611265117	-0.116388
C	0.5670732502307780 0.7402528537045053 0.6109271816179866	0.088704
C	0.6010501309359578 0.7736356173138828 0.6114959498212806	-0.171747
C	0.4351680938541149 0.6030289856335409 0.6094962628264008	0.093917
C	0.4023282627678654 0.5683995983385793 0.6097714498469190	-0.168455
C	0.2703948851479882 0.4359663948113500 0.6128940143334805	-0.117316
C	0.2359793426651487 0.4031438780829231 0.6131188970742938	-0.116567
C	0.0671351620807035 0.2400294888939195 0.6099422591411167	0.089782
C	0.1010985818467149 0.2734397451775756 0.6101721047315195	-0.170605
C	0.9348133715736775 0.8968804912677902 0.3890307529677102	0.092288
C	0.9019812585982621 0.9315011307435159 0.3884402650164911	-0.167782
C	0.7706865713894036 0.0637650066934299 0.3889075459674210	-0.116330
C	0.7363735090627739 0.0966704680259467 0.3906310086505344	-0.115206
C	0.5646955066798388 0.2614941421753990 0.3770210626238227	0.090811
C	0.5987450042770596 0.2282122393854222 0.3870051261954130	-0.167261
C	0.4366133369289883 0.3945515915590945 0.3786212145791711	0.092266
C	0.4039516397581059 0.4293139490292962 0.3888051460951851	-0.165518
C	0.2699403170723849 0.5645351273947391 0.3912205471854655	-0.117744
C	0.2354904253527410 0.5972893137960613 0.3887562107730843	-0.115201
C	0.0671035608554793 0.7599868487147453 0.3899781799174749	0.089366
C	0.1010536804817293 0.7265611380434799 0.3896288216528160	-0.171749
C	0.0635755350996109 0.1053600605265260 0.8768766177597241	0.093062
C	0.0962587582679840 0.0706108730019101 0.8869839235807967	-0.164956
C	0.2296533502034314 0.9357864663134299 0.8923259464441208	-0.116999
C	0.2640819015550958 0.9030334629323384 0.8923061665195886	-0.115522
C	0.4353019712024341 0.7383134468685453 0.8780224759923926	0.088595
C	0.4013144873521193 0.7716629841180104 0.8880509593012456	-0.166680
C	0.5633893880759061 0.6052499987473903 0.8768720966621898	0.092447
C	0.5961162396842169 0.5705535498359519 0.8870165237837078	-0.165635
C	0.7297177466244824 0.4358438026535130 0.8925988771818041	-0.116726
C	0.7640288908548666 0.4029544500811655 0.8924985915937966	-0.116105
C	0.9353747850685983 0.2384451715354222 0.8780529965035080	0.088816
C	0.9012919993522630 0.2716940567348562 0.8880462641527952	-0.166918
C	0.6525745207497389 0.8238532487339862 0.7558248146025859	-0.102953
C	0.8857036736936080 0.0516157960882144 0.7526052384213523	0.160335
C	0.8224554739746353 0.9868962936647846 0.7530832621472661	-0.102800
C	0.6177252918890493 0.7901270106531729 0.7526183931868143	0.168002
C	0.7878976932651598 0.9529167907609790 0.7524474135103337	0.129480
C	0.7180118249378376 0.8861536228700104 0.7528910956990978	0.138043
C	0.6828894354697564 0.8527782563259306 0.7538318066822817	-0.102884
C	0.8519601839721946 0.0167111221688231 0.7555663217717845	-0.104033
C	0.1525970667940875 0.3237825397928619 0.7544628264517402	-0.104974
C	0.3858388195563638 0.5515135230287155 0.7512084483182867	0.162187
C	0.3225027463738550 0.4868631438765634 0.7532685440826928	-0.100264
C	0.1177494233468346 0.2900471627893672 0.7511907593918732	0.168404
C	0.2879180077625933 0.4528986581397222 0.7527564815389794	0.129714
C	0.2180217554382669 0.3861279264212823 0.7528348337202723	0.138684
C	0.1828992510196032 0.3527293923733295 0.7533311347823820	-0.101477
C	0.3520405680257820 0.5166562370151051 0.7546151917556223	-0.106054
C	0.3475330402490263 0.1760565157377860 0.2551149752417057	-0.103794
C	0.1143586571362762 0.9483094412525316 0.2483399668941406	0.161780
C	0.1774769426386376 0.0131916114873657 0.2463940915105065	-0.100766
C	0.3825131117149111 0.2096504815730471 0.2516295620866545	0.168258
C	0.2120344428690698 0.0471804697375040 0.2481720287864871	0.127759
C	0.2819310025424489 0.1139291888733071 0.2519910351119214	0.139094
C	0.3171200662245091 0.1472409089657946 0.2538321403014698	-0.102702
C	0.1480041320731345 0.9833271028279390 0.2449708351377231	-0.106815
C	0.8474282161676286 0.6761395733847982 0.2438004153195510	-0.103511
C	0.6142914204509898 0.4484037790218520 0.2530241406680805	0.162284
C	0.6774262020473565 0.5132461270867306 0.2548883216442421	-0.102682
C	0.8823755443004293 0.7097523205437651 0.2471529098553719	0.168621
C	0.7119993008911020 0.5472107532978213 0.2526023213617805	0.129793
C	0.7819039238069180 0.6139364162136053 0.2477501709199545	0.138045
C	0.8170663022137535 0.6472748749159838 0.2454040355461148	-0.101937
C	0.6479445343433348 0.4833971178634446 0.2564021106348393	-0.106520
C	0.3474144707180205 0.8239320086266770 0.7558304938739614	-0.102922
C	0.1143136234849370 0.0517201759046352 0.7511485649956513	0.162953
C	0.1773833253416719 0.9868000841041105 0.7527107029093441	-0.101311
C	0.3822526286858541 0.7901861089917590 0.7526294908473401	0.167498
C	0.2119551007392675 0.9528315379495941 0.7523453501535599	0.128767
C	0.2819319489328899 0.8861781844186104 0.7528755706757557	0.139862
C	0.3170952284061062 0.8528473165870818 0.7538403580451620	-0.103028
C	0.1479347902846907 0.0166834790123797 0.7543742286375561	-0.107331
C	0.8472963726376888 0.3238428412326533 0.7557709529211769	-0.102192
C	0.6141284519442821 0.5515875847804050 0.7512109432013783	0.163134
C	0.6774889228055049 0.4869814503793981 0.7531904614610170	-0.100434
C	0.8822842806912893 0.2902641098110256 0.7525890847601356	0.167566
C	0.7120308885937117 0.4529690460679131 0.7527229417832209	0.129083
C	0.7817907948191271 0.3860660430051791 0.7529707699293046	0.139945
C	0.8169176795399065 0.3526865210122663 0.7538119706758993	-0.103731
C	0.6479428872939553 0.5167622314116675 0.7545898130128420	-0.106975
C	0.6524983948614266 0.1762231097994215 0.2550952457920384	-0.105060
C	0.8856228049544572 0.9484560607752778 0.2469372009800568	0.161240
C	0.8223234674427331 0.0131409781536690 0.2459639207607115	-0.102166
C	0.6174911436815574 0.2097699668887278 0.2515989078739164	0.168292
C	0.7878045984721894 0.0471423642156576 0.2480508585387664	0.128913
C	0.7180558967836608 0.1140524741296054 0.2520089190844554	0.138113
C	0.6829172776186425 0.1474131982053744 0.2538519864398672	-0.101150
C	0.8518498814109110 0.9833342092323852 0.2437728832972547	-0.104616
C	0.1525065507868172 0.6762254208093780 0.2450659262376425	-0.104757
C	0.3856492831778828 0.4484457349589491 0.2531075399060431	0.162381
C	0.3225451820609922 0.5133355465346835 0.2548349862127581	-0.103688
C	0.1176837626954702 0.7099818098385106 0.2485178391298946	0.170310
C	0.2879502325282338 0.5472666975993052 0.2525808408205049	0.130086
C	0.2179484286155341 0.6139094520449881 0.2479266354874936	0.138094
C	0.1828014666731866 0.6472757405624719 0.2459138777858028	-0.101801
C	0.3520212593664191 0.4834744230228313 0.2564709169865259	-0.105748
H	0.9522409053230041 0.1217387174946891 0.9781171501611793	0.120618
H	0.8922853059333997 0.0582564852523218 0.0001780709726841	0.121162
H	0.7840003741244279 0.9488174785631051 -0.0000237544198006	0.107465
H	0.7221065487884762 0.8897960559599912 0.0000244168687171	0.114093
H	0.5485009393359347 0.7221027833520939 0.9782919878197505	0.119889
H	0.6104595658421216 0.7831166685355500 -0.0001251982857489	0.124399
H	0.4523924950930995 0.6219140902313034 0.9763119735663757	0.121875
H	0.3922836647455225 0.5581919567899267 -0.0012120262787303	0.121115
H	0.2839077611836068 0.4487465404146257 0.0003089686875935	0.107915
H	0.2220387889650814 0.3897623028761067 0.0000943836201290	0.114208
H	0.0483653203269329 0.2220249408763010 0.9767978775626458	0.121037
H	0.1105590626018174 0.2832139776054869 -0.0014974042385878	0.123550
H	0.0526308585541648 0.8814110677446625 0.4968246672756683	0.103897
H	0.1113826467340716 0.9446152913464824 0.4975034073791188	0.119486
H	0.2151256935259033 0.0504013099872874 0.4960910324770995	0.106366
H	0.2769737598563554 0.1093611526639511 0.4989943974655273	0.114049
H	0.4515411328930731 0.2776186907804234 0.4765538246697322	0.120181
H	0.3891880211576500 0.2165127036698186 0.4988680101134400	0.123599
H	0.5475728452731089 0.3778175394272257 0.4786608961916313	0.120796
H	0.6072691905474362 0.4414690191875109 0.5005408578652274	0.122373
H	0.7165006759654377 0.5516658944279369 0.4998232182027877	0.106899
H	0.7784193028143301 0.6106168270303838 0.4953719009410761	0.114419
H	0.9475231746635440 0.7721489756069828 0.4960858147067104	0.102402
H	0.8859081780318570 0.7124813597891905 0.4960529450479277	0.124546
H	0.0525317207067888 0.1186587560263236 0.5029362366137485	0.104473
H	0.1112687023673849 0.0554300541380892 0.5020376926917363	0.119541
H	0.2157542288796343 0.9489660243257281 0.5046702009694390	0.107331
H	0.2777103064454007 0.8901281731126318 0.5053989718381072	0.114828
H	0.4462537819843244 0.7265225924718135 0.5037965221440989	0.102851
H	0.3852559237949836 0.7868312340411462 0.5037245411911311	0.124055
H	0.5507854215339996 0.6169027666269986 0.5029236149749384	0.104538
H	0.6103890620667383 0.5545476861204219 0.5020981712254250	0.119462
H	0.7157109751839554 0.4491208567072768 0.5050828440241143	0.107495
H	0.7774991080790484 0.3900429765539869 0.5054928145306534	0.115114
H	0.9474942864547004 0.2279044948574235 0.5038540747364137	0.102709
H	0.8858611103422047 0.2875238371226218 0.5037074093080944	0.124686
H	0.9522121585001188 0.8783093468604285 0.0217233558887060	0.120645
H	0.8922619617168541 0.9417820699987042 0.9994021511404011	0.121329
H	0.7831545991357587 0.0518519330036294 0.0007907207639003	0.108424
H	0.7213793744719651 0.1109704799960471 0.0044326261077911	0.114479
H	0.5516401918029330 0.2724490122236777 0.0032796987568194	0.103120
H	0.6134621983928344 0.2126962159578985 0.0027232747594091	0.124086
H	0.4469861577455939 0.3821852831446906 0.0041569405745031	0.104559
H	0.3883398961818167 0.4451402923789246 0.0038450606945907	0.118968
H	0.2847057477604713 0.5507482955734255 0.0046899679981147	0.106800
H	0.2227366452352451 0.6096090673942084 0.0009407465082657	0.113945
H	0.0482908260372244 0.7780539294272660 0.0231468382378374	0.120963
H	0.1104633588054217 0.7168610473660535 0.0012633779501179	0.123929
H	0.0477451203068833 0.8779401776641995 0.0234095763477956	0.121804
H	0.1077364403401842 0.9417694419134892 0.0008098116528701	0.120978
H	0.2167025800377826 0.0518418867320256 0.0008555963675401	0.108169
H	0.2786102672714427 0.1107857793838542 0.0044279960348597	0.114562
H	0.4482889444644497 0.2723850498793122 0.0032427235371452	0.102956
H	0.3865174230065974 0.2125646773883136 0.0027660691311723	0.124126
H	0.5529114873359000 0.3821598486473197 0.0041222685416399	0.104417
H	0.6115917537391372 0.4450978445577440 0.0037815202771963	0.119241
H	0.7152235675655370 0.5506265462307018 0.0047208796507703	0.107026
H	0.7771311576096258 0.6095865017016969 0.0008230488604263	0.113970
H	0.9517122690065437 0.7777010628021739 0.0216248206503874	0.119754
H	0.8895487306248597 0.7168918591611644 0.9999066347947602	0.124624
H	0.9485852803439256 0.1170053673040275 0.5035879019814939	0.103700
H	0.8892805640701198 0.0547782784368383 0.5034529923990727	0.120323
H	0.7841351873824709 0.9490381339618468 0.5047480391834392	0.107594
H	0.7222626948292267 0.8900765662898178 0.5054867892477247	0.114685
H	0.5536869224485856 0.7264785695638876 0.5038297661366242	0.102847
H	0.6146999607784041 0.7867699728995120 0.5037206304785194	0.124428
H	0.4491474054399500 0.6168499439645844 0.5028861955150591	0.104606
H	0.3895486631725880 0.5544796639756830 0.5020958512384117	0.119400
H	0.2842810973265288 0.4490342278130353 0.5050730211357376	0.107665
H	0.2223748095313572 0.3900973011578017 0.5054166120797655	0.114774
H	0.0537019996567961 0.2259151653042302 0.5034013551522987	0.103406
H	0.1148113446894332 0.2865058828274391 0.5023739867594771	0.123968
H	0.9484522261445716 0.8831062997221191 0.4962200880128091	0.103532
H	0.8891464851001045 0.9453226093696181 0.4961613519975238	0.120099
H	0.7847876336714684 0.0503872721634056 0.4960039539909413	0.106474
H	0.7230553745988909 0.1094955409679005 0.4989853080924480	0.113736
H	0.5484204961056466 0.2776452664704843 0.4766128343482251	0.120256
H	0.6108264955349546 0.2166153483477369 0.4988167709576494	0.123455
H	0.4523351697701027 0.3777931835852994 0.4786406085227602	0.120747
H	0.3926671520891814 0.4414690549949465 0.5006417298765714	0.122044
H	0.2834930543469715 0.5517263953692386 0.4998388991435496	0.107221
H	0.2215191483124099 0.6105928582061657 0.4955189838484926	0.114365
H	0.0536859400177927 0.7740713651217552 0.4965891206781111	0.103504
H	0.1147639185687232 0.7134562957137098 0.4973652322370755	0.124353
H	0.0477775983416261 0.1220844275533180 0.9763617824391717	0.121554
H	0.1077471067331075 0.0582226917290542 -0.0012794315697494	0.120651
H	0.2158770322671009 0.9487780744869737 -0.0001019458338918	0.107700
H	0.2778573834485062 0.8898739161424216 0.0000350413516240	0.114262
H	0.4514758913889005 0.7221213645114041 0.9782245397405444	0.119816
H	0.3895364915727033 0.7831738726551207 -0.0000906056895765	0.124385
H	0.5475545253365585 0.6219204193214433 0.9763967537374840	0.121734
H	0.6076835195174407 0.5582465003254797 -0.0012257208093191	0.121359
H	0.7160248018928519 0.4488612491011991 0.0002570117454686	0.107695
H	0.7777842397617486 0.3897346577276951 0.0001842565143739	0.114499
H	0.9516317942451423 0.2223867488888794 0.9783140739583299	0.119897
H	0.8894387278082166 0.2831378599435399 -0.0001205420052338	0.124602
Cu	0.4999658080734363 0.6725635314086430 0.7491265967655351	0.687842
Cu	-0.0000249389521076 0.1725836891335165 0.7493438008922318	0.689879
Cu	0.4999555695966664 0.3274527827171537 0.2496388845074324	0.689655
Cu	-0.0000251915661896 0.8275079542656828 0.2506505471180545	0.689379
B	0.4999389028069042 0.6735874644140197 0.3073091511809461	1.057072
B	-0.0006672574146249 0.1728771964068023 0.3079347955299935	1.058670
B	0.4998385305695535 0.3280930993592921 0.8089437339719874	1.056970
B	-0.0004699249566189 0.8274871240759711 0.6916457396779794	1.057530
F	0.4999905498145218 0.6256888553944742 0.2684562082108324	-0.459468
F	0.9767240026640519 0.2139586958581475 0.2613936183687418	-0.458791
F	0.9768107340191426 0.1314979082291581 0.2651674218228834	-0.455930
F	0.4999824084083619 0.2802754537817030 0.7691901211770410	-0.461827
F	0.9768321110902571 0.7863903559893812 0.7377027314395354	-0.458342
F	0.9772270284090127 0.8688907167976119 0.7353011928302569	-0.455499
F	0.5393103311180403 0.6971498940072978 0.2612762330941747	-0.457866
F	0.0450644057760941 0.1728064972327088 0.2674606787440886	-0.461596
F	0.4602719510776374 0.3515056339420690 0.7642042126144026	-0.456639
F	0.4604394013455586 0.6970041311750853 0.2616102088578087	-0.457989
F	0.5391379897791416 0.3518167686611086 0.7632244308353227	-0.456789
F	0.0453257376049904 0.8272807115730323 0.7316807793272431	-0.461544
F	0.4999579602371859 0.6747125363863873 0.4765296638554583	-0.482138
F	-0.0013733373855828 0.1733743367597348 0.4769746489694862	-0.482587
F	0.5000027810235478 0.3289065274044776 0.9779808284569890	-0.482222
F	0.0007564335533757 0.8279281949820096 0.0170338756643572	-0.615269
F	0.4998392008261203 0.6714381594501388 -0.0175570222269068	-0.614781
F	0.0007890904238732 0.1720812936562177 -0.0172748688023212	-0.615464
F	0.4998664109627721 0.3263342169553982 0.4830427850239173	-0.615005
F	-0.0013342347535591 0.8272530349176083 0.5225597877127589	-0.482476
N	0.5492170233111493 0.7229689521261655 0.7415282385251176	-0.214238
N	0.9515906540640027 0.1212722942124602 0.7414530258684240	-0.215925
N	0.0492649480267881 0.2229379694753658 0.7406244244114167	-0.214423
N	0.4516693154038866 0.6211570779757108 0.7401874189091459	-0.214367
N	0.4510846917199333 0.2766881499976667 0.2404762135459882	-0.214799
N	0.0486788556459712 0.8785178535362400 0.2595245382247676	-0.215133
N	0.9510466190026290 0.7767228833686821 0.2583511500049617	-0.215320
N	0.5486030191697208 0.3785718989518606 0.2419311624574371	-0.215961
N	0.4507223086742105 0.7230063250308612 0.7414973798161111	-0.214278
N	0.0486630014873654 0.1215537730296913 0.7402497235978878	-0.215566
N	0.9510084413208146 0.2233578980864926 0.7415577573559735	-0.215438
N	0.5482579066922389 0.6211956701596991 0.7402315975104858	-0.214777
N	0.5488430401051494 0.2767281867346311 0.2405067246298999	-0.214446
N	0.9515304256252652 0.8788251372204673 0.2583967473878204	-0.216449
N	0.0492366987891382 0.7771225531525124 0.2593319577192639	-0.213969
N	0.4512965029387437 0.3785812590169583 0.2419431644570741	-0.215698
	  	
