#======================================================================

# CRYSTAL DATA

#----------------------------------------------------------------------

data_VESTA_phase_1


_pd_phase_name                         BFFIVE_4_Cu_i
_cell_length_a                         23.21288
_cell_length_b                         20.67849
_cell_length_c                         9.97856
_cell_angle_alpha                      89.97401
_cell_angle_beta                       90.01122
_cell_angle_gamma                      89.99659
_symmetry_space_group_name_H-M         P 1
_symmetry_Int_Tables_number            1

loop_
_symmetry_equiv_pos_as_xyz
   x, y, z

loop_
   _atom_site_label
   _atom_site_fract_x
   _atom_site_fract_y
   _atom_site_fract_z
   _atom_site_charge
C	0.4164748880568931 0.5964814837134053 0.6327227617973227	0.097042
C	0.3729617334966487 0.5505056589244023 0.6320209236060575	-0.171293
C	0.2780481901424510 0.4500286985444696 0.6326155613573322	-0.115568
C	0.2322123649516402 0.4069923533878104 0.6315092460053465	-0.113033
C	0.1318653989049909 0.3187295499225999 0.6299809197434879	-0.173262
C	0.0851972225249061 0.2767951413613184 0.6329232755699941	0.088593
C	0.9169482404279903 0.0968081875781445 0.6345709042682443	0.095155
C	0.8734723094411488 0.0508021550480208 0.6328022420238046	-0.172545
C	0.7784726050629983 0.9501928591922050 0.6322722850546432	-0.117467
C	0.7326349210014497 0.9071862476617534 0.6309657849277019	-0.112928
C	0.6322408811436944 0.8191704379907269 0.6283979585350348	-0.173538
C	0.5855521126374587 0.7772339290502046 0.6305360034821597	0.090341
C	0.5825510311281276 0.4031443723054049 0.1368642381474693	0.096488
C	0.6259610304754074 0.4493189308921176 0.1329607161507455	-0.171813
C	0.7218740724683094 0.5502813498056218 0.1311925017371898	-0.116041
C	0.7678553607504247 0.5931712463215134 0.1304373858049126	-0.111010
C	0.8688519914421391 0.6816043947973947 0.1316130452753768	-0.170679
C	0.9154544495455594 0.7236487733949623 0.1362523600390333	0.092809
C	0.0824895125776972 0.9028748329107696 0.1370183753901412	0.096726
C	0.1258580398877465 0.9490580678144971 0.1334130457811772	-0.171335
C	0.2216590837826852 0.0499579163748710 0.1316335068500550	-0.114987
C	0.2676479785782790 0.0928383905690694 0.1306404777287865	-0.113619
C	0.3686466004025045 0.1814693467514024 0.1317201530944986	-0.171425
C	0.4152652246173592 0.2235270885258067 0.1366819491854361	0.091831
C	0.5827108898712433 0.5970240481642088 0.8634005875669100	0.097493
C	0.6261251338581231 0.5508471973000213 0.8670113226625912	-0.171574
C	0.7219012397205238 0.4497998002040861 0.8687597676905280	-0.116479
C	0.7678823872609718 0.4068954653978080 0.8696845263274833	-0.110966
C	0.8688384321930356 0.3188080683776979 0.8697501279370852	-0.169618
C	0.9154926470555428 0.2768114702015169 0.8661043036322503	0.093070
C	0.0827664815778499 0.0969608359400041 0.8654624858898222	0.098266
C	0.1261376512741642 0.0507503300088764 0.8680833714774776	-0.170635
C	0.2216860753272410 0.9498402307405666 0.8685247739781226	-0.116083
C	0.2677089850357369 0.9069949025542127 0.8692239985042041	-0.112139
C	0.3687907411541756 0.8187420406885028 0.8680528835267538	-0.169474
C	0.4154656095800157 0.7767581794116115 0.8635390326615399	0.091758
C	0.4168057045701272 0.4043245338765184 0.3677994328147520	0.097500
C	0.3732390486417956 0.4501687071104425 0.3682803456512784	-0.171616
C	0.2780450922217009 0.5499306833394659 0.3674650566150789	-0.115694
C	0.2321787018384347 0.5928720622057380 0.3687294817479259	-0.113364
C	0.1321047367873028 0.6810846891201233 0.3713817284179340	-0.172885
C	0.0855219396964304 0.7231599544840245 0.3693817485009898	0.090198
C	0.9170913709669015 0.9040407410175252 0.3678696062160698	0.094701
C	0.8736880961610295 0.9501137889083242 0.3686393727117367	-0.171581
C	0.7784924356988722 0.0500778977016899 0.3678092008396722	-0.116357
C	0.7325604105226522 0.0929158054701958 0.3688649074339165	-0.112821
C	0.6325019107860436 0.1808603202902665 0.3713112443675105	-0.173265
C	0.5859331245244458 0.2229314309930302 0.3696047972055161	0.091055
C	0.5835883355277238 0.4038889891725486 0.3675535871030428	0.098013
C	0.6270168863936730 0.4498945855664483 0.3683048919439802	-0.174521
C	0.7220397741214835 0.5498908261865121 0.3674299038528400	-0.115748
C	0.7678609472031395 0.5928703737364031 0.3686357558726452	-0.112304
C	0.8680227284158212 0.6808064978417069 0.3712435628607753	-0.171352
C	0.9146445312786911 0.7228085006970258 0.3694063491820323	0.088836
C	0.0831213106736561 0.9037306865452615 0.3678459295829458	0.095622
C	0.1264733125214569 0.9498662657303957 0.3688365806194924	-0.173511
C	0.2215793054026947 0.0500460885833958 0.3678289819891173	-0.115964
C	0.2674875783609770 0.0929162858811071 0.3688346637380649	-0.111956
C	0.3677882521530114 0.1804858583140343 0.3712777023069377	-0.172234
C	0.4144413870061479 0.2224388336807999 0.3697114982561629	0.091598
C	0.4173719417369192 0.5970813862146459 0.8636095859497817	0.097019
C	0.3739691794893953 0.5508816417445257 0.8673286465583807	-0.169678
C	0.2782012044371241 0.4497409727623470 0.8689117161071326	-0.118248
C	0.2322663466591520 0.4067689628172759 0.8697052778658498	-0.110512
C	0.1314580634720990 0.3185395361205259 0.8696423684244542	-0.170114
C	0.0848037990953348 0.2765657809306475 0.8659685496366603	0.093438
C	0.9173286265320926 0.0969593873721274 0.8655498252863073	0.097848
C	0.8739825936350347 0.0507109373319896 0.8682024748426559	-0.168550
C	0.7784341331363185 0.9498087726001130 0.8685425731316380	-0.116105
C	0.7324625556044257 0.9069019726658427 0.8691755252192740	-0.113142
C	0.6314595638666516 0.8185983241936732 0.8679908400122752	-0.170092
C	0.5848011159332591 0.7766174501566114 0.8635468765492157	0.092897
C	0.4174812209127124 0.4030983957640353 0.1370835369543704	0.095635
C	0.3740913592698872 0.4492874493785773 0.1330079200684466	-0.171044
C	0.2781020339585556 0.5502972019431310 0.1312170173130378	-0.117330
C	0.2320894316873385 0.5931715196165592 0.1305175960948211	-0.111858
C	0.1311317290914406 0.6816072149354242 0.1317570990199894	-0.171234
C	0.0845250527562851 0.7236658425146032 0.1362615156726417	0.093380
C	0.9175381443307181 0.9029105357059585 0.1370130364225488	0.096467
C	0.8741809840317309 0.9491003127754870 0.1332972764078413	-0.171054
C	0.7783516866498118 0.0500244094690001 0.1315779469444503	-0.115542
C	0.7323391175098032 0.0928695411258836 0.1306333869347064	-0.114445
C	0.6313334472737363 0.1814010314741711 0.1317439676041189	-0.171255
C	0.5847179723240982 0.2234708145659742 0.1365997365012914	0.091093
C	0.5837909521766320 0.5967832650702590 0.6325330011509606	0.097100
C	0.6272439395271829 0.5507279779026369 0.6316692211791911	-0.173557
C	0.7221529800066737 0.4500917960141985 0.6324671300797148	-0.116965
C	0.7680058835131085 0.4070962344621463 0.6314870548981408	-0.112124
C	0.8684937598406408 0.3191110668497112 0.6300572238762560	-0.172263
C	0.9152059399928920 0.2772317189339608 0.6329557307146856	0.089117
C	0.0832289790079884 0.0969972681890654 0.6345312389654548	0.095981
C	0.1266600777823260 0.0509232626163053 0.6326493817145306	-0.174704
C	0.2217175949219725 0.9502729893345009 0.6322573580713895	-0.117642
C	0.2675771572191393 0.9073078332604803 0.6310246132685932	-0.111746
C	0.3681903708209560 0.8197002475646815 0.6284273755508442	-0.172742
C	0.4149153037619580 0.7777936993241699 0.6304369580076296	0.090308
C	0.3494793723631539 0.5245370429052745 0.7503436941219020	0.110881
C	0.3025030473504599 0.4750570362656689 0.7507773668554872	0.069439
C	0.2069199781108595 0.3847512233404353 0.7505357533494820	0.062494
C	0.1568411161760232 0.3406576789792946 0.7501183612512154	0.102994
C	0.8497760976816411 0.0246126178485119 0.7506916055554239	0.112890
C	0.8028357561747708 0.9751479151464750 0.7505812457949470	0.069137
C	0.7072066593580802 0.8849336060812764 0.7498448658032703	0.064278
C	0.6570715659965289 0.8408905069591673 0.7488785828650661	0.103798
C	0.6504921928002007 0.4757112560737832 0.2498334513914449	0.112815
C	0.6975382267181068 0.5250549727158684 0.2492604360683567	0.069160
C	0.7932117909970186 0.6151090887445870 0.2496606997523189	0.063816
C	0.8432838543561602 0.6591797654918234 0.2506556914930325	0.101140
C	0.1501522174933717 0.9756017289676603 0.2504000253450542	0.113786
C	0.1971850453276945 0.0249681844916545 0.2497566913162569	0.068502
C	0.2929530039596525 0.1149397579599763 0.2498133161917684	0.066012
C	0.3430515543889347 0.1589749286967666 0.2506564353830835	0.100857
C	0.6506528312983060 0.5245852001842900 0.7499836676613222	0.112562
C	0.6976335531403141 0.4750994039823854 0.7505794816854805	0.067533
C	0.7933066097808638 0.3849117783284878 0.7505646589483356	0.064331
C	0.8434523023654976 0.3408952304681135 0.7502182327128678	0.102080
C	0.1503369829194011 0.0246513133766175 0.7505354422112641	0.112827
C	0.1973040372355928 0.9751828945835896 0.7505471522492729	0.068193
C	0.2930326798738693 0.8850895930773600 0.7498958614913381	0.065142
C	0.3432372735609861 0.8411407403749852 0.7489676274229834	0.102115
C	0.3495897842776826 0.4757848406115217 0.2498072699908454	0.113570
C	0.3025078897892167 0.5250718432579923 0.2492422371619365	0.070765
C	0.2067909486023609 0.6151194097934989 0.2498125132855520	0.063488
C	0.1567492346232731 0.6592441164681277 0.2508000617785094	0.101860
C	0.8499093493014788 0.9757191067862059 0.2502596997324100	0.115371
C	0.8028645862019844 0.0250214709406484 0.2496491408776998	0.069526
C	0.7070901536327132 0.1149529678087221 0.2498623060520591	0.064994
C	0.6570339360653029 0.1590366375390286 0.2506757529650714	0.102157
H	0.4342796531035737 0.6155336332534603 0.5393706872605764	0.106074
H	0.3587023982564561 0.5366015615341844 0.5335820785986910	0.099864
H	0.2942478522977686 0.4632887758433075 0.5352856485550851	0.084295
H	0.2163319273335110 0.3910301853889442 0.5342444335872091	0.103102
H	0.1482324051759672 0.3334916662056457 0.5324451360291681	0.117131
H	0.0652814308318126 0.2584035802902977 0.5413444267777506	0.106939
H	0.9350164836982273 0.1161212232051956 0.5417150440045544	0.106323
H	0.8594675024159092 0.0370743121314201 0.5340167129232360	0.100078
H	0.7947105218216626 0.9635188457918491 0.5350326774818710	0.084613
H	0.7167931153438210 0.8912777506375082 0.5336317870262038	0.103138
H	0.6487535110089409 0.8340976799365123 0.5311194856123649	0.116179
H	0.5658203753004579 0.7590892247287300 0.5385245377772303	0.106229
H	0.5629133941676816 0.3820833878414263 0.0468957421228685	0.119765
H	0.6393544209758090 0.4630598523574748 0.0336167782130943	0.100490
H	0.7054350790684807 0.5373250153403023 0.0339110801898977	0.084441
H	0.7838084085175790 0.6093016263931017 0.0332893147262515	0.103443
H	0.8529478318211907 0.6671229697407537 0.0334148818146332	0.116695
H	0.9367241749939478 0.7435895981806694 0.0470585810561233	0.119383
H	0.0629619381932799 0.8817819641361824 0.0469067315377029	0.121646
H	0.1393704876869382 0.9626949549590504 0.0340776209190267	0.100779
H	0.2053399575433225 0.0368119534900155 0.0343629923608728	0.084388
H	0.2836258278853477 0.1088083517042565 0.0334162549013030	0.104010
H	0.3527333280850722 0.1670349315873301 0.0334805678869700	0.115761
H	0.4365875104297289 0.2435685975486963 0.0477204342395170	0.117951
H	0.5631650410259983 0.6179792361042040 -0.0463805605867948	0.121087
H	0.6395635404976144 0.5369563776919660 -0.0337262184191882	0.101099
H	0.7054265184010102 0.4627619363413658 -0.0339508297289892	0.084551
H	0.7838104211304210 0.3907924829739745 -0.0331412983917626	0.103523
H	0.8526918833797850 0.3335140249620764 -0.0324402566355217	0.116473
H	0.9366051195730483 0.2570945826990962 -0.0443464681736230	0.119094
H	0.0634633874661839 0.1178259399180222 -0.0439497075520839	0.121321
H	0.1398547893447507 0.0367006913825076 -0.0330064743332731	0.099856
H	0.2052520242367609 0.9627581690523296 -0.0341231028880518	0.084288
H	0.2837269470144484 0.8909142421223869 -0.0336607189464569	0.104113
H	0.3527732221743310 0.8331738529494910 -0.0338222834668153	0.116253
H	0.4366974643760257 0.7568277958651112 -0.0472386460429344	0.120182
H	0.4349487755386460 0.3858163906836263 0.4611889557656259	0.105727
H	0.3591514815993019 0.4643493838531170 0.4666878783404801	0.098225
H	0.2942639720573982 0.5366792705451834 0.4647481135918501	0.084246
H	0.2163465224038817 0.6088138466446703 0.4660515611280080	0.103298
H	0.1486166332505143 0.6662642678789359 0.4687246037070126	0.116991
H	0.0661097994244806 0.7415037323502265 0.4616210476277360	0.104631
H	0.9352012896886797 0.8852205686168046 0.4611106656008659	0.106729
H	0.8598524376861146 0.9644189871221528 0.4671933830819994	0.099200
H	0.7948408391477463 0.0370627600524788 0.4651021880859451	0.084008
H	0.7167633502318668 0.1089525035436843 0.4661622117921665	0.102888
H	0.6491657582659311 0.1659895506421990 0.4684910115897132	0.116374
H	0.5667231342947575 0.2413025794736441 0.4619239369127588	0.104527
H	0.5657390914282514 0.3847292404230016 0.4606160378727037	0.106015
H	0.6412262614528951 0.4639385035396301 0.4667282912377743	0.098789
H	0.7059370178293546 0.5365543270980203 0.4647376183604226	0.084161
H	0.7837283162852744 0.6088156884048304 0.4659184313193306	0.103509
H	0.8515946954327973 0.6658227275034447 0.4685787984435493	0.116630
H	0.9342507779118574 0.7407583094537055 0.4617773080013286	0.105135
H	0.0651465099140197 0.8845531228569249 0.4608968478512230	0.106825
H	0.1404476135148287 0.9640392341778139 0.4673587393293111	0.098961
H	0.2052998103407088 0.0370041972059320 0.4651471282631510	0.083746
H	0.2832935566210380 0.1089774434923073 0.4660991525094092	0.103080
H	0.3512700933729579 0.1653571212579197 0.4684422624461516	0.116237
H	0.4339905904748115 0.2401559929239168 0.4622411956545671	0.103856
H	0.4368711027876951 0.6180571457686598 -0.0461592400065661	0.120608
H	0.3605805405827749 0.5370452752762513 -0.0333572479804867	0.101029
H	0.2946187367979404 0.4627194282872211 -0.0337687778438342	0.085185
H	0.2163341849668919 0.3906616073711438 -0.0331484573048881	0.103075
H	0.1476008548881281 0.3332227218611151 -0.0325455157221181	0.116378
H	0.0637036531856415 0.2567876537378070 -0.0445195922475500	0.119205
H	0.9366274682471930 0.1177636240167556 -0.0438131152008758	0.120612
H	0.8603629046890912 0.0366237454415392 -0.0328493336536519	0.099688
H	0.7948180695441365 0.9627815629510114 -0.0341051348447745	0.084758
H	0.7164391186563163 0.8908569552617325 -0.0337093409648031	0.103909
H	0.6474325544225190 0.8331304579748945 -0.0339157787113773	0.115971
H	0.5635543020509365 0.7567131748290348 -0.0472292281726446	0.119682
H	0.4370121560162466 0.3819669845952706 0.0470534134975743	0.119406
H	0.3607485816945632 0.4629778474696191 0.0335673736921561	0.100395
H	0.2945264429923093 0.5374077091561611 0.0338692167593653	0.084929
H	0.2161077155006918 0.6093020500188364 0.0334083158056041	0.103562
H	0.1470061108975906 0.6670998818261417 0.0335731159440192	0.116476
H	0.0632604489383404 0.7436423866420118 0.0470840248851577	0.119483
H	0.9369894002153516 0.8818409380594250 0.0467812571249354	0.120890
H	0.8607048826719181 0.9626881448202368 0.0339097375489503	0.101203
H	0.7946969878208758 0.0369453684836072 0.0342739483782550	0.084585
H	0.7163331272299707 0.1088623306143910 0.0334403811071611	0.104002
H	0.6471724065329005 0.1668967199152215 0.0334948171491186	0.115739
H	0.5633485385339556 0.2434670017224662 0.0476199783580784	0.118321
H	0.5661571832683626 0.6162842127913696 0.5393875498669448	0.106431
H	0.6416004049972475 0.5369442234288405 0.5332067855382331	0.099640
H	0.7060051003680536 0.4633437428517784 0.5351049525197922	0.084726
H	0.7839260524029996 0.3911171980509245 0.5342719022728247	0.103833
H	0.8521838038639520 0.3339786245611422 0.5325187208405961	0.116941
H	0.9352739425675292 0.2592113817866799 0.5412165477078856	0.105819
H	0.0653016035951187 0.1166816692783843 0.5418726946856021	0.107078
H	0.1407513986378485 0.0372606054296316 0.5338748413536840	0.100051
H	0.2055140120797373 0.9636087447381959 0.5349985985530293	0.084430
H	0.2834172713262004 0.8913632352405220 0.5337004574376574	0.103248
H	0.3518021705011320 0.8348735946959721 0.5311814280422008	0.117130
H	0.4348263476154177 0.7600923053158720 0.5382280563185742	0.105609
Cu	0.5000219140835969 0.6884779053539757 0.7594642953384899	0.655109
Cu	0.0000054149666510 0.1884511815595097 0.7628302007389781	0.654334
Cu	0.5000070406540315 0.3115553698623172 0.2421740390300630	0.664280
Cu	-0.0000383901955656 0.8115581588982794 0.2408430617904337	0.653562
F	0.4990186062485510 0.6851126600535020 0.4711871889119826	-0.490474
F	-0.0010185189911200 0.1860544873143271 0.4714626794489878	-0.489680
F	0.5001133307406050 0.3123478563692373 0.0327034045652011	-0.631479
F	0.0001663192897663 0.8125423345612831 0.0334237748131550	-0.623646
F	0.5001311799471915 0.6875881772515540 -0.0329233797694173	-0.624929
F	0.0001486609055703 0.1874021267883305 -0.0312200899008678	-0.624173
F	0.4999366712407778 0.3131246451352022 0.5098577791536411	-0.484540
F	-0.0010225366744395 0.8123291676021154 0.5297123441031480	-0.488900
F	0.4828312189037756 0.7471380837149980 0.2822101200317688	-0.478539
F	0.5545921276234431 0.6678062962129753 0.2821410399439244	-0.476053
F	0.9801441613828837 0.2474185986145743 0.2820328769927949	-0.477947
F	0.0554542310387091 0.1728417648028269 0.2821785337831430	-0.476639
F	0.5554941331644617 0.2955685977579172 0.6985503923048092	-0.472995
F	0.4851766597718619 0.3762067014595862 0.6981866363444230	-0.469801
F	0.0544114634681009 0.7929170557921433 0.7185213658338934	-0.477825
F	0.9858240711866517 0.8753310299628297 0.7188642463222282	-0.473763
F	0.4577261919659264 0.6378680688394893 0.2830149794818175	-0.473375
F	0.9599227429311927 0.1370927714436964 0.2827665110989873	-0.473671
F	0.4581262507355913 0.2675015269688136 0.6978252834514476	-0.471564
F	0.9565278867687478 0.7675115784791119 0.7182911724953852	-0.477230
N	0.4385794517096758 0.6196350127412612 0.7472526351180447	-0.209440
N	0.5625439644192922 0.7561499052667950 0.7462423495424567	-0.216959
N	0.9387250619344195 0.1197251054431292 0.7496314154344377	-0.208436
N	0.0623848752472044 0.2559530217356240 0.7490000750945512	-0.215831
N	0.5614533160839997 0.3805785248764226 0.2532803104836008	-0.208159
N	0.4374417172047848 0.2438270695765774 0.2542291363746801	-0.217570
N	0.0612459414678708 0.8803786061953059 0.2533387741858349	-0.207772
N	0.9376067132055799 0.7440328377773798 0.2537531861544483	-0.216673
N	0.5615613048686198 0.6197185419454712 0.7471113491412942	-0.209345
N	0.4377553283324082 0.7564150676356692 0.7461300401288788	-0.217222
N	0.0613719346396297 0.1197784272576652 0.7495949860238961	-0.207908
N	0.9378941414306401 0.2562172998540413 0.7490615854005805	-0.216030
N	0.4387417507660496 0.3807458455721404 0.2535303319794299	-0.209284
N	0.5626910297526690 0.2439676067718329 0.2541223456091023	-0.216292
N	0.9388463487933806 0.8805192629124925 0.2533463314019400	-0.208003
N	0.0624221361483756 0.7441507071046819 0.2537131982041185	-0.216417
B	0.4984976509245721 0.6844284909354380 0.3230303129678010	1.053366
B	-0.0013938912246474 0.1857776421335335 0.3232621445018073	1.052272
B	0.4996476486120542 0.3131308322957234 0.6579403021445326	1.050429
B	-0.0010805140244182 0.8120238456357622 0.6776206481110147	1.051581
	  	
