#======================================================================

# CRYSTAL DATA

#----------------------------------------------------------------------

data_VESTA_phase_1


_pd_phase_name                         BFFIVE_14_Co_i
_cell_length_a                         12.84398
_cell_length_b                         12.84133
_cell_length_c                         9.10244
_cell_angle_alpha                      101.82329
_cell_angle_beta                       101.80437
_cell_angle_gamma                      84.62199
_symmetry_space_group_name_H-M         P 1
_symmetry_Int_Tables_number            1

loop_
_symmetry_equiv_pos_as_xyz
   x, y, z

loop_
   _atom_site_label
   _atom_site_fract_x
   _atom_site_fract_y
   _atom_site_fract_z
   _atom_site_charge
C	0.5882316725694540 0.2477820252554009 0.3519136329562118	-0.180683
C	0.4811784923756889 0.2489456310924617 0.3557297714514630	0.091966
C	0.9779756320251157 0.2709580434274481 0.4244066759828209	-0.161946
C	0.0833158029829615 0.2714395210263237 0.4090100703659417	0.091114
C	0.2470698926428327 0.5863743744480031 0.3516542301170217	-0.179242
C	0.2491365836349352 0.4792332940388819 0.3555198919574933	0.091631
C	0.2705689619389434 0.9765714122011321 0.4247751836018558	-0.162032
C	0.2721370346740136 0.0817503139105989 0.4091357123012343	0.091309
C	0.9253836562248546 0.2666055860809238 0.1525526623812539	-0.176653
C	0.0318569351464056 0.2661969957916014 0.1461908018401149	0.084731
C	0.5397951538903387 0.2352964416069145 0.0781423405879655	-0.163375
C	0.4338324013387710 0.2365036845640103 0.0909276621699659	0.079489
C	0.2374697947599582 0.5379226625000738 0.0784159589290952	-0.164348
C	0.2394805934866200 0.4318525261815598 0.0911547635650553	0.080441
C	0.2670478270620245 0.9234023411775939 0.1531434416050302	-0.175857
C	0.2675646139749416 0.0297348715584138 0.1464771293090694	0.083977
C	0.4225714203196002 0.7633539477915154 0.6514119812731065	-0.177300
C	0.5289570211050258 0.7635340774237133 0.6448416254015366	0.082609
C	0.0369731068956979 0.7324261030191576 0.5795518583674149	-0.164386
C	0.9309951611405527 0.7350851134881162 0.5928895665553017	0.078812
C	0.7637514699982595 0.4246489067116492 0.6513616466329609	-0.176463
C	0.7627975009890868 0.5311942513714843 0.6450059765829087	0.082343
C	0.7324744603659719 0.0386670099437939 0.5783204824903220	-0.164167
C	0.7337630267408080 0.9328082153031356 0.5917048258475962	0.079203
C	0.0855628329158658 0.7507051306078375 0.8542469041458259	-0.178150
C	0.9785114896267093 0.7528245965860807 0.8586648930745094	0.090591
C	0.4751046489333521 0.7730938038330741 0.9244025488501252	-0.163000
C	0.5803732687207257 0.7735384846356128 0.9087822847017731	0.090544
C	0.7732717824991145 0.4768228873075284 0.9243825904310070	-0.162755
C	0.7727915596593178 0.5822777026620541 0.9090010186260934	0.090889
C	0.7502196870927187 0.0875628990432188 0.8528542366293310	-0.178970
C	0.7510556992534864 0.9806606195624937 0.8573894596238153	0.090454
C	0.6188081869855979 0.2428290923602208 0.2106510286897931	0.197656
C	0.8973395202164444 0.2666168527874436 0.2941823716363071	0.192412
C	0.2431800748683511 0.6170119561858647 0.2107145574276905	0.196947
C	0.2660707219374263 0.8957318053232548 0.2946846846509188	0.193130
C	0.3945367295439259 0.7660807385984990 0.7938080905889725	0.193887
C	0.1160632441616741 0.7421057512408410 0.7121224035707525	0.195904
C	0.7668025361272915 0.3963280102020901 0.7936597377593427	0.193851
C	0.7425883067651535 0.1178342262427515 0.7108547004335212	0.197408
H	0.6472616622923191 0.2501463206768653 0.4571450355499706	0.094511
H	0.4496462578002037 0.2569040989848403 0.4606341845775472	0.117452
H	0.9595202106132097 0.2718342962524827 0.5362696545446768	0.135033
H	0.1494082896181470 0.2771590936006729 0.5062438010167722	0.112797
H	0.2482203257873827 0.6454635652700095 0.4566944212856987	0.093938
H	0.2565258699679612 0.4477354646751789 0.4602949350230490	0.117657
H	0.2709317822063653 0.9586296625321541 0.5367730459703713	0.135592
H	0.2781553072281875 0.1480134638429567 0.5061592515605308	0.112654
H	0.8650007417806351 0.2675747166049400 0.0494588822113125	0.096297
H	0.0580626704678337 0.2633377923645122 0.0390090497119363	0.104919
H	0.5610213999662331 0.2299932968682948 0.9668250639959938	0.135099
H	0.3708438919075157 0.2294950534533745 -0.0101433685916631	0.097366
H	0.2331112775127753 0.5591327513152884 0.9672892243160730	0.135367
H	0.2339470275676786 0.3687621481331710 -0.0096900933929261	0.097235
H	0.2680407402820107 0.8627572996281964 0.0502995052400869	0.095063
H	0.2654431205695754 0.0555731631812765 0.0392355142972442	0.104830
H	0.3620365776638902 0.7624453524022650 0.5480482798889755	0.096659
H	0.5551593541045847 0.7591128536401542 0.5372672359886177	0.105403
H	0.0581066882816430 0.7242876050678284 0.4676170665339104	0.134776
H	0.8678335742095641 0.7269638246371923 0.4919324034778844	0.097629
H	0.7632990017122414 0.3642220996627149 0.5479233442645723	0.096548
H	0.7577296331655151 0.5575750957940748 0.5374273214658168	0.105394
H	0.7249580037847667 0.0595085199296848 0.4663189785882449	0.134573
H	0.7251108655505564 0.8695584136906634 0.4908578636170442	0.097667
H	0.1448122091829362 0.7547497410151853 0.9594683601515169	0.095265
H	0.9468267838968064 0.7629331293866137 0.9638254102389544	0.117606
H	0.4567246361250664 0.7763406592018343 0.0369693902702686	0.134861
H	0.6465787460554931 0.7806747794620548 0.0058926472690116	0.113927
H	0.7765386243748019 0.4581146857094879 0.0367685874882684	0.134373
H	0.7793744383237062 0.6483920647166443 0.0062789005775936	0.113815
H	0.7545664443632716 0.1469009093377671 0.9580379639961516	0.094174
H	0.7604966428447651 0.9491843606335724 0.9625629890620928	0.117686
N	0.7921236504864280 0.2643314513429361 0.3149132087551085	-0.101229
N	0.2632368609967582 0.7905511295334222 0.3153251114892544	-0.100885
N	0.7243852153829977 0.2440148539350451 0.1910424532021918	-0.104385
N	0.2441473972668675 0.7226933852821703 0.1913142756566528	-0.105087
N	0.2216434582914682 0.7417321079480963 0.6917355896838188	-0.105208
N	0.7431645636850933 0.2233954542876512 0.6908399134161306	-0.104792
N	0.2893632450118614 0.7646938033943032 0.8150683141754407	-0.101581
N	0.7655993541551853 0.2910123220363296 0.8144675535622038	-0.103281
N	0.4048474954384412 0.2448693726323913 0.2275046571601147	-0.172740
N	0.1099387088897498 0.2667043245643009 0.2715977471589769	-0.174462
N	0.2468128622010105 0.4028264482601134 0.2275229668555572	-0.174210
N	0.2682098393008349 0.1080756719040045 0.2717120612192437	-0.174174
N	0.6069659553583743 0.7667949715833754 0.7708653153764958	-0.172777
N	0.9021772701322658 0.7464886912631322 0.7301363632522927	-0.172971
N	0.7655056003922525 0.6090903057658178 0.7711312828559418	-0.172744
N	0.7443537340982015 0.9041715347844881 0.7289442521054339	-0.172681
F	0.2901917724881274 0.1498205483929589 0.7611274495630751	-0.444699
F	0.1589916443303246 0.2880839912500138 0.7594431098212217	-0.443656
F	0.1114598661725773 0.1122285740491655 0.6985569324783687	-0.461324
F	0.6491257483163398 0.7909966807521616 0.2591643818147640	-0.444546
F	0.7890313245963551 0.6614251681451183 0.2593908029099786	-0.443231
F	0.6140968721523214 0.6117976726128225 0.1916222880760813	-0.461862
F	0.3047012954905279 0.3030039927889269 0.4885101646545059	-0.586436
F	0.1881742389723716 0.1874685438271825 0.9482907711786860	-0.455461
F	0.6852933756600177 0.6870815700947156 0.4436913571529301	-0.459286
F	0.8012435510596927 0.8041297629245849 0.9899192277814254	-0.584702
B	0.1863059880343985 0.1835118062293302 0.7872691337072886	1.030483
B	0.6835182591942877 0.6869727922661072 0.2838030006682057	1.031695
Co	0.2587653440692633 0.2567747231669449 0.2550776196957281	0.576230
Co	0.7558646045779397 0.7579200072175989 0.7561083682647656	0.571869
	  	
