#======================================================================

# CRYSTAL DATA

#----------------------------------------------------------------------

data_VESTA_phase_1


_pd_phase_name                         BFFIVE_1_Co
_cell_length_a                         10.99629
_cell_length_b                         10.99676
_cell_length_c                         8.80360
_cell_angle_alpha                      89.79575
_cell_angle_beta                       90.21161
_cell_angle_gamma                      89.95547
_symmetry_space_group_name_H-M         P 1
_symmetry_Int_Tables_number            1

loop_
_symmetry_equiv_pos_as_xyz
   x, y, z

loop_
   _atom_site_label
   _atom_site_fract_x
   _atom_site_fract_y
   _atom_site_fract_z
   _atom_site_charge
C	0.2617289609263651 0.4653449516370426 0.3789633406752233	0.090955
C	0.1352808007515334 0.4636896100911844 0.3724059647677308	-0.172760
C	0.7380361057154219 0.5330839410388873 0.3787512984323100	0.088440
C	0.8644443197202186 0.5346411478852771 0.3717198470750971	-0.171568
C	0.5347536118955363 0.2625859062613926 0.3799306541057955	0.090010
C	0.5362928687369528 0.1362009148882579 0.3728614379730124	-0.171395
C	0.4666008224820782 0.7390859106787255 0.3778204376781384	0.090855
C	0.4650740794387797 0.8655486423107907 0.3713603211081258	-0.175043
C	0.7434373204405998 0.4639219404966734 0.6289160493251039	0.084195
C	0.8697490267541527 0.4630961384135621 0.6292527290104898	-0.176231
C	0.2580116526347008 0.5380563407913386 0.6268519413808559	0.086138
C	0.1317761498866789 0.5386012381517066 0.6278698649915617	-0.176063
C	0.4620404726841611 0.2572870646950691 0.6278377951089542	0.084195
C	0.4614116747525597 0.1309874618727052 0.6282605671204990	-0.175629
C	0.5358096560401918 0.7425413599650138 0.6279382598275562	0.086491
C	0.5367414261087119 0.8687859092421687 0.6289158173322049	-0.176458
C	0.0674840659208390 0.5004958020244880 0.4986885468180930	0.096676
C	0.9331805216664593 0.4992464617982916 0.4989012361311750	0.096554
C	0.4994141122842628 0.0675588035680466 0.4989484273199871	0.096203
C	0.5005086561922951 0.9332641691649879 0.4987109927224924	0.097862
H	0.3201266658764693 0.4412397612023065 0.2833476390955587	0.120353
H	0.0902939360585005 0.4319817203777216 0.2693302342853027	0.121352
H	0.6788712434153228 0.5554448888042122 0.2825212318772879	0.120890
H	0.9085531739794198 0.5649445429466253 0.2676288311032568	0.119963
H	0.5586539186364932 0.3217621492524044 0.2845304378835595	0.120139
H	0.5677987433976135 0.0918806479769395 0.2695838005952410	0.119088
H	0.4438916689463650 0.6807904432342091 0.2813752690570926	0.120659
H	0.4345571598310078 0.9105382641788328 0.2674927938341710	0.121643
H	0.6917145732028747 0.4383043834796710 0.7292844530191321	0.103915
H	0.9181342327046078 0.4330265477052323 0.7309149817776516	0.120325
H	0.3109524759189288 0.5659346304947632 0.7255547589232154	0.103655
H	0.0838267508073406 0.5697808317933618 0.7286567215224985	0.120335
H	0.4340130762528311 0.3092589387208993 0.7269231177360227	0.104277
H	0.4300090261835931 0.0824380208844856 0.7288642624997811	0.120251
H	0.5610583747254663 0.6897026183407383 0.7279281445609255	0.102478
H	0.5666689962376024 0.9164151949582804 0.7307208913205718	0.120907
Co	0.5001472656481580 0.5003481607946473 0.5025006373199798	0.532361
B	0.4997581717681483 0.4980379360342269 -0.0633326976088928	1.055478
F	0.5018840835422427 0.4976534845226472 0.7683076438370361	-0.461268
F	0.4996598052435312 0.5011976601444372 0.2724372101252088	-0.582324
F	0.4122000648697021 0.4113858595396434 -0.0214597618893279	-0.466180
F	0.6180111578401467 0.4660970487368373 -0.0170447534863933	-0.463815
F	0.4673967544507691 0.6171019143108516 0.9775668875854728	-0.466525
N	0.3219353896692906 0.5016648883758862 0.5048915079664518	-0.175209
N	0.6786875651381286 0.4987372237548640 0.5058613150420065	-0.175894
N	0.4986186049016771 0.3219727299396887 0.5059831286650412	-0.174173
N	0.5012108337212531 0.6787458555199678 0.5047259444477457	-0.176108
	  	
