#======================================================================

# CRYSTAL DATA

#----------------------------------------------------------------------

data_VESTA_phase_1


_pd_phase_name                         BFFIVE_6_Cu_i
_cell_length_a                         17.93348
_cell_length_b                         17.55902
_cell_length_c                         16.27273
_cell_angle_alpha                      90.92010
_cell_angle_beta                       89.55563
_cell_angle_gamma                      89.93754
_symmetry_space_group_name_H-M         P 1
_symmetry_Int_Tables_number            1

loop_
_symmetry_equiv_pos_as_xyz
   x, y, z

loop_
   _atom_site_label
   _atom_site_fract_x
   _atom_site_fract_y
   _atom_site_fract_z
   _atom_site_charge
N	0.2401979279210926 0.1344756654098888 0.1309002435749949	-0.223000
N	0.2597376845107478 0.3643423554935614 0.1287681958435011	-0.222180
N	0.3741890165379496 0.2388428284356831 0.1411580700765128	-0.267649
N	0.1240116601237815 0.2609005057366700 0.1351588591996736	-0.264761
N	0.7580772327032522 0.6348286345224159 0.3718541372481547	-0.232438
N	0.7422415849913252 0.8654589994590762 0.3730979960252735	-0.231096
N	0.6298830244766164 0.7419962911994720 0.3734105520740645	-0.238370
N	0.8696507791025769 0.7573596088971546 0.3720259080452819	-0.239899
N	0.7617714397135799 0.8674332379678303 0.8725750619331517	-0.217252
N	0.7387106429981463 0.6329285793443111 0.8732275309280302	-0.218201
N	0.6259731672433430 0.7632079452186473 0.8747216839429507	-0.235337
N	0.8745590218561642 0.7368717674739709 0.8714254517578968	-0.234910
N	0.2399790882079773 0.3655154327626733 0.6288081576876968	-0.224667
N	0.2610643995371389 0.1353787189377595 0.6321479048449957	-0.224197
N	0.3763341492198710 0.2622233847209522 0.6407665683169190	-0.269172
N	0.1255044241732378 0.2374768692940070 0.6370996272389721	-0.266878
C	0.2072885881121069 0.0966354230487115 0.1924964718642908	0.098617
C	0.1995000557217450 0.0178392236011298 0.1904313496557654	-0.186945
C	0.2291565851581689 0.9757724726867141 0.1238991951377666	0.111320
C	0.2638755534572861 0.0161462608273170 0.0605733123169247	-0.180285
C	0.2672112619419592 0.0952514371445974 0.0653428063226557	0.105632
C	0.2245560599652531 0.8916896249340522 0.1215656969129386	0.061851
C	0.2889622961815641 0.8481497190994919 0.1183565469983324	-0.174348
C	0.2858196314708861 0.7676409634187532 0.1192991530730504	0.086182
C	0.1490928228668090 0.7767011428474431 0.1214900727537265	-0.125585
C	0.1539759006674344 0.8549471903449806 0.1243797632455584	-0.136983
C	0.2929025424516003 0.4036271830688638 0.1899866164813221	0.097447
C	0.3007493433075719 0.4823516740033444 0.1881498025484103	-0.187776
C	0.2710128747850447 0.5228345101780567 0.1223679575523603	0.111026
C	0.2364418773730133 0.4808639797482285 0.0593173516502662	-0.179912
C	0.2329904247339152 0.4018176342114474 0.0637006411618403	0.104969
C	0.2756213054026083 0.6068795711781582 0.1205612582214906	0.061180
C	0.2113058707879466 0.6503855799629734 0.1169693857356723	-0.174380
C	0.2143957220043146 0.7309434755401440 0.1186983119385836	0.084468
C	0.3510339905984505 0.7219506196589641 0.1224067852463560	-0.127206
C	0.3461129237175893 0.6437718715079379 0.1244519888912153	-0.135252
C	0.4127985075454666 0.2057307024464802 0.2011169387808089	0.100349
C	0.4897700153084636 0.1958844805433508 0.1967696831201825	-0.192235
C	0.5288059319068353 0.2244713071522609 0.1289772113739895	0.106958
C	0.4878960192248342 0.2591270646291877 0.0667647882777137	-0.183017
C	0.4107113004086111 0.2637571451765612 0.0743724755509686	0.102134
C	0.6108674482049006 0.2203367435288648 0.1243594143147545	0.063954
C	0.6517265481274325 0.2869261789493813 0.1192799493202629	-0.177509
C	0.7304909486840782 0.2855231617905116 0.1187870760209051	0.084475
C	0.7248702688009676 0.1456278575409838 0.1224930375919916	-0.127648
C	0.6482740822884743 0.1490383274529705 0.1268686888825732	-0.135794
C	0.0846842607418969 0.2947342602381897 0.1959956697763989	0.098527
C	0.0077708255776289 0.3042568701310981 0.1920924443413705	-0.193126
C	0.9695376680039960 0.2745823758790780 0.1240024899164604	0.107842
C	0.0111098960574149 0.2389905400626415 0.0610155790172539	-0.186300
C	0.0882922402692823 0.2347176461590939 0.0681905324425315	0.101830
C	0.8874843746576291 0.2785234116393516 0.1204916096785362	0.063171
C	0.8466245559470961 0.2118055167297411 0.1170140368282918	-0.176708
C	0.7678671677273203 0.2132670360947510 0.1186007342928051	0.085236
C	0.7735186720787695 0.3532740785218687 0.1208681559909738	-0.124930
C	0.8501326455448849 0.3499282018162286 0.1233166081739528	-0.137550
C	0.7962586128377152 0.5975642503954722 0.3119998713823145	0.099326
C	0.8046843410153161 0.5188736647707717 0.3113343600608083	-0.177235
C	0.7705975731996995 0.4761031541914278 0.3732582758789741	0.116309
C	0.7304050028023295 0.5157279854950935 0.4345934135387161	-0.176986
C	0.7262385870790649 0.5946685875837183 0.4324937815497020	0.102024
C	0.7758113073189444 0.3922914085423693 0.3740714445195772	0.060088
C	0.7114494349009833 0.3489472081010889 0.3778561751909988	-0.171624
C	0.7147123601527602 0.2685247055416183 0.3773680467908943	0.087179
C	0.8515405830668044 0.2774818714175450 0.3741945165697926	-0.119905
C	0.8465061092194800 0.3555760054015848 0.3708838162997024	-0.134280
C	0.7043372626817512 0.9016608111013829 0.3141502377382533	0.099551
C	0.6960826062463308 0.9803713914797172 0.3146981867250001	-0.179460
C	0.7301373966567856 0.0242612915376410 0.3765897071775480	0.116452
C	0.7701960163941105 0.9857308900177050 0.4368794179614014	-0.179521
C	0.7741198976710024 0.9067088661677449 0.4338160941196093	0.100568
C	0.7251430278112245 0.1081069556170935 0.3773381623733282	0.060206
C	0.7894925096935334 0.1515682336661639 0.3799656102896218	-0.170652
C	0.7862696949316930 0.2319519515872155 0.3776920388583772	0.087118
C	0.6494429481597186 0.2229202284831253 0.3753319246044182	-0.121257
C	0.6544927742597724 0.1447226172609436 0.3738266997346998	-0.134412
C	0.5935750968532845 0.7050257643606165 0.3125744164305366	0.098940
C	0.5161829986596806 0.6982337277893985 0.3115603429806680	-0.183061
C	0.4730172845386077 0.7328426864356594 0.3741762409099327	0.114182
C	0.5116496460356131 0.7721940810924479 0.4363590911497888	-0.179909
C	0.5893489342338022 0.7744774433404789 0.4345830833095957	0.099546
C	0.3904003683289835 0.7272980937730457 0.3747390547403167	0.060927
C	0.3459410326469424 0.7919725710172344 0.3779870628630974	-0.171550
C	0.2670056065818613 0.7868506799505989 0.3763915836408351	0.086894
C	0.2790078515189798 0.6476859403451202 0.3733888276566798	-0.122688
C	0.3555382428451631 0.6544786443622145 0.3711936958681269	-0.134088
C	0.9067685762016917 0.7938920989473877 0.3122004755393422	0.100905
C	0.9841454503172610 0.8010038512265234 0.3114659615903518	-0.181312
C	0.0264994607318935 0.7670504118400361 0.3732742987500383	0.114801
C	0.9870648773306282 0.7279213657131963 0.4343618662079550	-0.178953
C	0.9094475564845141 0.7253824442284389 0.4322753079231127	0.100499
C	0.1090754514796184 0.7727109467418958 0.3740959390180064	0.060699
C	0.1535012834766830 0.7081231570076084 0.3772917916083850	-0.172494
C	0.2324580332414030 0.7131944108234642 0.3761831179993174	0.085397
C	0.2204957875761483 0.8522858535478902 0.3734565207946759	-0.122724
C	0.1440056811562928 0.8454402784075696 0.3708721219646534	-0.136056
C	0.7908406804610788 0.9030773922450843 0.8074609386415462	0.098670
C	0.7993058668731855 0.9818401035362387 0.8072637962373373	-0.191779
C	0.7733199213653101 0.0248785634769288 0.8748612944164241	0.101896
C	0.7416450311488985 0.9865325564344166 0.9413814818825017	-0.189344
C	0.7383889648983887 0.9074087064411124 0.9388872701635731	0.097737
C	0.7774443696658505 0.1087471842296495 0.8755820639371542	0.069164
C	0.7124505494133575 0.1511942001241589 0.8788994998188205	-0.179255
C	0.7144203498948887 0.2315734923933955 0.8776233997247360	0.084048
C	0.8514797110488227 0.2243595728254336 0.8743402174525995	-0.129231
C	0.8475908545722124 0.1460927121906185 0.8721741046202163	-0.138987
C	0.7098061955667746 0.5956679466911469 0.8083264350076167	0.099313
C	0.7011087655278068 0.5169420684645450 0.8078430259205769	-0.191225
C	0.7267806909486614 0.4756078507752313 0.8749435719848581	0.102585
C	0.7583299478224900 0.5155821513526364 0.9412333304969004	-0.188431
C	0.7617855007330684 0.5946247445115308 0.9389980482207839	0.102457
C	0.7225511998133928 0.3917743787976114 0.8755018749379511	0.068389
C	0.7875072112041048 0.3493994791207322 0.8781906956798663	-0.179649
C	0.7855057930644498 0.2689897414012588 0.8771942140845084	0.084109
C	0.6484660810016166 0.2761566347845770 0.8752056624558633	-0.128430
C	0.6524162181959353 0.3543569869109045 0.8728227212780726	-0.139650
C	0.5903228844323470 0.7925104913792782 0.8104214729480648	0.097137
C	0.5130235275314902 0.8005125774661012 0.8098010696139603	-0.194272
C	0.4712718360145090 0.7734631080616416 0.8764175137807745	0.098520
C	0.5095175863857125 0.7412080689282236 0.9421596208351150	-0.192083
C	0.5871600323808910 0.7387433414781873 0.9397656271963575	0.099812
C	0.3889888636165537 0.7774496512173212 0.8767098630427094	0.070619
C	0.3473587639380462 0.7112291833382371 0.8795007576373303	-0.179280
C	0.2685723737050518 0.7132683789241711 0.8774799781487825	0.081700
C	0.2754363426776603 0.8530804394205681 0.8746493805091351	-0.131507
C	0.3520995625582665 0.8490042150032161 0.8731572254236148	-0.139991
C	0.9109453175228359 0.7063297973792870 0.8067430641766855	0.100732
C	0.9882059700135642 0.6977603295741883 0.8059479225654937	-0.195595
C	0.0291223302745714 0.7255847498592016 0.8730600532781061	0.101673
C	0.9901016740992429 0.7587297502502117 0.9394904792748588	-0.190253
C	0.9125516757815418 0.7616684537834468 0.9371251227805703	0.100042
C	0.1113841840100880 0.7215386066640587 0.8738723136611570	0.067410
C	0.1528897692083384 0.7878856233134589 0.8771895164838182	-0.179699
C	0.2317004333325611 0.7858095010719780 0.8768999699127106	0.085278
C	0.2249390091805343 0.6459197148002567 0.8744768269292006	-0.129517
C	0.1483397962347519 0.6498989462303706 0.8713567461862959	-0.139355
C	0.2060099053513942 0.4052506134033577 0.6897823938103587	0.097925
C	0.1985243405235156 0.4840290680414031 0.6876667915649135	-0.183862
C	0.2295720251553785 0.5240037854159956 0.6218428123144344	0.107868
C	0.2653295401661559 0.4816216987301581 0.5592716416932019	-0.182136
C	0.2682848585652510 0.4026294227393036 0.5638859310228870	0.104945
C	0.2250536535991242 0.6079964362038589 0.6194986765265407	0.066967
C	0.2893996196320295 0.6513609356442770 0.6160698141458203	-0.175812
C	0.2862184588971836 0.7319031646193359 0.6180925624371600	0.083288
C	0.1494553313346856 0.7231487690472934 0.6210756012626215	-0.125714
C	0.1544625519454385 0.6449646121573410 0.6230716888853652	-0.139108
C	0.2941583653302273 0.0978268457997317 0.6932796195242776	0.102044
C	0.3014797407045057 0.0189284382492339 0.6918057683559604	-0.185008
C	0.2712178644784416 0.9766869383857708 0.6262591219662826	0.110732
C	0.2362059824126903 0.0169034882744120 0.5635389275481872	-0.182470
C	0.2333977494093973 0.0960025077069848 0.5676372940913633	0.105425
C	0.2758934810235213 0.8926471475095522 0.6233705063487526	0.063617
C	0.2115937326337101 0.8492402665005382 0.6189180355317937	-0.175556
C	0.2147482570120870 0.7687263739393164 0.6186495214569236	0.086217
C	0.3514406850683131 0.7774932816001251 0.6220004169528919	-0.124065
C	0.3464456733081090 0.8557203699979290 0.6261392281068024	-0.138029
C	0.4150446264931619 0.2973184620435568 0.7004402752333269	0.104178
C	0.4919214602888782 0.3072884409242048 0.6955791838464794	-0.189940
C	0.5306797612526313 0.2765128822699930 0.6277076977679562	0.105144
C	0.4897290266485056 0.2397130243488744 0.5658039902477644	-0.188442
C	0.4126258375950794 0.2351911963597873 0.5739038956588930	0.098528
C	0.6126900936902530 0.2801689176431942 0.6232338812538218	0.067834
C	0.6532846504565495 0.2131459301160952 0.6193102703214455	-0.179737
C	0.7320188011099301 0.2140389688438247 0.6196699680420673	0.086687
C	0.7269464319697722 0.3541417981367163 0.6222919326893879	-0.126666
C	0.6503049412330183 0.3513061958269356 0.6257661634995191	-0.138179
C	0.0865368919052639 0.2031830072442121 0.6966944648179385	0.100104
C	0.0096068043406270 0.1936274555422225 0.6928325375975363	-0.189203
C	0.9710437192461985 0.2236940506493610 0.6261084960696133	0.105053
C	0.0123261678130290 0.2594531499329437 0.5642706010602935	-0.187611
C	0.0894931490763959 0.2638345508500240 0.5712784273704851	0.098036
C	0.8890285942025868 0.2200485263740311 0.6225528381505707	0.063461
C	0.8484285493043331 0.2869011958252145 0.6183036575855464	-0.176477
C	0.7696703721975436 0.2860690930904469 0.6192016666662568	0.083818
C	0.7747144557043778 0.1460807314249641 0.6232466989320797	-0.127181
C	0.8513197319356642 0.1490202974686020 0.6261837476697237	-0.139202
H	0.1883290782134795 0.1309852736201164 0.2449628550372599	0.101191
H	0.1724737668051078 0.9890548759948632 0.2415201152941655	0.111447
H	0.2865860004843887 0.9859545384815582 0.0069206080915025	0.113944
H	0.2895890922469363 0.1305163380498700 0.0162767946507264	0.115111
H	0.3433356350783642 0.8760448213536473 0.1174261341325494	0.107974
H	0.0947754568569009 0.7486817291694186 0.1218594445634224	0.104635
H	0.1035820749597279 0.8898358783560167 0.1268815126629796	0.101432
H	0.3125388446467038 0.3704225436413024 0.2416393980806631	0.100038
H	0.3279716691163316 0.5123792807127097 0.2388101758426977	0.110889
H	0.2139161964475330 0.5096050643938991 0.0060165379314482	0.115621
H	0.2107441120712296 0.3658240302481343 0.0143122591283271	0.115234
H	0.1569373457318167 0.6224952768677685 0.1152237670147414	0.108118
H	0.4052965382998577 0.7500324814824856 0.1236954300657703	0.103664
H	0.3964845726157558 0.6090110276100120 0.1271856920879597	0.101371
H	0.3803959494771220 0.1875226654595760 0.2544421651726306	0.091555
H	0.5196341779676400 0.1688379883460235 0.2466622171248523	0.105730
H	0.5162725139018111 0.2808348845516595 0.0124451543452511	0.112209
H	0.3754814197505997 0.2861902382486096 0.0257893627652672	0.102751
H	0.6229668654881536 0.3417351138875751 0.1183452282522496	0.107367
H	0.7537778321010676 0.0908862294253916 0.1227693275142256	0.104204
H	0.6152656202020199 0.0970006661127060 0.1303165689399649	0.100796
H	0.1164196334766010 0.3131941999763205 0.2497706063087592	0.092939
H	0.9773017862734397 0.3317063970711102 0.2427281427011964	0.105477
H	0.9832227337925674 0.2161171144623757 0.0066841432081466	0.111759
H	0.1240803193022534 0.2108620849826451 0.0194486517191173	0.102448
H	0.8754105058880521 0.1569657631193356 0.1159461169111894	0.107254
H	0.7446607258565445 0.4080477461099816 0.1214382372824198	0.103593
H	0.8832547016349003 0.4020194626633278 0.1257054224868872	0.100013
H	0.8193823644373955 0.6327008993674997 0.2633890377852977	0.103301
H	0.8357581391115484 0.4907321276314727 0.2616319131822860	0.117399
H	0.7042256299536953 0.4851377691090150 0.4849172004143019	0.119073
H	0.6985852302760021 0.6276353205122437 0.4811498563532876	0.103934
H	0.6570421252681972 0.3769073206745654 0.3789079916937992	0.108552
H	0.9058944310308319 0.2494190441140783 0.3735706884016528	0.105212
H	0.8968296016333709 0.3903572767916231 0.3680627549145031	0.102187
H	0.6821063489357846 0.8660431442611418 0.2646163785629181	0.103637
H	0.6654647082850976 0.0076210518359464 0.2655414528712085	0.119085
H	0.7966714852984393 0.0172857698802114 0.4869454620882113	0.117001
H	0.8022447312684028 0.8745098669546308 0.4812889191049073	0.103432
H	0.8438800615853224 0.1236502299949008 0.3812239544778262	0.107653
H	0.5951458261168787 0.2510390273905192 0.3743806682204297	0.106383
H	0.6042034578391662 0.1098392052590882 0.3719140169727835	0.100677
H	0.6282513713618556 0.6814075600060006 0.2629327402807357	0.102444
H	0.4894567705033902 0.6676425224598926 0.2609402637560968	0.117052
H	0.4813495811048756 0.7991954316825152 0.4873571030376875	0.116729
H	0.6208289958031612 0.8014568703200968 0.4842691693517507	0.101668
H	0.3716994940384838 0.8482921635468157 0.3794616802928008	0.108780
H	0.2530561706285708 0.5914612910322707 0.3723784862547570	0.104484
H	0.3905736840654967 0.6036114109567342 0.3686793790249545	0.100881
H	0.8728129493767338 0.8166529079852026 0.2629281309253521	0.102322
H	0.0115072044762842 0.8311785989045611 0.2615491346126219	0.117899
H	0.0167068537583776 0.7012431993777847 0.4846172911145488	0.117323
H	0.8772155303209920 0.6979910966930840 0.4806365889818207	0.102017
H	0.1277372780494648 0.6518262683664514 0.3783509756101223	0.109269
H	0.2464792884193297 0.9084786938746570 0.3726316870507025	0.105512
H	0.1090515184383113 0.8962488626293805 0.3682988313484042	0.101517
H	0.8054641488748915 0.8660449112486271 0.7551362812729744	0.109525
H	0.8235174720612196 0.0100006770326984 0.7541370641313818	0.106671
H	0.7210271585423117 0.0184073726792584 0.9949595117593161	0.105493
H	0.7183650758199724 0.8731791496524676 0.9900783051197853	0.110503
H	0.6585767952301285 0.1223289014414750 0.8804376512380201	0.107010
H	0.9053007493977738 0.2533402249003840 0.8731646978530763	0.102079
H	0.8982588325319237 0.1116241244910174 0.8696108946003348	0.099836
H	0.6959215876425208 0.6315834642883486 0.7563616071880657	0.108887
H	0.6770718240929607 0.4875219922531042 0.7548338161898761	0.106032
H	0.7786502443510397 0.4850083813425844 0.9944239748073498	0.105355
H	0.7818126040605486 0.6302525385797023 0.9898860123702659	0.108570
H	0.8413837961474860 0.3783008576684082 0.8791082220595124	0.107040
H	0.5946020442632168 0.2472423498001787 0.8745364932831818	0.102710
H	0.6017813424630080 0.3887994598112319 0.8706482330830617	0.100621
H	0.6259229907719732 0.8078525649289923 0.7583612204946838	0.107778
H	0.4850874256170754 0.8250954612125259 0.7571243294928359	0.105659
H	0.4787039735239883 0.7197097198894836 0.9949622220570985	0.102980
H	0.6207595010340915 0.7176392399397982 0.9904861028822886	0.102879
H	0.3756368355994786 0.6561696311609907 0.8811037473035147	0.106827
H	0.2470518145874308 0.9080913653445022 0.8734373962636096	0.102091
H	0.3857083603346374 0.9007261436155484 0.8709284614473011	0.099371
H	0.8757680952036290 0.6900247316036151 0.7547425244193672	0.101514
H	0.0167786473574087 0.6720398874730257 0.7529750572506505	0.103894
H	0.0202474035910918 0.7804866257170174 0.9928758248848640	0.103586
H	0.8781985025585820 0.7827212343447034 0.9885195643100628	0.104564
H	0.1245572034165506 0.8429727862818235 0.8780836893196330	0.107200
H	0.2533110968434051 0.5908651952967616 0.8740834712333414	0.102391
H	0.1148293270838548 0.5980717941191748 0.8687752318714879	0.100770
H	0.1858314616957068 0.3724790322532366 0.7417766076653254	0.102490
H	0.1708100087210275 0.5144723576893763 0.7382399991899005	0.114594
H	0.2892362463213878 0.5101418635912188 0.5062438936663767	0.111514
H	0.2916625367721081 0.3660632339284514 0.5151991715097389	0.114015
H	0.3437885368730358 0.6233640316312147 0.6149434061773030	0.107834
H	0.0951013547699407 0.7512566644696557 0.6227332618350345	0.104825
H	0.1041616860877468 0.6101808974566343 0.6262959416746545	0.100779
H	0.3145944785472128 0.1326498057246051 0.7444064386314782	0.101000
H	0.3287092263610157 0.9902993456145394 0.7424381695060027	0.116221
H	0.2129783234967549 0.9865690381180613 0.5106951269544551	0.111561
H	0.2111526630736625 0.1308052342151338 0.5185071714394223	0.113330
H	0.1572147897310237 0.8772394802068534 0.6184519014399196	0.108472
H	0.4057650905335190 0.7493692768279289 0.6229293048651304	0.105018
H	0.3967576812629459 0.8904663473114524 0.6302595112266620	0.101249
H	0.3829498418507632 0.3162492295311319 0.7542994519631190	0.093316
H	0.5220115282578842 0.3357925741169791 0.7452432244022084	0.109194
H	0.5179380961449497 0.2160675161077058 0.5115241317142301	0.107305
H	0.3769531909191718 0.2109235355422636 0.5259801645661938	0.101622
H	0.6242479246694539 0.1585256035260824 0.6191807072694557	0.107341
H	0.7560135467653040 0.4087297594238429 0.6233254698350307	0.105258
H	0.6173744732110276 0.4035799929745838 0.6294529919275039	0.100087
H	0.1186076983731480 0.1839372247283620 0.7493482203003614	0.094021
H	0.9793371694226237 0.1658195049589853 0.7423675896641425	0.109992
H	0.9843863024112693 0.2823977355624309 0.5107430853181053	0.108840
H	0.1248584148921052 0.2876968602315682 0.5230400943364295	0.102508
H	0.8774084640861731 0.3415278415434554 0.6175127756309117	0.106861
H	0.7455414884521867 0.0915911260666049 0.6251421050941440	0.104255
H	0.8841387037371987 0.0968467065200506 0.6302670830432796	0.101788
F	0.2532385713063872 0.1770834536515943 0.3678885932375921	-0.462296
F	0.1803269315562061 0.2879126552378152 0.3803022344534268	-0.461661
F	0.3104168451216456 0.2974248672084572 0.3683944997469902	-0.461500
F	0.7057882213195991 0.6855610048861459 0.1253677753145346	-0.464076
F	0.7150820483376841 0.8192768045752166 0.1294475207660528	-0.459157
F	0.8239035773368365 0.7439795330409362 0.1294927382606271	-0.464048
F	0.6801689784045073 0.7858438857314987 0.6176789959279850	-0.463102
F	0.7544416594112083 0.6750376993165517 0.6142801903324410	-0.462290
F	0.8110316599112054 0.7962235038927852 0.6172001156248059	-0.464692
F	0.2056737443786545 0.1865116766955745 0.8676259704819134	-0.463649
F	0.3232996275082326 0.2443985118084773 0.8684817328544930	-0.460368
F	0.2146358617809384 0.3196247331003109 0.8763032665394002	-0.458320
F	0.2394728803471892 0.2571590955258414 0.2590704186975963	-0.468828
F	0.2564927172559636 0.2468389436231837 0.5160878805431519	-0.557836
F	0.7457161597150092 0.7483968961228595 0.2406796741769889	-0.486713
F	0.7520742492420196 0.7523113074265743 -0.0138921407818393	-0.565121
F	0.7489232548508242 0.7479461498933286 0.7582741410426678	-0.568690
F	0.7489089592508695 0.7529978754615118 0.5037316083583917	-0.487347
F	0.2461575648731313 0.2558962938487838 0.7575902564946237	-0.468216
F	0.2531364377277988 0.2461184916941211 0.0149862613256806	-0.561180
Cu	0.2492922914054148 0.2495384340652026 0.1304215498241724	0.758678
Cu	0.7498441427317843 0.7501327108346668 0.3721112743655581	0.669329
Cu	0.7502918077566457 0.7501787312625269 0.8720292474987287	0.786922
Cu	0.2509025073121168 0.2504504520688350 0.6307952671356245	0.764955
B	0.2463962074385314 0.2546731802013382 0.3496543523096436	1.072691
B	0.7478066266964623 0.7494137039178569 0.1499396761260490	1.070780
B	0.7486086041311832 0.7523642610518211 0.5946076843321978	1.073720
B	0.2476629177771097 0.2512906404455355 0.8483819631525554	1.072358
	  	
