#======================================================================

# CRYSTAL DATA

#----------------------------------------------------------------------

data_VESTA_phase_1


_pd_phase_name                         BFFIVE_2_Ni_i
_cell_length_a                         13.76545
_cell_length_b                         13.91931
_cell_length_c                         8.49399
_cell_angle_alpha                      89.74319
_cell_angle_beta                       90.05177
_cell_angle_gamma                      89.63654
_symmetry_space_group_name_H-M         P 1
_symmetry_Int_Tables_number            1

loop_
_symmetry_equiv_pos_as_xyz
   x, y, z

loop_
   _atom_site_label
   _atom_site_fract_x
   _atom_site_fract_y
   _atom_site_fract_z
   _atom_site_charge
C	0.0000367653778071 0.2997591487160251 0.3575757983463786	-0.165410
C	-0.0002994714262553 0.2000372305820073 0.3688772392621508	0.097981
C	0.4996561439521403 0.8079357203172938 0.8539641219643098	-0.165371
C	0.4989640140326960 0.7082646673977339 0.8513383351769385	0.097860
C	0.0002577195134966 0.7015939755156458 0.3591259680128631	-0.165407
C	0.0001911111906173 0.8012137011633070 0.3704498716541852	0.097616
C	0.4996200009909616 0.1931512615166652 0.8508979594213159	-0.167609
C	0.4991246811464214 0.2928894773848026 0.8482234616900319	0.100500
C	0.7027375749927844 0.0001560982290573 0.3583198109143914	-0.163200
C	0.8032848809059504 -0.0000043874810256 0.3701040999657109	0.095000
C	0.1981679702920502 0.4994033023831822 0.8636080974276972	-0.167417
C	0.2990211291566059 0.4991260656642235 0.8653775975122540	0.095811
C	0.2979602214361458 0.0000334180348050 0.3569832001472497	-0.163013
C	0.1973868002936857 -0.0003748431841524 0.3684385004834175	0.096885
C	0.8022361235387607 0.4995499161986300 0.8647573331440321	-0.165159
C	0.7013930858796539 0.4991889127746820 0.8660507153157394	0.092260
C	-0.0001075347641653 0.3054434883858156 0.6414785911393058	-0.165443
C	-0.0005802696487340 0.2056942321684300 0.6419128702881712	0.091437
C	0.5001909242455664 0.7987161273175443 0.1383939442480644	-0.161823
C	0.4996275116812465 0.6992968116138931 0.1248223978531294	0.092573
C	-0.0000920449812842 0.6943480691071922 0.6431250833397202	-0.169924
C	-0.0004167510825627 0.7941047174951563 0.6433967528479778	0.097549
C	0.5005300507332507 0.2010969764222235 0.1354245039784555	-0.162565
C	0.5002709877170227 0.3004830285823020 0.1215044701422488	0.093252
C	0.3049327961646417 -0.0001187588567867 0.6414389806746906	-0.166689
C	0.2042568164428970 -0.0006758235878997 0.6420776430938426	0.093865
C	0.7980071770887409 0.5002012781951626 0.1487033075471731	-0.162699
C	0.6971264609939010 0.4998814199393060 0.1398181978936889	0.096861
C	0.6958241945744963 -0.0001381673568223 0.6428286807995232	-0.168627
C	0.7965224261882755 -0.0005931782439857 0.6436082714182422	0.096639
C	0.2023916116437959 0.5004250241768621 0.1476347897173478	-0.163173
C	0.3032468848941076 0.5002464388011074 0.1389917272369152	0.099146
C	0.0006116618845368 0.4564569522348409 0.4925299532033564	-0.095006
C	0.0002733335981299 0.3547592612389461 0.4963902874388053	0.160048
C	0.5008641457081662 0.9564182895681103 0.0055386911593185	-0.096626
C	0.5003659946095613 0.8550651220741964 0.0003189048404319	0.160760
C	0.0006090795522972 0.5441632163703236 0.4934319683697000	-0.100168
C	0.0003677652967649 0.6458344976905691 0.4979491897309020	0.163706
C	0.5008691370120705 0.0439881855830447 0.0039993987519689	-0.098991
C	0.5004693075429841 0.1453633322301875 -0.0025426425045370	0.161725
C	0.5446226246537016 0.0007743261998509 0.4921757486818313	-0.100471
C	0.6470102751618637 0.0003748950442345 0.4971629059656471	0.162154
C	0.0445550552805603 0.5004363694539207 0.0101907010164251	-0.099429
C	0.1474261193537098 0.5002165786942424 0.0075736400613723	0.163051
C	0.4561218062505605 0.0007608673371789 0.4915647924856428	-0.096224
C	0.3537133061946639 0.0003409684301335 0.4959388057531426	0.161160
C	0.9558601695546666 0.5004206710778751 0.0110755001249956	-0.094877
C	0.8529918462752544 0.5001602718885929 0.0088257917829157	0.159850
H	0.0000452302511992 0.3348103341651602 0.2426729991139884	0.118357
H	-0.0006270773233045 0.1534958261258164 0.2654991299902884	0.113448
H	0.4995167179826035 0.8489473753740424 0.7444347471413026	0.115592
H	0.4977392540324629 0.6691719043487963 0.7404149272944984	0.098962
H	0.0001835161302697 0.6671092745654571 0.2442358356277771	0.119298
H	0.0000129939744595 0.8485546211255097 0.2673527867353131	0.113505
H	0.4992231142767966 0.1526115308519002 0.7415241964915235	0.117002
H	0.4975297885152949 0.3327524772319067 0.7374644395679862	0.097933
H	0.6676192683349261 0.0000682985557200 0.2433553983086303	0.118834
H	0.8513978451206481 -0.0001770333496805 0.2677252138498366	0.115717
H	0.1592216578298394 0.4987943031491084 0.7519329577363548	0.117980
H	0.3405906411987489 0.4977433888849420 0.7564438594978162	0.098873
H	0.3330472916424854 0.0000572876465146 0.2420884094921261	0.118394
H	0.1495351409708050 -0.0006739850209636 0.2656324798072691	0.115182
H	0.8412070804837376 0.4992164628493639 0.7531873767600977	0.117998
H	0.6602510199489707 0.4981860135499003 0.7565394403255180	0.099873
H	-0.0001738106375413 0.3446789652555751 0.7521844324552375	0.116410
H	-0.0015993698930931 0.1658243994463446 0.7525488095186711	0.097791
H	0.5003999004050035 0.8321837979125589 0.2540953856460771	0.119862
H	0.4993345373178231 0.6515508944303440 0.2274481936933060	0.112800
H	-0.0003537567325707 0.6544604193996750 0.7537355253921671	0.117120
H	-0.0016977323169920 0.8337529094365477 0.7537032765107282	0.096314
H	0.5006772438571445 0.1670127440649855 0.2511447408912866	0.119089
H	0.5001945580567627 0.3482539431150387 0.2235514129871875	0.113654
H	0.3451347645948054 -0.0001716286094346 0.7519594560226529	0.116826
H	0.1641859248789305 -0.0017677366582485 0.7525218978335239	0.097222
H	0.8338379983572899 0.5003512343766072 0.2630840966662882	0.118750
H	0.6505131914290975 0.4995656938097038 0.2439644424833221	0.117117
H	0.6555532811482933 -0.0003189035000014 0.7531533565002235	0.117449
H	0.8368620392739294 -0.0019754998879129 0.7539103566659122	0.096772
H	0.1664262120284864 0.5005420227535051 0.2618090922363570	0.118360
H	0.3501768510845031 0.5000159422855006 0.2429238202675545	0.116515
Ni	0.0002900877468061 0.0001691763022948 0.5048918499000585	0.719332
Ni	0.5001589107877081 0.5000708202841323 0.0035691607187427	0.724652
B	-0.0006392085838522 -0.0006963968104327 -0.0681684526849177	1.051955
B	0.4999021917745632 0.5009814501525658 0.5598974713160277	1.056660
N	-0.0004639122939176 0.1535254931741369 0.5086369878248673	-0.225159
N	0.4991687632685186 0.6549196359895428 -0.0161985687299884	-0.231055
N	0.0000519827745748 0.8469632726974662 0.5102017501056965	-0.224360
N	0.4997973862370028 0.3455703815411675 -0.0194914805134229	-0.230409
N	0.8493840108571037 -0.0001656902145075 0.5103532489473757	-0.221812
N	0.3509459444642575 0.4998537227574655 0.0000773366813080	-0.223495
N	0.1513428268517746 -0.0005748323121144 0.5086287371450819	-0.224830
N	0.6494465063609385 0.4995414796857969 0.0006780283383652	-0.224620
F	0.0020547992599976 0.0006248035230176 0.7559893553110588	-0.446753
F	0.4999944287178238 0.4980666381543750 0.2292839325461941	-0.566818
F	-0.0002819659459034 0.0003608055932936 0.2803119191305533	-0.572719
F	0.5008612376527817 0.5040326928641905 0.7336392100586707	-0.455483
F	0.5947106372257243 0.4749890782451454 0.5150499252057288	-0.450134
F	0.4732329856813228 0.5938834995916994 0.5103052057300730	-0.451305
F	0.4305447743094359 0.4314340728321099 0.5200705180736199	-0.456600
F	0.9290131250053592 0.9311322539657024 -0.0279725670956429	-0.450548
F	0.9735896667206886 0.0925581262753832 -0.0230900516989973	-0.444280
F	0.0930278808112823 0.9725630465346607 -0.0202818943403316	-0.443586
	  	
