#======================================================================

# CRYSTAL DATA

#----------------------------------------------------------------------

data_VESTA_phase_1


_pd_phase_name                         BFFIVE_6_Ni_i
_cell_length_a                         17.66837
_cell_length_b                         17.66850
_cell_length_c                         16.22195
_cell_angle_alpha                      89.99339
_cell_angle_beta                       90.00509
_cell_angle_gamma                      89.94879
_symmetry_space_group_name_H-M         P 1
_symmetry_Int_Tables_number            1

loop_
_symmetry_equiv_pos_as_xyz
   x, y, z

loop_
   _atom_site_label
   _atom_site_fract_x
   _atom_site_fract_y
   _atom_site_fract_z
   _atom_site_charge
N	0.2379485000038581 0.1318429753763356 0.1352828018272816	-0.230164
N	0.2624927373276117 0.3675804689171771 0.1333921643059113	-0.229186
N	0.3676592987014249 0.2375839011663782 0.1361359491873223	-0.230685
N	0.1318858280810520 0.2624205259099596 0.1324730001387562	-0.227839
N	0.7624171458308761 0.6323319402044554 0.3638029330294253	-0.230600
N	0.7375538119658566 0.8681018756832205 0.3675609135152849	-0.227903
N	0.6324129698822812 0.7375139427039851 0.3665773253973583	-0.228829
N	0.8681495962679338 0.7620824018693854 0.3647095705621741	-0.230799
N	0.7625033382873387 0.8675547041571003 0.8666158284199520	-0.228445
N	0.7379349585116775 0.6318179259066765 0.8646884674041087	-0.230310
N	0.6318906384132863 0.7624152088021000 0.8675258466903311	-0.227649
N	0.8676673689999206 0.7375603002108808 0.8638658292197567	-0.230579
N	0.2375754463359420 0.3680943051447111 0.6324451706838499	-0.227636
N	0.2624192843846717 0.1323224789853494 0.6361802874823719	-0.230624
N	0.3681585645640283 0.2620502476729401 0.6352898167540185	-0.230161
N	0.1324224606831405 0.2374997641303636 0.6334041550198376	-0.229036
C	0.2022894915438958 0.0925731818345181 0.1945764141681178	0.098035
C	0.1944817086404163 0.0143255718538130 0.1913514233241506	-0.189395
C	0.2274049713788278 0.9742325786816433 0.1259403476551270	0.108824
C	0.2652598335960146 0.0158492890230025 0.0650426630085273	-0.184064
C	0.2680030497697209 0.0943005700922561 0.0709194257585478	0.102704
C	0.2231042847972464 0.8909117913961152 0.1222565641900703	0.063639
C	0.2886899696110150 0.8481645897882281 0.1183759472380689	-0.174350
C	0.2860644152920644 0.7681707878345764 0.1189280849292095	0.084466
C	0.1471126892948332 0.7762672163104967 0.1214427113607166	-0.125748
C	0.1516886683933662 0.8539815354992047 0.1246714733265983	-0.137254
C	0.2974247290308842 0.4065639750276868 0.1934928630543205	0.095165
C	0.3049861304479847 0.4848758177369935 0.1908403485171724	-0.188670
C	0.2726145429901999 0.5252169690946693 0.1252507965983802	0.108209
C	0.2358761009383386 0.4838044643462125 0.0633697860217360	-0.185114
C	0.2333583310387055 0.4052475442033804 0.0686090361004179	0.100944
C	0.2767182354863275 0.6085813045158709 0.1221298142511383	0.063500
C	0.2111327998753477 0.6512992622865555 0.1179565925226139	-0.175130
C	0.2137114788010901 0.7313043569898132 0.1186825289047794	0.086043
C	0.3526701013981146 0.7232585891442235 0.1221513711787768	-0.124338
C	0.3481126633985633 0.6455432469266725 0.1252227868830122	-0.137387
C	0.4067350785730824 0.2021495880255705 0.1957899317624607	0.097628
C	0.4850482223563559 0.1943830209916527 0.1930441180880212	-0.189460
C	0.5253444019547795 0.2270821988725006 0.1276680095989762	0.110496
C	0.4838607853551550 0.2645359486851855 0.0662879108282674	-0.184257
C	0.4053717997012937 0.2672254640149875 0.0716894140893770	0.102568
C	0.6086750931487578 0.2227562142562355 0.1238663167318502	0.062269
C	0.6512653902415778 0.2883484366397615 0.1192481134176742	-0.175051
C	0.7312582291515625 0.2857691096467360 0.1189211373492910	0.084793
C	0.7234529511537108 0.1468315395038267 0.1221894937113367	-0.126285
C	0.6457742500603081 0.1513632467108886 0.1262488557585855	-0.136841
C	0.0925470116150089 0.2977431582729136 0.1920405872152791	0.095915
C	0.0142486110401658 0.3051692761680962 0.1890106875341186	-0.188946
C	0.9742455835858437 0.2723902150644178 0.1234941328367609	0.108632
C	0.0159719725193209 0.2352248233325801 0.0621543094887401	-0.185044
C	0.0944954320692265 0.2327234130107071 0.0678273902777429	0.100399
C	0.8908867345745117 0.2764268818433536 0.1204039068440287	0.063100
C	0.8482600399152080 0.2108230309285171 0.1169579697052669	-0.175705
C	0.7682665821436520 0.2134354424004777 0.1185621690146874	0.086160
C	0.7760939943176721 0.3523804420842735 0.1212274397596724	-0.125359
C	0.8538096460215026 0.3478342107160765 0.1234802604705630	-0.136523
C	0.7978482939355757 0.5932644986002571 0.3041678826881949	0.097633
C	0.8056266431304107 0.5149490649900523 0.3069267486962269	-0.190006
C	0.7729284052147189 0.4746523188565707 0.3723110705187049	0.110598
C	0.7354759137789980 0.5161230326106886 0.4336745390338964	-0.184343
C	0.7327811350022794 0.5946146917841206 0.4282570483080079	0.102774
C	0.7772611471690209 0.3913236216940010 0.3761242092098130	0.062437
C	0.7116667050854385 0.3487362340340469 0.3807378283153932	-0.174810
C	0.7142501205185505 0.2687406265419299 0.3810675712261951	0.084622
C	0.8531876723791179 0.2765461601606415 0.3778184015205894	-0.126258
C	0.8486540023525802 0.3542315195465065 0.3737473794290410	-0.136797
C	0.7022458141073906 0.9074689984812879 0.3079791223292099	0.095859
C	0.6948447628363220 0.9857633440447288 0.3110027085279105	-0.188668
C	0.7276203269228885 0.0257555957188990 0.3765265269951577	0.108738
C	0.7647796808739353 0.9840033276794554 0.4378771881941098	-0.185098
C	0.7672658586351453 0.9054827511781851 0.4322005525311899	0.100563
C	0.7235905829202751 0.1091172679610708 0.3796095934131800	0.063342
C	0.7891927782837603 0.1517404933503899 0.3830528057521848	-0.175633
C	0.7865802161749879 0.2317382521611212 0.3814421653290160	0.086033
C	0.6476332457565669 0.2239178380565602 0.3787711219879460	-0.125370
C	0.6521802407876950 0.1461885950449223 0.3765243413148525	-0.137049
C	0.5934141199094441 0.7025865674776615 0.3064822870433592	0.095531
C	0.5151096087881523 0.6950230963440017 0.3091505209754977	-0.188741
C	0.4747829137248818 0.7273863276751763 0.3747337486321320	0.108043
C	0.5162126499344716 0.7641216716117369 0.4366090177800988	-0.185120
C	0.5947640172036961 0.7666367115696614 0.4313639169888957	0.100764
C	0.3914217027423125 0.7232803811545178 0.3778664073201148	0.063521
C	0.3487008419239317 0.7888708783733483 0.3820447904658010	-0.175228
C	0.2687061800839111 0.7862970869259402 0.3813205714364498	0.086048
C	0.2767476917629435 0.6473381171983840 0.3778471142476608	-0.124499
C	0.3544465777030361 0.6518938495576420 0.3747722865651120	-0.137200
C	0.9074176787556917 0.7977461399770508 0.3054215080185868	0.098130
C	0.9856611222402613 0.8055491490682252 0.3086430558904511	-0.189332
C	0.0257627443283993 0.7726108295407440 0.3740620818507073	0.108654
C	0.9841541425244289 0.7347481130933475 0.4349552200259338	-0.184062
C	0.9057001165443271 0.7320127660212804 0.4290782155781537	0.103054
C	0.1090858429775288 0.7769143863628026 0.3777475507519055	0.063944
C	0.1518395649404707 0.7113280692017276 0.3816289101035419	-0.174639
C	0.2318257591187661 0.7139472616997878 0.3810766432740439	0.084644
C	0.2237349364601680 0.8528947326451616 0.3785595442609361	-0.125580
C	0.1460300578190814 0.8483244379430359 0.3753294918322654	-0.137388
C	0.7974304595175286 0.9065550400789067 0.8065093895250555	0.095346
C	0.8049907797838813 0.9848675457705282 0.8091640038972511	-0.188898
C	0.7726272525753591 0.0251934532684566 0.8747469553616580	0.107910
C	0.7358974795032301 0.9837680590109381 0.9366310020224182	-0.185501
C	0.7333779484038202 0.9052109445349412 0.9313922611255706	0.100546
C	0.7767241450938766 0.1085580919188838 0.8778766538482422	0.063404
C	0.7111323848905414 0.1512738778526737 0.8820562053295814	-0.174949
C	0.7137074994554671 0.2312734626235061 0.8813286445929055	0.085865
C	0.8526673353042418 0.2232364002027732 0.8778503507844456	-0.124542
C	0.8481153019075611 0.1455288905449385 0.8747762649589264	-0.137108
C	0.7022628874513162 0.5925576346481293 0.8054061358309373	0.097778
C	0.6944535128857541 0.5143124969525414 0.8086327955653405	-0.189377
C	0.7273964181082979 0.4742086899619369 0.8740465504148706	0.108471
C	0.7652661305022233 0.5158110667995157 0.9349345555917733	-0.183689
C	0.7680107086901056 0.5942645624905130 0.9290539864145658	0.102551
C	0.7230883535080841 0.3908845230803549 0.8777413750189438	0.063714
C	0.7886781208375910 0.3481403341593333 0.8816235080576652	-0.174300
C	0.7860599620530968 0.2681485801041006 0.8810796688382996	0.084584
C	0.6471074484042642 0.2762357946079358 0.8785640968799796	-0.125591
C	0.6516775004556834 0.3539521003225270 0.8753268125830890	-0.136976
C	0.5925417247636614 0.7977460654319487 0.8079510015721636	0.095682
C	0.5142438032236328 0.8051736712433500 0.8109846070026270	-0.188819
C	0.4742478582659307 0.7723904441014572 0.8765013395180339	0.108767
C	0.5159854186044636 0.7352113910478105 0.9378417414691040	-0.184965
C	0.5945051653702887 0.7327088182686097 0.9321697795930143	0.100298
C	0.3908896539943061 0.7764285307595945 0.8795958095451987	0.062971
C	0.3482672553411659 0.7108253879822798 0.8830444330045997	-0.175570
C	0.2682743412086573 0.7134333025790548 0.8814425897060735	0.086017
C	0.2760961451148733 0.8523815684964845 0.8787720276881942	-0.125642
C	0.3538156120508841 0.8478391297472561 0.8765185217982991	-0.136591
C	0.9067384969556077 0.7021402494975485 0.8042227390693910	0.097461
C	0.9850530449227148 0.6943789194735545 0.8069748959235823	-0.189600
C	0.0253506641442573 0.7270760862823550 0.8723483938150524	0.110151
C	0.9838731372841425 0.7645180237572555 0.9337207026812805	-0.184154
C	0.9053825012621701 0.7672013092299330 0.9283102301327911	0.102719
C	0.1086823589265519 0.7227550349454985 0.8761509126942282	0.062578
C	0.1512716451224882 0.7883486609064763 0.8807616877091787	-0.175270
C	0.2312644326489575 0.7857654710957368 0.8810832955989508	0.084982
C	0.2234607062605906 0.6468304810805848 0.8778129322858336	-0.126346
C	0.1457823478771322 0.6513650611900523 0.8737628923134471	-0.136924
C	0.2022649692324346 0.4074352854546922 0.6920202896704444	0.095733
C	0.1948519653303590 0.4857412101828897 0.6890016616692183	-0.188947
C	0.2276294023735326 0.5257473615096316 0.6234832060361826	0.108904
C	0.2647932852688631 0.4840201160570142 0.5621404649694071	-0.185190
C	0.2672803745039152 0.4054893804928407 0.5678083103402498	0.100488
C	0.2235912199513829 0.6091093737876698 0.6203998214729805	0.063168
C	0.2891913377575414 0.6517357243185338 0.6169544469729354	-0.175421
C	0.2865790389485167 0.7317315138902900 0.6185630690279122	0.085767
C	0.1476349526320516 0.7239008921982999 0.6212353558330226	-0.125585
C	0.1521797678541231 0.6461769574016882 0.6234855142197946	-0.136746
C	0.2978610257902471 0.0932457205284066 0.6958206156861627	0.097748
C	0.3056364785119130 0.0149267694247637 0.6930601478708277	-0.190180
C	0.2729316629445470 0.9746451304267275 0.6276834958360172	0.110723
C	0.2354708519793339 0.0161285926013658 0.5663154945836799	-0.184363
C	0.2327695414515114 0.0946204683993411 0.5717348180292896	0.102840
C	0.2772549941535290 0.8913139973747974 0.6238745623157442	0.062479
C	0.2116603809862566 0.8487294545864823 0.6192589140503434	-0.174998
C	0.2142464297209016 0.7687316454696455 0.6189281778681851	0.084682
C	0.3531835073218706 0.7765378124140303 0.6221894313846876	-0.125939
C	0.3486457452252467 0.8542246193839361 0.6262507679351960	-0.137078
C	0.4074314525821448 0.2977075946270439 0.6945783301215402	0.098041
C	0.4856751192181584 0.3055216143555498 0.6913496836838341	-0.189507
C	0.5257699949993881 0.2726015134593467 0.6259305533122237	0.108837
C	0.4841504515014209 0.2347474951789678 0.5650406983518728	-0.184226
C	0.4057004940215366 0.2319986297070890 0.5709227623710064	0.102800
C	0.6090908059861775 0.2769122914857892 0.6222453356336460	0.063876
C	0.6518458633874520 0.2113272281749276 0.6183694298443476	-0.174556
C	0.7318313645071400 0.2139499911436083 0.6189252389777146	0.084599
C	0.7237356622102387 0.3528977660843714 0.6214338549112388	-0.125325
C	0.6460300837527780 0.3483235026382061 0.6246565193183303	-0.137551
C	0.0934335442614723 0.2025649936903667 0.6935096693571869	0.095225
C	0.0151253958869506 0.1950122613243379 0.6908460430263932	-0.188546
C	0.9747916960903835 0.2273878765739380 0.6252609401119841	0.107863
C	0.0162115447949328 0.2641272220403525 0.5633765454887177	-0.185084
C	0.0947642667358005 0.2666367969564142 0.5686212894923913	0.100780
C	0.8914299409195205 0.2232894298560427 0.6221347561736391	0.063588
C	0.8487071274682890 0.2888788354496614 0.6179570983440822	-0.175430
C	0.7687083188303800 0.2863012795739524 0.6186794466271774	0.085964
C	0.7767547187146515 0.1473443015778675 0.6221584281504740	-0.124599
C	0.8544539440557934 0.1519015281365013 0.6252342395034619	-0.137012
H	0.1808160733628871 0.1254240123699517 0.2464453802435017	0.097423
H	0.1651646994943849 0.9843601313525722 0.2406413567574230	0.110475
H	0.2908359805058762 0.9871923727853420 0.0124587722197386	0.111598
H	0.2924791365907939 0.1304173176249508 0.0231680137240845	0.110156
H	0.3436567725433621 0.8763383237833012 0.1177331093623858	0.106474
H	0.0920553170636633 0.7482294195958595 0.1220733376717974	0.104954
H	0.1004061300143001 0.8883618249347197 0.1274963546916558	0.100408
H	0.3189788276931884 0.3733874399635247 0.2452655244560079	0.097681
H	0.3336857203214728 0.5146913686085124 0.2406628962975624	0.110400
H	0.2110042067320443 0.5126543022322225 0.0104670388510033	0.112311
H	0.2096190921095315 0.3695637531877756 0.0200487036867238	0.111350
H	0.1561990989402638 0.6231045405102562 0.1169421691132932	0.107076
H	0.4076918113769871 0.7513588459614327 0.1232928874837233	0.103673
H	0.3993851116424477 0.6111513916270700 0.1283947576866278	0.100007
H	0.3735285844434826 0.1800646323729053 0.2471918546375929	0.097299
H	0.5148713040339721 0.1651035454304414 0.2424936108577233	0.110230
H	0.5126388874197703 0.2897005105883431 0.0135574102578045	0.112629
H	0.3695318283910708 0.2910728390891646 0.0233443205763975	0.111197
H	0.6229970987931502 0.3432995283804873 0.1185974634853932	0.107663
H	0.7516439614842918 0.0917953099601697 0.1227802864992344	0.104759
H	0.6115392064283894 0.1000522511151674 0.1295515487018331	0.100945
H	0.1252666258698472 0.3190159196286385 0.2441160759026179	0.097909
H	0.9842110707661965 0.3340488747230849 0.2385762688274932	0.110076
H	0.9873444591808892 0.2098560509009218 0.0094567257916004	0.111221
H	0.1305899043074893 0.2084550741141629 0.0198596474276563	0.111296
H	0.8765560093338897 0.1558723794771216 0.1159550733436784	0.107172
H	0.7479340832492939 0.4074124515754382 0.1223791099275544	0.104649
H	0.8881998831060298 0.3990962583735455 0.1261279989494443	0.099413
H	0.8199210751034376 0.6264744896502860 0.2527574963310517	0.097245
H	0.8349091265846238 0.4851316468733132 0.2574924859867690	0.110380
H	0.7103237858514359 0.4873477693324531 0.4864170502498411	0.112669
H	0.7089339161258310 0.6304547993247250 0.4765819976296721	0.111024
H	0.6567188726893165 0.3770071533948838 0.3813841184950978	0.107514
H	0.9082218160052473 0.2483623321277327 0.3772217761669769	0.104855
H	0.8999641559737563 0.3884611542309709 0.3704524181936761	0.100936
H	0.6809796708530578 0.8747607157269863 0.2558892793742268	0.097787
H	0.6659672383730829 0.0158161309031632 0.2614287799141972	0.110009
H	0.7901535034995019 0.0126199124216609 0.4905802422444365	0.111175
H	0.7915477281189989 0.8693858640124102 0.4801759693911871	0.111073
H	0.8441438360276721 0.1234477728056537 0.3840593674980695	0.107139
H	0.5926028370485910 0.2520733705717722 0.3776042458535726	0.104833
H	0.6009154208053646 0.1118119166299357 0.3738853553470106	0.099566
H	0.6265823064566232 0.6810481993348473 0.2547084651971652	0.097530
H	0.4852775860542519 0.6663209464228357 0.2593413020287708	0.110355
H	0.4873720469763764 0.7889817075979363 0.4895131997157363	0.112316
H	0.6304624829067421 0.7903698428851228 0.4799220988128522	0.111296
H	0.3769059463766758 0.8437983681415487 0.3830620671309984	0.107081
H	0.2486365281733565 0.5923166181593924 0.3767036263232714	0.103708
H	0.3888490867716926 0.6006220184928377 0.3716026359395694	0.099939
H	0.8745616695452312 0.8192212734182076 0.2535439684700115	0.097419
H	0.0156238403319821 0.8348680267014631 0.2593545511260869	0.110546
H	0.0128154998888241 0.7091632568299560 0.4875463611665217	0.111564
H	0.8695931967314029 0.7075143247911592 0.4768194968352922	0.110095
H	0.1236601902135203 0.6563630659426256 0.3822763814814498	0.106491
H	0.2517867034689741 0.9079504654195403 0.3779180382690053	0.104922
H	0.1116513999889215 0.8996107198695296 0.3724940161688738	0.100405
H	0.8189780354874846 0.8733879976608241 0.7547420084563649	0.097640
H	0.8336831847398980 0.0146945755604323 0.7593437027314466	0.110484
H	0.7110343242747106 0.0126009726771633 0.9895359984298058	0.112578
H	0.7096476495175130 0.8695153109656357 0.9799573311912758	0.111440
H	0.6562012640591474 0.1230729710276625 0.8830695476201413	0.107134
H	0.9076892270497018 0.2513420757655365 0.8766974893015558	0.103696
H	0.8993891275674688 0.1111378512881111 0.8716028718419487	0.099904
H	0.6807875138906687 0.6254135638306779 0.7535273068827449	0.097545
H	0.6651234603754269 0.4843542661621624 0.7593524716987843	0.110483
H	0.7908516753660051 0.4871488908047955 0.9875211598737599	0.111529
H	0.7925034853134978 0.6303692352049783 0.9767931319900883	0.110203
H	0.8436425148416153 0.3763232137441226 0.8822709709780779	0.106467
H	0.5920523596738066 0.2481902849016767 0.8779281937211038	0.104768
H	0.6003920380564403 0.3883236729756941 0.8724949763100245	0.100357
H	0.6252527952342313 0.8190175802072398 0.7558659632315282	0.097914
H	0.4841952166794340 0.8340607353551741 0.7614147300156253	0.110010
H	0.4873620048236518 0.7098344394799515 0.9905432417219776	0.111246
H	0.6306084116233228 0.7084240106314220 0.9801375167208441	0.111132
H	0.3765649089132956 0.6558757256586049 0.8840482057833186	0.107200
H	0.2479341255001012 0.9074115876414478 0.8776138419879007	0.104770
H	0.3882015675575519 0.8991024689284388 0.8738662193976605	0.099516
H	0.8735301017216218 0.6800606068441245 0.7528201263956499	0.097296
H	0.0148761936157322 0.6651021599840726 0.7575380279374480	0.110434
H	0.0126514324424640 0.7896772170354036 0.9864512814426089	0.112618
H	0.8695498629544731 0.7910476766059185 0.9766454028922998	0.110996
H	0.1230009077602915 0.8432991666711939 0.8814095499014376	0.107682
H	0.2516516351836996 0.5917953227505774 0.8772125821177443	0.104908
H	0.1115475364522509 0.6000561880572147 0.8704566516283538	0.101004
H	0.1809920898643741 0.3747215025687609 0.7441026489851019	0.097915
H	0.1659723082388174 0.5157753500130068 0.7385657942820305	0.110183
H	0.2901598427975258 0.5126462994630705 0.5094345644354399	0.111210
H	0.2915570444867287 0.3694095802457758 0.5198323999580938	0.111023
H	0.3441442279518075 0.6234435732533309 0.6159474370974478	0.107073
H	0.0925999598462355 0.7520536464066241 0.6223952559395368	0.104874
H	0.1009165954938058 0.6117964346259666 0.6261307889328669	0.099502
H	0.3199364784588310 0.1264397170789057 0.7472298361874575	0.097182
H	0.3349339954847088 0.9850997365437941 0.7424900414615311	0.110401
H	0.2103061202164716 0.9873656631099551 0.5135792210261754	0.112710
H	0.2089093895735369 0.1304643198223772 0.5234036880781444	0.111036
H	0.1567089358551818 0.8769971882334373 0.6186150555723096	0.107641
H	0.4082178314887509 0.7483549205869267 0.6227847903343893	0.104770
H	0.3999557882889070 0.8884530252641001 0.6295495806955475	0.100981
H	0.3745793652494520 0.3191696197955243 0.7464566240464330	0.097409
H	0.5156437688577935 0.3348427071970831 0.7406307678442153	0.110557
H	0.5128043206146148 0.2091819879645689 0.5124459680299547	0.111667
H	0.3695828461363878 0.2075088589777901 0.5231834346290785	0.110112
H	0.6236675018148006 0.1563614743922348 0.6177209133841786	0.106506
H	0.7517799980728314 0.4079567644996109 0.6220661375482304	0.104825
H	0.6116471645891373 0.3996081229786398 0.6274761096543401	0.100496
H	0.1266051881463700 0.1810193726540502 0.7452863065538389	0.097720
H	0.9852947922529635 0.1663037523990432 0.7406569401198762	0.110392
H	0.9873634004417874 0.2889940526036339 0.5104687195360271	0.112295
H	0.1304530560554760 0.2903754586501114 0.5200585418741903	0.111411
H	0.8769065684290012 0.3438091112576039 0.6169448395599521	0.107237
H	0.7486451486297320 0.0923236286358896 0.6233097792821733	0.103717
H	0.8888579244484559 0.1006297330321583 0.6284135892715185	0.099866
F	0.2541322603838451 0.1754685429957845 0.3716671893384998	-0.462289
F	0.1806507632133699 0.2866260584115217 0.3747537705223444	-0.459355
F	0.3131538752212630 0.2945610273301691 0.3701185629701000	-0.463202
F	0.7054707998017136 0.6869331370270697 0.1298808010609363	-0.463131
F	0.7134321369094455 0.8194032247249016 0.1252666911701799	-0.459740
F	0.8245655359725497 0.7458855843829759 0.1283469589753058	-0.462520
F	0.6806776406330182 0.7866268124412917 0.6252867901524971	-0.459492
F	0.7540069923797245 0.6753584405066944 0.6284081602206423	-0.462638
F	0.8131872347251226 0.7943971788251681 0.6298948634147113	-0.463235
F	0.2052853473924413 0.1870088706910579 0.8701484296029073	-0.463177
F	0.3245121432987796 0.2458369621389539 0.8716824972784338	-0.462164
F	0.2134639519409645 0.3194927911505542 0.8746298524582520	-0.459726
F	0.2454010673063351 0.2521979235424390 0.2585821625550837	-0.453420
F	0.2516626771678536 0.2486088354639120 0.5172954328477092	-0.579637
F	0.7478672744133346 0.7546393452082373 0.2414478415730650	-0.453586
F	0.7513440249685508 0.7482174538298324 -0.0172677505004309	-0.579687
F	0.7454020622411116 0.7521797457797761 0.7414613207141977	-0.453630
F	0.7516368187422285 0.7485577201798544 0.4826900665604613	-0.579701
F	0.2478714351082712 0.2545384033069688 0.7585789405043586	-0.453464
F	0.2512756439266958 0.2483224366971818 0.0172985135168841	-0.579733
Ni	0.2497278552223661 0.2498064956074112 0.1331250659125438	0.716792
Ni	0.7501746987257852 0.7502579965557772 0.3668497680405082	0.716913
Ni	0.7497317050061131 0.7497763870775749 0.8668877760855693	0.716722
Ni	0.2501937838659340 0.2502475265179410 0.6331203213854084	0.716775
B	0.2485436638708796 0.2521187395834807 0.3501824510831762	1.070045
B	0.7479390997476330 0.7514954432242945 0.1498490438170581	1.070957
B	0.7485395391549372 0.7520285665536265 0.6498464778105335	1.070976
B	0.2478970427050763 0.2514950367712552 0.8501674008240435	1.070323
	  	
