#======================================================================

# CRYSTAL DATA

#----------------------------------------------------------------------

data_VESTA_phase_1


_pd_phase_name                         BFFIVE_7_Co
_cell_length_a                         18.73475
_cell_length_b                         18.73666
_cell_length_c                         8.94078
_cell_angle_alpha                      90.57150
_cell_angle_beta                       89.41859
_cell_angle_gamma                      90.00406
_symmetry_space_group_name_H-M         P 1
_symmetry_Int_Tables_number            1

loop_
_symmetry_equiv_pos_as_xyz
   x, y, z

loop_
   _atom_site_label
   _atom_site_fract_x
   _atom_site_fract_y
   _atom_site_fract_z
   _atom_site_charge
C	0.6606848385268739 0.8607416046115803 0.6827591054076995	0.086032
C	0.6099394238701094 0.9147998183823646 0.6862684889851243	-0.177319
C	0.5858404922465801 0.8901088810532954 0.4281813016761652	-0.173332
C	0.6371266485580410 0.8370044794259222 0.4319524723826163	0.079490
C	0.8372913908127003 0.6410051064439737 0.6809596550048468	0.086001
C	0.8882756105851901 0.5872401435304492 0.6849365159415317	-0.175828
C	0.9152828720400996 0.6098320979378280 0.4272396105760108	-0.173264
C	0.8636790010021905 0.6627617816042759 0.4304159480821515	0.076574
C	0.6404265831890853 0.6609621279959569 0.6837818823124023	0.082555
C	0.5866162550120062 0.6099640214273131 0.6877767792131833	-0.175276
C	0.6082829946303049 0.5863590355337196 0.4273975440940395	-0.172418
C	0.6611884345024449 0.6379126940616412 0.4306177159727902	0.075465
C	0.8601834423394845 0.8374649300840070 0.6798780568477476	0.086937
C	0.9142539258095328 0.8881675662846746 0.6833016051410921	-0.176556
C	0.8885542105179992 0.9157720163377100 0.4283281666498917	-0.173601
C	0.8353321784111437 0.8645040068122606 0.4321398544541516	0.078616
C	0.3374613065651862 0.3601442193331394 0.3202585349975122	0.086790
C	0.3881572450730167 0.4142102948710061 0.3167653965720310	-0.176701
C	0.4158012239835084 0.3886057960998626 0.5717164874047945	-0.173975
C	0.3645226287347650 0.3353734536605623 0.5679702789042871	0.078132
C	0.1610153859091289 0.1404675852708296 0.3163129475981082	0.082378
C	0.1100371635716776 0.0866495949517002 0.3122944485551010	-0.175360
C	0.0863454311057830 0.1082072264131709 0.5726192662575761	-0.171770
C	0.1379151420766947 0.1611156313299808 0.5694427321581325	0.075422
C	0.3607652714703717 0.1607208624692074 0.3173591010671784	0.086028
C	0.4148039602131702 0.1099635668868690 0.3137803617155928	-0.177477
C	0.3901950411060339 0.0858256256408236 0.5718586787565687	-0.173234
C	0.3370889314301403 0.1371293048438031 0.5681403637945430	0.079402
C	0.1410472744929406 0.3372490629237214 0.3191984883378716	0.085662
C	0.0872795830041616 0.3882292757318915 0.3151948252175755	-0.176234
C	0.1097991347684362 0.4152801605131123 0.5728377815841875	-0.173912
C	0.1627425579418314 0.3636589428440974 0.5696718968851520	0.077312
C	0.4315607249271572 0.0712414210033029 0.4428974269459393	0.136803
C	0.4879518949835823 0.0178333828469343 0.4392028770420907	-0.122875
C	0.0695042381474806 0.4284644658135582 0.4440004888349317	0.136131
C	0.0132650250417063 0.4819528059536459 0.4394621297550773	-0.122663
C	0.4284480397708839 0.4306370533363006 0.4445723868551625	0.137345
C	0.4815483423821336 0.4872672389889142 0.4407750901878379	-0.122505
C	0.0713638872200986 0.0684783100458739 0.4422660764224874	0.134875
C	0.0175942522388854 0.0124175711330300 0.4379220659555083	-0.123117
C	0.5684908847045161 0.5713953571319259 0.5576847045725141	0.135258
C	0.5124565763104234 0.5176260470550108 0.5618576861401318	-0.123252
C	0.9306327992748832 0.9283813863311420 0.5553625497624334	0.136523
C	0.9872464735008051 0.9814945051578809 0.5589727534811038	-0.121878
C	0.5713032305867403 0.9315356641443683 0.5570412991889770	0.137111
C	0.5178852365955045 0.9878953694880250 0.5605918751205849	-0.122848
C	0.9284252695911851 0.5694864318358345 0.5560133614338909	0.135545
C	0.9819202481048693 0.5132650304130010 0.5603168648547489	-0.122597
H	0.6914492722159798 0.8440949421278737 0.7797774571103784	0.120387
H	0.6006592822302512 0.9442969133377217 0.7905175870230891	0.115982
H	0.5566960340380179 0.8979259569416623 0.3248161808545534	0.116608
H	0.6498327314090125 0.8047086651665117 0.3333545853278265	0.102403
H	0.8055765443931403 0.6585639026413496 0.7779611698620889	0.119171
H	0.8965090659679755 0.5587831572905577 0.7892098756062900	0.115448
H	0.9458062886721937 0.6013293984586673 0.3242720162414533	0.116130
H	0.8524814638981431 0.6943603587818979 0.3317105117301234	0.103689
H	0.6580821085433283 0.6916279227207304 0.7814556672130778	0.120800
H	0.5585000799120212 0.6003867941289562 0.7931311087257137	0.115959
H	0.5993977044321506 0.5572703079879904 0.3231220249162423	0.116983
H	0.6920027696739716 0.6507769417418475 0.3305610477361317	0.102573
H	0.8436767467308786 0.8056696284830480 0.7761949997666548	0.119505
H	0.9440493135946538 0.8961597629771774 0.7863401715353682	0.115604
H	0.8959344168191510 0.9465153367487489 0.3266059714089537	0.116594
H	0.8020921584849584 0.8536787670342194 0.3352132912587316	0.103018
H	0.3056910274927132 0.3435835252208879 0.2239905028907774	0.119240
H	0.3961495464407753 0.4439285713352271 0.2136002392557302	0.115452
H	0.4465643550448602 0.3960201865416823 0.6734170445191240	0.116819
H	0.3536881451613045 0.3021536627363063 0.6649227820744931	0.103200
H	0.1916415697058086 0.1581741939348149 0.2186630807397551	0.120763
H	0.1004589429694386 0.0586193992139439 0.2068307696348187	0.115936
H	0.0572394349331964 0.0992918576604098 0.6769011094893808	0.116585
H	0.1508159542271174 0.1918846736340142 0.6695457596325906	0.102710
H	0.3440844414924524 0.1914881328579097 0.2204018020859006	0.120488
H	0.4442433449711718 0.1007044370145632 0.2094531166669887	0.115961
H	0.3980332537907774 0.0566699264085302 0.6752330199137313	0.116513
H	0.3048042795118817 0.1498618731452211 0.6667455410536862	0.102551
H	0.1585976423456454 0.3055506088609903 0.2222216735962237	0.119300
H	0.0589064415171504 0.3964803187620271 0.2108194512496451	0.115583
H	0.1013166340492042 0.4458407530172633 0.6757778170711700	0.116319
H	0.1943095544176839 0.3524319920586311 0.6684203139592443	0.103671
H	0.5071597420768407 0.0020659789664076 0.3276589579127112	0.101370
H	0.9953580356211059 0.4964222700678799 0.3276105309757620	0.101115
H	0.4961864526728881 0.5063465305672580 0.3293102943089505	0.100709
H	0.0019085356681172 0.9944215290601766 0.3261585585819199	0.101320
H	0.4944448871493909 0.5019772501017553 0.6736243753730152	0.101291
H	0.0063040435883257 0.9960788051032743 0.6704645734898784	0.100701
H	0.5021595365235144 0.0070927053879824 0.6721587554382932	0.101156
H	0.9963743965671223 0.4953695397097015 0.6721288330786727	0.101154
Co	0.2502879467787103 0.2493366452202526 0.4403275451449826	0.545686
Co	0.7493554953683259 0.7502442684325099 0.5597236905249485	0.545762
B	0.2496345277553675 0.2516593639960595 0.8704021601712728	1.053136
B	0.7513652305656342 0.7497227481197019 0.1297786159522502	1.052185
F	0.2517504525652736 0.2488086611409998 0.2117424754261583	-0.581411
F	0.2488818974358184 0.2513188309865264 0.7043698599303774	-0.457636
F	0.7488020773834843 0.7515548389412939 0.7876043762953264	-0.581090
F	0.7514549688629740 0.7487594700738701 0.2955626329720771	-0.456329
F	0.1981098081205780 0.2014677729841230 0.9144413950788808	-0.462799
F	0.2321920934780501 0.3215608131264700 0.9149567622225890	-0.463379
F	0.3192581809965089 0.2320863738857254 0.9092919901006868	-0.465385
F	0.7313095951479568 0.8192665419631350 0.0910107374811897	-0.465807
F	0.8212395645312032 0.7326628756501626 0.0840580335384332	-0.463467
F	0.7013465769692739 0.6979893068915797 0.0856017371768616	-0.462728
N	0.3227744555597125 0.1745461407021207 0.4435647763315540	-0.175456
N	0.1778572231909463 0.3245466248664273 0.4453327635396709	-0.176444
N	0.3252290494400982 0.3217209167846716 0.4449586143833710	-0.174294
N	0.1752405589854045 0.1768237066435063 0.4438179080039808	-0.174563
N	0.6768100665218860 0.6752036928546244 0.5562857646277174	-0.174679
N	0.8217353364126605 0.8252156075377147 0.5552000514446352	-0.175354
N	0.6745328129486499 0.8227413136738870 0.5565561543070636	-0.175241
N	0.8245929281457015 0.6778227515993477 0.5548030629357579	-0.175864
	  	
