#======================================================================

# CRYSTAL DATA

#----------------------------------------------------------------------

data_VESTA_phase_1


_pd_phase_name                         BFFIVE_15_Fe_i
_cell_length_a                         30.04251
_cell_length_b                         28.71206
_cell_length_c                         8.41319
_cell_angle_alpha                      89.90173
_cell_angle_beta                       89.64522
_cell_angle_gamma                      89.99966
_symmetry_space_group_name_H-M         P 1
_symmetry_Int_Tables_number            1

loop_
_symmetry_equiv_pos_as_xyz
   x, y, z

loop_
   _atom_site_label
   _atom_site_fract_x
   _atom_site_fract_y
   _atom_site_fract_z
   _atom_site_charge
C	0.9324371825803345 0.1003904733371461 0.8946665998628571	0.092462
C	0.9001079165134105 0.0660175064281032 0.8939170043374502	-0.170102
C	0.7708243530523160 0.9358956914458652 0.8933309420417128	-0.117490
C	0.7367709410555461 0.9034870285266782 0.8967051645323968	-0.117272
C	0.5668168933595050 0.7404624610327585 0.8812002197088706	0.091922
C	0.6005027677360586 0.7732592375615103 0.8927516797385235	-0.171727
C	0.4344310818128148 0.6029707950582766 0.8784872702883946	0.096237
C	0.4021398837103858 0.5686404937716915 0.8905715156442966	-0.169677
C	0.2695268716048191 0.4351058698060742 0.8958511278157456	-0.117165
C	0.2355676390868928 0.4025947909392286 0.8929433699372764	-0.117206
C	0.0694717125378071 0.2421576620920275 0.8979625426105720	0.092590
C	0.1031803256392966 0.2750652289464450 0.8967680416388274	-0.172800
C	0.0688231472632242 0.8994739043133299 0.4023821718635521	0.095735
C	0.1013569149683221 0.9338425060077807 0.4003516789587028	-0.171188
C	0.2316563821814671 0.0658658517432738 0.3894828605934024	-0.117804
C	0.2656033347820506 0.0985984227654686 0.3889486133238065	-0.117313
C	0.4344468144128756 0.2603096203336809 0.3905567783183790	0.085332
C	0.4006550888054460 0.2273942226370770 0.3911191859279677	-0.171429
C	0.5647509686335601 0.3952761811901840 0.3899312550328904	0.082991
C	0.5972453884797022 0.4295661013282546 0.3903704014170225	-0.168447
C	0.7281165480957434 0.5624786714673699 0.3901737299892128	-0.120492
C	0.7620183697057527 0.5952593631510652 0.3894985054398083	-0.115211
C	0.9301452807144449 0.7561031327862192 0.3999520390697627	0.089111
C	0.8962263588928014 0.7232579338209257 0.3977725865962957	-0.173250
C	0.0654495615532481 0.1032497138239249 0.6215261912346735	0.095373
C	0.0976651150459306 0.0688675236554928 0.6092430741629222	-0.170847
C	0.2302836711218313 0.9351091556548237 0.6030370556775974	-0.117478
C	0.2642982744375237 0.9026480221885904 0.6062784732910185	-0.118384
C	0.4305884208125446 0.7426079904024582 0.6052458487557402	0.089271
C	0.3968858960604534 0.7755148205330404 0.6063998856399467	-0.171009
C	0.5671072405940345 0.6004846114780744 0.6023474758265747	0.096285
C	0.5994675513890657 0.5660991812918803 0.6026361672679085	-0.172895
C	0.7291106569960123 0.4359559260049125 0.6054181029542607	-0.117339
C	0.7630958360805142 0.4034650524932816 0.6025303653316059	-0.117661
C	0.9330393383695132 0.2405982350992298 0.6191553640031597	0.091398
C	0.8992624797635400 0.2733046169802992 0.6075116227021552	-0.172205
C	0.9370758012430586 0.8938834752688392 0.1137941144854217	0.089983
C	0.9044586899084032 0.9280799483609867 0.1045031519911116	-0.168087
C	0.7717154632347897 0.0624983426015520 0.0998942114902119	-0.117141
C	0.7378383051363568 0.0953000054344830 0.1003060538294374	-0.118358
C	0.5673160594604973 0.2590511909675139 0.1269257066661574	0.092088
C	0.6011470782844625 0.2262666530121184 0.1139511978323141	-0.171028
C	0.4339602166921520 0.3974497353840513 0.1247083030475599	0.094600
C	0.4014938503832369 0.4317174453154588 0.1119825171868004	-0.168593
C	0.2682833241131853 0.5659557297692984 0.1003970445658472	-0.116862
C	0.2343142610467290 0.5986444592190514 0.1007047840187890	-0.118228
C	0.0642750477550580 0.7626454759932637 0.1154060448644009	0.090494
C	0.0979854072048539 0.7296330572500792 0.1060823333228861	-0.170893
C	0.0661496257357226 0.8975702486717820 0.1269865301047675	0.094433
C	0.0986659549065446 0.9317862496529412 0.1138729633005531	-0.169907
C	0.2318148886685018 0.0660876874598814 0.1001066630005256	-0.117804
C	0.2657685521166177 0.0988062662108987 0.0999736679810412	-0.117759
C	0.4359083724535907 0.2628054576133835 0.1150421011272493	0.092409
C	0.4021839661209046 0.2298263702918056 0.1059603248519599	-0.172389
C	0.5630861122064008 0.3941117072088694 0.1140547585143766	0.091343
C	0.5956360264750069 0.4284116845064244 0.1045870594045674	-0.166841
C	0.7283224472262415 0.5627228874931798 0.1007243532280117	-0.117841
C	0.7622259265585138 0.5954782845668884 0.1005181644507793	-0.117233
C	0.9327407516386348 0.7592775082462173 0.1247695252322994	0.089768
C	0.8989328844432661 0.7264678773891089 0.1121413473111224	-0.172145
C	0.9346413193730601 0.1032801418484998 0.6185010120524502	0.094040
C	0.9023923579803370 0.0689399260889433 0.6065640646445680	-0.169680
C	0.7697720280753984 0.9351750540476543 0.6027129156825077	-0.118315
C	0.7357206298125707 0.9027568559828286 0.6065438955477854	-0.117621
C	0.5694761750824773 0.7427614163367299 0.6052563284619016	0.091167
C	0.6032034089314818 0.7756384756580129 0.6061086009114007	-0.173103
C	0.4329951163435323 0.6005817683715917 0.6024114980883714	0.095277
C	0.4005579968267168 0.5662849725152991 0.6031650294899417	-0.170527
C	0.2708504029897446 0.4362320909955051 0.6052650317569410	-0.117852
C	0.2368961676153788 0.4037013010865316 0.6027992921440063	-0.116885
C	0.0670872844037050 0.2406217857962465 0.6221959870034974	0.094104
C	0.1008040740341447 0.2733928933040555 0.6100829601004520	-0.173421
C	0.9355977666624227 0.8961378760958029 0.3896979476333248	0.085049
C	0.9029553249627709 0.9302844382250445 0.3902925317814949	-0.168676
C	0.7716053631915953 0.0625816188311448 0.3893540946147218	-0.118279
C	0.7377288840612964 0.0953903233649683 0.3892741894100372	-0.116051
C	0.5693168664599586 0.2561237354824966 0.4019925362483951	0.091081
C	0.6033015677488713 0.2233273555554879 0.3996423089692291	-0.173477
C	0.4309973584492583 0.3998792866263013 0.4002219431765269	0.092497
C	0.3984875970266424 0.4342520836645885 0.3983778904830876	-0.171395
C	0.2680507927107678 0.5661076058921637 0.3897647390330910	-0.117793
C	0.2340908559285118 0.5988246756051162 0.3896999910299386	-0.117674
C	0.0661495193577756 0.7615238184972771 0.3909069754190588	0.083749
C	0.0997928908004369 0.7284590942834827 0.3912328286934557	-0.171175
C	0.0679756507203493 0.1015470852253330 0.8975424235743417	0.095858
C	0.1001524331169013 0.0669987455280746 0.8966129792150691	-0.170748
C	0.2289319802901011 0.9361920286631743 0.8936452274091244	-0.117046
C	0.2629425221935218 0.9037443366775830 0.8964399758264507	-0.117534
C	0.4328503505473937 0.7406920582927214 0.8811476363128107	0.091858
C	0.3991805602082745 0.7735479535677591 0.8930268195406192	-0.171531
C	0.5653333136486992 0.6032157897087953 0.8784223808528715	0.095424
C	0.5975435329003137 0.5688360272493964 0.8900464923486439	-0.170204
C	0.7300409478602052 0.4352250998823051 0.8960087136055452	-0.116633
C	0.7640306512532730 0.4027336221712994 0.8926939017099158	-0.117269
C	0.9309472972459474 0.2433393156545922 0.8950722194467965	0.089751
C	0.8970845022041501 0.2760537911549800 0.8941727182412162	-0.172115
C	0.6540173186643272 0.8249338196272427 0.7570252239686017	-0.105869
C	0.8842951743352671 0.0496701724792467 0.7469363794676512	0.158830
C	0.8218356610122424 0.9856576123158071 0.7433429999132006	-0.102644
C	0.6195607632863174 0.7916992373770100 0.7526732487295619	0.164431
C	0.7876427362997481 0.9521946838172713 0.7462166020140261	0.127885
C	0.7186927287940765 0.8864907181911716 0.7534398527847600	0.137420
C	0.6840183842117905 0.8535427661699226 0.7562799882585656	-0.105420
C	0.8510465836309627 0.0151622721093614 0.7425304525746953	-0.109093
C	0.1541244843439569 0.3247914655520742 0.7449733620777436	-0.107731
C	0.3843181937476833 0.5497181972998996 0.7501898969160871	0.158555
C	0.3216400842847822 0.4859063559104955 0.7539787748977569	-0.103987
C	0.1196841798935804 0.2915140661703312 0.7499317760431513	0.167352
C	0.2874987868198060 0.4523983998059318 0.7518872945451543	0.128014
C	0.2187188819993724 0.3864676640578001 0.7465446624056216	0.137671
C	0.1840900315543966 0.3534357540739073 0.7447132432517621	-0.103960
C	0.3509317589639231 0.5153239028532941 0.7546519657942080	-0.109177
C	0.3484821202256509 0.1777438204642941 0.2430726480509907	-0.107239
C	0.1171616372786129 0.9508642880503385 0.2531137902698119	0.160997
C	0.1799357480744688 0.0151382863284935 0.2456812130083131	-0.098994
C	0.3832315278557297 0.2111227605604071 0.2461026633974115	0.165300
C	0.2141929225080501 0.0489332122968163 0.2449742483849956	0.127052
C	0.2835035845670053 0.1157457735938758 0.2442160455083701	0.138666
C	0.3183540675529786 0.1490357163847949 0.2436497117255641	-0.103150
C	0.1506551384201558 0.9855437849344784 0.2471075376826809	-0.111579
C	0.8447555024497594 0.6742668456834003 0.2454966793642096	-0.109026
C	0.6137336376478202 0.4471807748832664 0.2449968372261171	0.156166
C	0.6764780114451933 0.5115390393062426 0.2450618542994262	-0.105434
C	0.8795114691265903 0.7075573997604586 0.2510788436542361	0.167840
C	0.7106850590195901 0.5454693663784013 0.2455811222374937	0.127950
C	0.7798642575069918 0.6123734366137635 0.2448031631614372	0.135510
C	0.8146493246761033 0.6456098390765351 0.2447022290678678	-0.100459
C	0.6472402974420437 0.4818708542123580 0.2425998049501661	-0.106261
C	0.3458554646963919 0.8250261927073339 0.7573980248837445	-0.105812
C	0.1157466552140889 0.0499896235261673 0.7494838846728703	0.159731
C	0.1781350728597951 0.9858675297875169 0.7447032023850447	-0.103311
C	0.3803241675366353 0.7917873766889536 0.7531152460087535	0.163906
C	0.2122817641703957 0.9523449949979679 0.7468378119243255	0.127318
C	0.2811668186526041 0.8865494064517123 0.7528891634518766	0.138277
C	0.3158371402313417 0.8536067231234972 0.7556578733903131	-0.104727
C	0.1489307424406763 0.0153900974593047 0.7446830354855233	-0.110953
C	0.8457635028928177 0.3248720641175706 0.7431478026485894	-0.106992
C	0.6154815213810607 0.5496668667092742 0.7494556256930123	0.160172
C	0.6780520478299038 0.4857608217281783 0.7542835287972478	-0.101726
C	0.8803343700670540 0.2917775805508534 0.7475634071705001	0.165210
C	0.7122457290189255 0.4522981353933676 0.7522408310597952	0.126193
C	0.7810760993979994 0.3864321319176210 0.7460936258942320	0.136395
C	0.8157262265824730 0.3534454904828663 0.7437228784166955	-0.104241
C	0.6487771850233733 0.5151787436260169 0.7539083518983333	-0.108870
C	0.6551430855638609 0.1742703322164045 0.2467076424546871	-0.108845
C	0.8862745169905990 0.9472225965561799 0.2449585031846018	0.157087
C	0.8233743481830437 0.0114379192859117 0.2437929019137353	-0.103097
C	0.6203343061764083 0.2075196902227438 0.2527379442004596	0.166356
C	0.7891730333763107 0.0453800915448199 0.2444619894112937	0.126616
C	0.7200449982229926 0.1123603501087353 0.2448933516513390	0.135382
C	0.6852659595370573 0.1456254785979865 0.2453786168241077	-0.099431
C	0.8526433200498096 0.9817853585843406 0.2422714179511684	-0.106268
C	0.1515263491373735 0.6778564226970919 0.2431761099661653	-0.105809
C	0.3828358224108788 0.4510321208934137 0.2513758657378741	0.158763
C	0.3200076000659003 0.5152370261736350 0.2452556820619103	-0.100814
C	0.1169099788928690 0.7113770175744405 0.2461110343249269	0.164537
C	0.2857200710060471 0.5490017072672362 0.2450596572477771	0.126243
C	0.2163943447342508 0.6157730725256706 0.2451681762994735	0.138056
C	0.1815811452387253 0.6490833545666905 0.2446023673555308	-0.104193
C	0.3493279626342100 0.4856865785233879 0.2458820461918378	-0.110391
H	0.9455916586257236 0.1136742931231894 0.0061261975522023	0.094900
H	0.8871428112327202 0.0518511690583033 0.0051889974120522	0.116083
H	0.7850157586785843 0.9491764978070777 0.0033040913885016	0.106383
H	0.7235173219184458 0.8907518067620813 0.0094751514851194	0.115006
H	0.5510928527797680 0.7249018879393624 0.9858881389056834	0.108122
H	0.6121099244795933 0.7845075941825946 0.0087912284698686	0.122290
H	0.4495142660766389 0.6190589876286611 0.9825810090833373	0.108582
H	0.3906829273030439 0.5565528918307320 0.0065798889881002	0.119483
H	0.2827407436375901 0.4477137514521647 0.0082525068455062	0.108029
H	0.2214001369344613 0.3890930751538993 0.0032697034156958	0.114661
H	0.0563886283138039 0.2283129592167038 0.0094763497505156	0.092851
H	0.1168535669873762 0.2879516026230191 0.0078437094665371	0.121205
H	0.0563843768647826 0.8853905838463715 0.5145363378666080	0.094099
H	0.1145550874131570 0.9473957348858423 0.5114158480509451	0.115794
H	0.2180569693880658 0.0528299092138995 0.5015050787262791	0.107485
H	0.2788524129514182 0.1114142417016313 0.5008793772443804	0.113819
H	0.4483761896234101 0.2729109527150563 0.5015099325084662	0.092127
H	0.3878384684205775 0.2143614774127678 0.5039038803144656	0.121085
H	0.5520648532859662 0.3811710382170476 0.5013785639502801	0.094229
H	0.6098330615338062 0.4424995028831501 0.5030901378172151	0.118195
H	0.7146428338058346 0.5495579295262023 0.5025356034952919	0.106534
H	0.7753357335463549 0.6082090321266961 0.5011754770606806	0.113906
H	0.9435584136207654 0.7684501965850425 0.5123840246290253	0.093070
H	0.8826892171334191 0.7097994308416620 0.5091057658165212	0.120639
H	0.0502455225186053 0.1193681309219039 0.5175434917792179	0.109648
H	0.1088626600020131 0.0567344947953338 0.4931449546425014	0.119077
H	0.2170942510458378 0.9477132094550084 0.4904178503568101	0.107447
H	0.2784791526777673 0.8891646559091865 0.4961374557861742	0.114911
H	0.4437481260451165 0.7291270676128776 0.4935183359202229	0.093521
H	0.3833156984021478 0.7885142565539828 0.4951042570685773	0.120405
H	0.5536551433543914 0.6137596447021886 0.4911722914109433	0.093887
H	0.6122914294265550 0.5520071889833406 0.4912139107024558	0.117740
H	0.7149941648097610 0.4492662323677710 0.4952418539732943	0.107164
H	0.7763758815368056 0.3907115209815276 0.4899351778937193	0.115268
H	0.9488256695108227 0.2251819412903432 0.5145372782757692	0.108620
H	0.8875191616193737 0.2844895212631347 0.4915185027410290	0.122552
H	0.9522078773490286 0.8781171115889693 0.0085210164566040	0.111875
H	0.8931703401693545 0.9398753349881996 0.9884408172529442	0.119719
H	0.7852067035822119 0.0495772773296990 0.9877815086811566	0.106363
H	0.7245356696542991 0.1082622691828601 0.9885403904005073	0.114371
H	0.5515071174694256 0.2746370281631469 0.0230652056805930	0.107470
H	0.6127056661955660 0.2152527284903238 0.9971122834999500	0.121883
H	0.4492671441873797 0.3813306651633028 0.0203401758298779	0.107672
H	0.3905831588755181 0.4434140546029191 0.9953481317031622	0.119262
H	0.2818598504480293 0.5529664546388837 0.9884770621172111	0.107573
H	0.2210226684826198 0.6115204032666859 0.9888037594951867	0.113949
H	0.0488129396108867 0.7779996283487475 0.0104575907939329	0.110501
H	0.1096743486036250 0.7181432268725885 0.9899085141833238	0.121424
H	0.0508120624191628 0.8815197797165133 0.0232472917368692	0.108969
H	0.1097073159714459 0.9436261615956159 0.9970906516153046	0.119229
H	0.2184029550305896 0.0532506462447016 0.9883199328731660	0.108199
H	0.2791845640695590 0.1118154932042674 0.9878689029779489	0.114019
H	0.4515747117160995 0.2782437014671199 0.0099596676995774	0.110807
H	0.3905452331223708 0.2186428928954983 0.9898935344757693	0.122298
H	0.5482397283086975 0.3783532024252003 0.0088752543636209	0.111009
H	0.6070156350783377 0.4405001587385173 0.9884905703745754	0.118522
H	0.7149056971614901 0.5499000180565615 0.9889543803649438	0.106356
H	0.7756642579816559 0.6085416328534943 0.9884821216605876	0.114252
H	0.9486460083721139 0.7748093526875928 0.0203395724910361	0.107568
H	0.8876147533254107 0.7155394402851569 0.9954111405697461	0.122317
H	0.9498902834617944 0.1194289861214207 0.5140021272142139	0.108629
H	0.8912551528601544 0.0570696174570370 0.4905683256060513	0.119746
H	0.7831234586280923 0.9478694292160634 0.4898707192719516	0.107960
H	0.7216390887133791 0.8894136331114985 0.4966680047184620	0.114461
H	0.5564398063726862 0.7294298619085144 0.4936876022067945	0.093069
H	0.6169485323369007 0.7887607687326463 0.4946651994119289	0.121196
H	0.4465944785727327 0.6139380112932561 0.4909980408691665	0.094044
H	0.3877924579070022 0.5523812405544393 0.4919519599796869	0.116784
H	0.2850610291650522 0.4497217658763979 0.4948837354592944	0.106799
H	0.2237985635611786 0.3910893346572026 0.4903240574542705	0.114614
H	0.0513738841159644 0.2252164451017577 0.5180960325854408	0.108154
H	0.1125579609396339 0.2848713294812878 0.4939149435919960	0.122325
H	0.9489189508270047 0.8829894032641341 0.5009810658774205	0.093758
H	0.8905249087042738 0.9437338035237596 0.5030720981620830	0.117495
H	0.7849851637989163 0.0497576712813703 0.5013744958574397	0.106622
H	0.7243168131579588 0.1084663140794589 0.5012324639045433	0.113711
H	0.5554973605390069 0.2685172802227770 0.5143215662690440	0.092463
H	0.6166670797832380 0.2099646839900397 0.5107243134476451	0.121586
H	0.4433081126505910 0.3861102233833810 0.5124947164882337	0.094825
H	0.3852236807027495 0.4479461433292397 0.5097500643991452	0.115587
H	0.2814893535080517 0.5532158796756653 0.5016240160652351	0.108083
H	0.2206865183887809 0.6117708748539450 0.5017920656431890	0.113903
H	0.0530722544925520 0.7753413071236974 0.5020563804235052	0.092788
H	0.1128603885428011 0.7160505434711725 0.5039234090227274	0.121519
H	0.0554862544418402 0.1159550758374348 0.0089299005777998	0.093481
H	0.1133107643672014 0.0532767874208100 0.0076694651834600	0.116300
H	0.2146755578086741 0.9496384212775706 0.0038783491000703	0.106144
H	0.2760696445990954 0.8911230945262399 0.0089458845237311	0.115180
H	0.4484272417007946 0.7252404425299930 0.9856435499516641	0.108119
H	0.3874270547265188 0.7849728103432433 0.0091917623511280	0.121695
H	0.5501526139757614 0.6194268628380571 0.9827811705816700	0.109302
H	0.6088396645861012 0.5568521876872992 0.0058901814233182	0.119809
H	0.7166625343629173 0.4479132550279752 0.0086147228616005	0.107793
H	0.7780685072348891 0.3893641763879929 0.0028021938699913	0.114895
H	0.9447029147163739 0.2306746503736285 0.0065947912979206	0.093436
H	0.8835884355422517 0.2894136574393250 0.0054824680597562	0.120951
Fe	0.4999237792563483 0.6727389212672481 0.7466804033367814	0.781966
Fe	-0.0001112192111963 0.1727305504997723 0.7539275652217216	0.780714
Fe	0.4999509883709502 0.3277040999139286 0.2573764063575663	0.814516
Fe	0.0000295073033471 0.8278060759596548 0.2573398221567553	0.815476
B	0.5000796109378223 0.6727544226951426 0.3134293037203125	1.055230
B	-0.0000066049501417 0.1726937283033720 0.1868814189160995	1.055085
B	0.4997596412453851 0.3274424735376938 0.6907790557865310	1.053046
B	-0.0003775421695824 0.8273923420582435 0.6903860521623408	1.051888
F	0.5002304098582474 0.6253969687260944 0.2750693166495922	-0.448465
F	0.9775639532948451 0.2130741111019321 0.2338149975303170	-0.444929
F	0.9787141644886541 0.1316853316887008 0.2345455637356363	-0.443446
F	0.4999092493493107 0.2801338826797360 0.7312083298582994	-0.449293
F	0.9767374489673183 0.7872786110102418 0.7384827960921929	-0.443765
F	0.9783861917911583 0.8687581596762664 0.7353992423103832	-0.440258
F	0.5388404953939496 0.6958973498168561 0.2655936045067984	-0.444347
F	0.0453125448778199 0.1734524771898324 0.2240969855450590	-0.449709
F	0.4609779835649458 0.3505458784318204 0.7390244350979149	-0.443858
F	0.4610624168248589 0.6954947076647275 0.2674790610305521	-0.444045
F	0.5388614235533667 0.3505549108030003 0.7342866569248039	-0.440677
F	0.0448580743223682 0.8264929745353154 0.7295614473026559	-0.448422
F	0.5001733471120972 0.6745212820012232 0.4919427582780466	-0.432991
F	0.0009069010489115 0.1728865380628741 0.5289150917943656	-0.529676
F	0.5007280833680573 0.3271014369106347 0.0290244461632440	-0.534190
F	0.0008412432042371 0.8280360951088809 0.0289113309493297	-0.534669
F	0.4996224588579151 0.6720630939417594 0.9716403875674686	-0.530111
F	0.9981219255277495 0.1726842974994484 0.0084895961969326	-0.432394
F	0.4991803636862278 0.3286958614436636 0.5129856699362689	-0.433625
F	0.9984191614772300 0.8269688665467709 0.5127320883030683	-0.433140
N	0.5514237546848021 0.7253706624832964 0.7398637117792350	-0.242632
N	0.9493845206257907 0.1189231832840178 0.7600267612562690	-0.241132
N	0.0515085578434769 0.2251861697065151 0.7636581125638084	-0.240489
N	0.4495691947150596 0.6188981686556431 0.7369779556392020	-0.239549
N	0.4520631164463015 0.2783647891965061 0.2553894178980273	-0.242021
N	0.0512351685843004 0.8814716637868123 0.2687730516878620	-0.242455
N	0.9482686961219688 0.7742199994444318 0.2663342036688245	-0.243189
N	0.5475131796790864 0.3774521910106107 0.2546936216713213	-0.242478
N	0.4484242048382096 0.7253754839883190 0.7396627983334345	-0.240781
N	0.0507685206497738 0.1193949279828861 0.7631088313831322	-0.238279
N	0.9486606465098247 0.2256716163993749 0.7605200673885303	-0.241600
N	0.5503817204358640 0.6189830697021648 0.7371105498934590	-0.240067
N	0.5514822923422478 0.2741239054024295 0.2685917422981779	-0.242030
N	0.9526481197159804 0.8776916411647426 0.2543616312603771	-0.242407
N	0.0481702476285695 0.7787191174793383 0.2558322035785119	-0.240787
N	0.4486823996099095 0.3815634516000908 0.2663922574731223	-0.243219
	  	
