#======================================================================

# CRYSTAL DATA

#----------------------------------------------------------------------

data_VESTA_phase_1


_pd_phase_name                         BFFIVE_5_Cd_i
_cell_length_a                         20.00834
_cell_length_b                         19.83471
_cell_length_c                         13.03982
_cell_angle_alpha                      84.99904
_cell_angle_beta                       85.17940
_cell_angle_gamma                      55.92935
_symmetry_space_group_name_H-M         P 1
_symmetry_Int_Tables_number            1

loop_
_symmetry_equiv_pos_as_xyz
   x, y, z

loop_
   _atom_site_label
   _atom_site_fract_x
   _atom_site_fract_y
   _atom_site_fract_z
   _atom_site_charge
F	0.3197885376756631 0.0642703349156264 0.3266093975258784	-0.455793
F	0.2140876500388345 0.1171533568260301 0.4508440583567150	-0.453866
F	0.1956580728843349 0.1823096588017066 0.2884884650160870	-0.460522
F	0.8147969431763045 0.8184053472171726 0.1905307230485889	-0.461316
F	0.8927153017506555 0.7974000579680833 0.0388954487973621	-0.453764
F	0.9327417849082380 0.6916135036218662 0.1638318407133710	-0.452882
F	0.7162251882795090 0.6255236111784939 0.5398074050148338	-0.449584
F	0.8221543176527391 0.5587448270144790 0.6519265196732533	-0.452588
F	0.7020785515514660 0.6775003133539457 0.6992667685960754	-0.455697
F	0.3602976975222845 0.3953153521917159 0.8918493901093925	-0.454044
F	0.4910113030452337 0.2844518241648686 0.9145697623403422	-0.453348
F	0.4421759147628848 0.4034078318387202 0.9992010732300969	-0.463995
F	0.2713989567559238 0.3211765976683978 0.3880962033951576	-0.617339
F	0.2087995872121766 0.0578769094183684 0.3096879009343922	-0.451666
F	0.6652172145756055 0.7272466193438518 0.0963017940467878	-0.631914
F	0.9394708810445564 0.8015972568968976 0.1926599814404923	-0.451569
F	0.7430468541278259 0.8304796181972733 0.5999926775921622	-0.616905
F	0.7061596818339240 0.5588462102747371 0.6877337972210640	-0.447951
F	0.1851969599646921 0.2593272047400248 0.8855578384895892	-0.627234
F	0.4680609346482711 0.4005967775211090 0.8221320386345354	-0.467024
N	0.4080421083614283 0.2638140697489604 0.5420863087399184	-0.257900
N	0.1481476968854736 0.3244808101420844 0.5728168404445597	-0.252763
N	0.2433385274357747 0.4181382022395255 0.6255448505572261	-0.270706
N	0.3219337448805533 0.1651645119057790 0.6227671565780213	-0.273119
N	0.5695507311556369 0.7390629420786397 0.8823745637029390	-0.242910
N	0.8225278129226936 0.6741585108887946 0.8726629570596387	-0.258893
N	0.6686438933092376 0.8426948196400303 0.9107137334275421	-0.262261
N	0.7439744089244869 0.5752777371025317 0.9591495665809902	-0.256563
N	0.6446031264285352 0.8373533981365071 0.4119278004788782	-0.260846
N	0.9094932570218006 0.7591579457636186 0.4678702600799767	-0.254008
N	0.8208989513399345 0.6800983448810314 0.3692912602568512	-0.255631
N	0.7501613927718367 0.9319511082360137 0.3909810006338006	-0.244070
N	0.3233848241277997 0.1873814418909134 0.1039067959521773	-0.258023
N	0.0743290625981530 0.2437654300776444 0.1045412374319525	-0.250408
N	0.2435873243981632 0.0910014551012353 0.0230068010380364	-0.259191
N	0.1605826363922489 0.3571966614371149 0.0848772244672418	-0.265002
C	0.4569878922966453 0.2224825303866993 0.6208464825436479	0.083839
C	0.5185683894585864 0.2309720667193673 0.6420501741519686	-0.170679
C	0.5306728382641026 0.2852987886814802 0.5804316023216458	0.124600
C	0.4791772277676216 0.3280610734864240 0.4982992454315109	-0.180635
C	0.4194619815552585 0.3153984731894752 0.4814099925479027	0.093692
C	0.5972399047215120 0.2932390587761518 0.5985634466809628	0.046967
C	0.6723902561441619 0.2230400732016378 0.6237700506870922	-0.111655
C	0.7387467612030179 0.2267581061592949 0.6323922611852026	-0.111754
C	0.7330613578129856 0.3006032247822006 0.6158834714345289	0.078244
C	0.6566960707396774 0.3716191524217649 0.5948910999353103	-0.121384
C	0.5901038817297035 0.3679823854950470 0.5860175343996730	-0.111611
C	0.1003970745686900 0.3494729263800878 0.6591890129451698	0.097906
C	0.0325787560761839 0.3464181753661393 0.6732263038141966	-0.166475
C	0.0150364745833045 0.3128648713208761 0.5976255070302443	0.111921
C	0.0666644234454665 0.2851266244974866 0.5095227896892780	-0.168798
C	0.1312825038301355 0.2934052304346508 0.4988724956400148	0.104602
C	0.9441558193548261 0.3077471252149167 0.6083865662441710	0.052445
C	0.8672347614200575 0.3781516297811933 0.6263094229269868	-0.131715
C	0.7990218269737497 0.3757265658133164 0.6296664327679764	-0.105142
C	0.8053057422777457 0.3028758946546262 0.6165719247690404	0.061000
C	0.8830651152529043 0.2320322678524036 0.6009414734364782	-0.127056
C	0.9513986633344729 0.2343742330908398 0.5957266526223108	-0.142135
C	0.2992967857473303 0.4141794395717824 0.6813702927442051	0.106982
C	0.3079444984170578 0.4785039626240746 0.6859360324868433	-0.172507
C	0.2548971822832655 0.5529891983081825 0.6334798175018079	0.119202
C	0.1926396067522518 0.5587834200724657 0.5820220356064780	-0.179723
C	0.1900288347796391 0.4905176385454837 0.5781755818823413	0.090346
C	0.2652281566142705 0.6208544681775550 0.6325580552202510	0.051387
C	0.3424524776808795 0.6065302813686628 0.6317488510270195	-0.124282
C	0.3523885926532628 0.6706231865725840 0.6302488267713144	-0.120731
C	0.2857306594544369 0.7522653916157793 0.6312525958091015	0.070416
C	0.2087805703411263 0.7655367428592328 0.6331749083361089	-0.119510
C	0.1985635476713199 0.7019525448834898 0.6327188107189556	-0.109043
C	0.2779991841857026 0.1542996366951925 0.6987308967653121	0.089098
C	0.2765272460463919 0.0848006300078268 0.7077853295829613	-0.169079
C	0.3222528867326560 0.0225107438016181 0.6384430578213696	0.121726
C	0.3724740891064400 0.0317964932838706 0.5653080300730551	-0.155077
C	0.3692182539049398 0.1038447736651307 0.5589549496784088	0.090865
C	0.3141989154008797 0.9530451197782526 0.6388360185019479	0.065904
C	0.2374094928023993 0.9659109040570613 0.6480161158651185	-0.123845
C	0.2284798885018091 0.9015858094368028 0.6439150661940474	-0.123418
C	0.2955510061349429 0.8208736051137322 0.6325602755230051	0.067402
C	0.3720970659172380 0.8087788979241068 0.6244006624933647	-0.115326
C	0.3812981215516302 0.8731190370762647 0.6266325536616435	-0.118780
C	0.5723809756416856 0.6787863967625896 0.8374491036748282	0.088501
C	0.5056127616899388 0.6749344797248327 0.8339774910069622	-0.181853
C	0.4308144085950829 0.7356010149191192 0.8775586591950884	0.121026
C	0.4275271894513892 0.8007927165352484 0.9185507374879478	-0.182741
C	0.4975493761383092 0.7994925241018791 0.9210448209442248	0.093486
C	0.3612834095899871 0.7288988248869188 0.8802542458532798	0.043520
C	0.3728912404179425 0.6519499893744083 0.8862122043785163	-0.121735
C	0.3083219604440970 0.6439798235469496 0.8857419426499717	-0.112060
C	0.2285236195108311 0.7127511479047755 0.8795686941258509	0.071671
C	0.2173114675604495 0.7896223334648695 0.8761553944445879	-0.118693
C	0.2817460080737320 0.7977798900614985 0.8765919956174031	-0.115981
C	0.8366829169802656 0.7119137282904049 0.7910983353876588	0.102450
C	0.9046583769134742 0.7150987241316571 0.7827349332075713	-0.170579
C	0.9617506344145639 0.6770598046651273 0.8593302568820889	0.119052
C	0.9489653362009562 0.6333681940628892 0.9400768405871958	-0.162196
C	0.8786694467143263 0.6347934121876477 0.9446588257272808	0.086898
C	0.0302583428159693 0.6855651646462633 0.8599077666575923	0.069174
C	0.0192298011872793 0.7618703746475575 0.8399826854909378	-0.120860
C	0.0825014684836063 0.7710110565765760 0.8483489456821687	-0.127309
C	0.1601126055020927 0.7042213296610313 0.8744339811913306	0.064269
C	0.1707116025926823 0.6278936264730106 0.8920799327537807	-0.109778
C	0.1071950131727775 0.6188756877242554 0.8861168467699585	-0.118930
C	0.6612765432779639 0.8831967153868092 0.8195599288727635	0.097136
C	0.6800695363815024 0.9410724513212401 0.8056503985608217	-0.177165
C	0.7100229078243387 0.9562400279682919 0.8879502074211914	0.107907
C	0.7199719379960712 0.9118261843054611 0.9815375702877844	-0.160937
C	0.6977066736770823 0.8566987173896479 0.9902188544567778	0.095705
C	0.7246914723591971 0.0214657809362109 0.8789609090952908	0.062542
C	0.6601712975749834 0.0998798648547634 0.8496325507236762	-0.134296
C	0.6662433006033623 0.1660561151263735 0.8486767473421395	-0.108920
C	0.7379785433364603 0.1562952851193984 0.8746052408869502	0.061673
C	0.8036176435937179 0.0771378613173042 0.9011447497385916	-0.131507
C	0.7969256235070432 0.0105599807924222 0.9050874841712968	-0.138557
C	0.7975530697623867 0.5221537669160412 0.8901777380105571	0.096717
C	0.8014912320202114 0.4524484565461506 0.8701499533758437	-0.164612
C	0.7454302005629714 0.4378680513099411 0.9193364070678243	0.113056
C	0.6915826066444808 0.4923464046866215 0.9941744701049942	-0.188558
C	0.6934137798330013 0.5591120348919389 0.0124668310188909	0.086588
C	0.7433695535802656 0.3680816708431252 0.8960059907496571	0.045740
C	0.8149499092233725 0.2926306765983284 0.8751809134791557	-0.109148
C	0.8136058595327356 0.2241243611087285 0.8667012159116609	-0.122845
C	0.7406976101655758 0.2287397984061741 0.8772619026006936	0.072260
C	0.6685325519526444 0.3056209888846766 0.8915869777737910	-0.107348
C	0.6699831599302897 0.3738015534796091 0.9007951324049444	-0.113571
C	0.6046713690622738 0.8638131211629414 0.3237656330851664	0.089376
C	0.5429109984352749 0.8541943386777078 0.3067728722200229	-0.157468
C	0.5229458857398868 0.8127339222741483 0.3824946592772065	0.111327
C	0.5660982660801892 0.7839547817758117 0.4728314112904926	-0.164269
C	0.6248426480119775 0.7987835432692592 0.4857089529976264	0.102783
C	0.4566236650576130 0.8021602776314367 0.3719215508539264	0.059189
C	0.3794437820531513 0.8706073999729256 0.3503496796846406	-0.127130
C	0.3138101559911490 0.8639112689406190 0.3524542708661045	-0.113165
C	0.3227688143740650 0.7887028027918106 0.3743528317037601	0.057238
C	0.4010675792015519 0.7196909593380454 0.3918158186892953	-0.128646
C	0.4667464229721645 0.7262986203461566 0.3917346592482360	-0.134052
C	0.9722869089807773 0.7067091249957684 0.4069645239739970	0.102347
C	0.0423829845132246 0.7056345670852977 0.3926906695450043	-0.167170
C	0.0474595521096859 0.7642899734016737 0.4376424885030659	0.112115
C	0.9828735391647214 0.8163413440194560 0.5051933602158982	-0.186230
C	0.9162534447155153 0.8112295613944767 0.5187742660217083	0.085720
C	0.1165786900227062 0.7712410182110077 0.4143172865256020	0.048093
C	0.1940325431383982 0.7025980091087760 0.3916090874234470	-0.109643
C	0.2600569449795813 0.7084935962884700 0.3771244381735599	-0.114811
C	0.2520557692141807 0.7831254618683943 0.3831337397107291	0.078520
C	0.1736527790126701 0.8526115164188042 0.4003173208951694	-0.122445
C	0.1075913571538365 0.8466615596173739 0.4158843294168761	-0.124521
C	0.7826453103082400 0.6784934315575768 0.2900659572209179	0.115923
C	0.7823017356694351 0.6109031638306419 0.2708891362512631	-0.166203
C	0.8251221564811289 0.5398835137795643 0.3345739430444539	0.113947
C	0.8712069960748607 0.5395200522760746 0.4103626288470892	-0.162674
C	0.8658387369605904 0.6106227628183802 0.4267698555887733	0.093943
C	0.8169403289990953 0.4706928861054251 0.3313904797239005	0.072687
C	0.7408501561086496 0.4844917136320390 0.3203822299830250	-0.121654
C	0.7301783021298789 0.4206411430113519 0.3317157280800629	-0.123797
C	0.7949694783781638 0.3397034165401749 0.3531190377713997	0.060888
C	0.8715405485899623 0.3263034975029058 0.3588225424354974	-0.112297
C	0.8822734300368751 0.3899560550015764 0.3490181649952291	-0.124954
C	0.8093801816808295 0.9348011285055193 0.3380936940401114	0.090153
C	0.8145210760913457 0.0015999080170133 0.3375820409371357	-0.181695
C	0.7559061131618776 0.0705595515422601 0.3913221813369105	0.120054
C	0.6922662640725079 0.0683759314259333 0.4422384233189831	-0.178752
C	0.6925577218425545 0.9980754962711629 0.4416603914243282	0.094453
C	0.7636663664961461 0.1399109837245618 0.3911561361707641	0.047049
C	0.8405178214542204 0.1263348034767731 0.3907550143079419	-0.126807
C	0.8502660861295155 0.1905439856617406 0.3801522256064374	-0.122035
C	0.7837025723621807 0.2718629134928889 0.3690199458581276	0.074178
C	0.7067787743697664 0.2848645182550342 0.3731922750062040	-0.118187
C	0.6966752800759792 0.2207945186131965 0.3848004449610585	-0.111858
C	0.3294500572833741 0.2174893372195612 0.1889303925324199	0.113923
C	0.3970494317043105 0.2174494906914859 0.2065359134057942	-0.164299
C	0.4629529350325470 0.1836370316724185 0.1351119149664584	0.121615
C	0.4572560720153831 0.1495618824524314 0.0487413002085333	-0.167806
C	0.3869639607433299 0.1535975925689925 0.0355652603562220	0.079529
C	0.5341961620165421 0.1862929893801635 0.1456375874431544	0.065651
C	0.5250647844081939 0.2576914730981557 0.1744138335743841	-0.110017
C	0.5910047409434256 0.2638650556023521 0.1721359771669739	-0.113491
C	0.6692456170852097 0.1986429578644362 0.1431345918942242	0.058952
C	0.6784001280714520 0.1257288404869001 0.1205429640154421	-0.113398
C	0.6123772034563970 0.1199105384151693 0.1205512762656724	-0.116881
C	0.0756824424784455 0.1820523432419705 0.1590861544921864	0.090188
C	0.0105427885227982 0.1746609034017723 0.1666060820091602	-0.183838
C	0.9389941284011059 0.2331555468721618 0.1174132634954859	0.118831
C	0.9368678823969532 0.2995351987088597 0.0654018555050797	-0.178470
C	0.0051397876618040 0.3019878449360505 0.0598504908312592	0.091403
C	0.8708507121877531 0.2242513531962729 0.1208801564941524	0.044013
C	0.8833298464871646 0.1469462103909152 0.1257558979993192	-0.128551
C	0.8187494316396737 0.1384879960591689 0.1320348026699776	-0.124767
C	0.7384386234995759 0.2068950080698073 0.1345322753438651	0.080606
C	0.7266995305460426 0.2839938211994379 0.1278719924444616	-0.113533
C	0.7910319354366493 0.2926414155537671 0.1208100306027404	-0.110556
C	0.2945936607119322 0.0300095181641638 0.0880462619899731	0.101886
C	0.2940157769781493 0.9605438158454831 0.1097518267116442	-0.161773
C	0.2361830944015182 0.9538278543891110 0.0665167774162043	0.113469
C	0.1861573200641331 0.0159932383896475 0.9942470339685912	-0.190344
C	0.1919340089246759 0.0824279318136831 0.9748425263227745	0.085448
C	0.2276835127420753 0.8856590416787427 0.0949189496241658	0.041273
C	0.2949433175662008 0.8075406660713895 0.1203652370387758	-0.110334
C	0.2877487054665906 0.7418344657624942 0.1371746640579445	-0.114695
C	0.2132407570255168 0.7509860538044677 0.1308613858663037	0.082962
C	0.1450177245700814 0.8303599588950377 0.1119746375962478	-0.118299
C	0.1521734999919673 0.8960794971434183 0.0939676999920422	-0.125834
C	0.1298578475145575 0.3970656998064825 0.1726528840158466	0.097713
C	0.1379008914577255 0.4594114165347278 0.1952017792065490	-0.160252
C	0.1827254503958784 0.4793289538232273 0.1263213555413003	0.122258
C	0.2164216543048241 0.4357205541985678 0.0363756917261782	-0.172179
C	0.2025546907725158 0.3770743589916776 0.0174832603893265	0.091943
C	0.1927748609334898 0.5458618685583261 0.1410473416421141	0.054015
C	0.1247291638142443 0.6240133526170197 0.1597091624093565	-0.128521
C	0.1317572902709472 0.6899688949179463 0.1584102193609098	-0.118058
C	0.2068720869490619 0.6801955844655652 0.1400894229287886	0.053270
C	0.2752638113042494 0.6008046819100201 0.1253265275733426	-0.122847
C	0.2685622598939830 0.5347949359136450 0.1246381851073650	-0.131120
H	0.4444066990046309 0.1824993424458796 0.6687492592385951	0.084830
H	0.5551768651651514 0.1979537510681482 0.7082334647391875	0.117357
H	0.4867750357924336 0.3698736423266666 0.4468418348507370	0.116872
H	0.3778603227378525 0.3470067844216516 0.4187432928667079	0.096002
H	0.6794261640272765 0.1643361168046766 0.6337731270794507	0.094697
H	0.7959758220489235 0.1709052169374772 0.6521164332205629	0.097904
H	0.6501083335538738 0.4300514604213959 0.5825390803138575	0.107546
H	0.5316401505066892 0.4236546594663366 0.5692520784834514	0.095291
H	0.1185419322471901 0.3704421574647583 0.7191985732854320	0.094183
H	0.9952845836539268 0.3674728164183989 0.7440411421871644	0.121460
H	0.0569505781306248 0.2572375784430463 0.4491845665517005	0.122808
H	0.1716928144957066 0.2739882369208146 0.4304433148292830	0.094431
H	0.8602566654883148 0.4360461314932920 0.6344877659258898	0.112820
H	0.7406802264039101 0.4320623277237132 0.6438561442336876	0.110457
H	0.8898581054184120 0.1747734703586517 0.5891157382472301	0.091849
H	0.0109473689305304 0.1792276167470419 0.5810615072523362	0.105100
H	0.3395228782503352 0.3568297572096384 0.7236368336522645	0.086726
H	0.3554394971554942 0.4697935134469446 0.7318047857521108	0.126565
H	0.1478834154055093 0.6152661211160222 0.5418571466479492	0.102741
H	0.1448709995097914 0.4925326249936006 0.5340369596586072	0.084966
H	0.3956034778309174 0.5440378070845782 0.6327740220238809	0.100959
H	0.4134734572283705 0.6563031783106794 0.6299736013958182	0.096258
H	0.1548787129756732 0.8271745069751759 0.6349313781373596	0.088956
H	0.1377763078268472 0.7151055520337835 0.6364710962529614	0.095279
H	0.2425490100778873 0.2023481769624311 0.7539323472400241	0.102385
H	0.2391172983655991 0.0794514216349356 0.7692198526053886	0.101436
H	0.4088560363946740 0.9864635916477908 0.5081838543548898	0.121826
H	0.4034671548425024 0.1148069197566599 0.4980938275732214	0.085964
H	0.1840287002423011 0.0278537645254175 0.6546407976841593	0.102240
H	0.1676439610074567 0.9148912382538938 0.6503588828931086	0.092266
H	0.4262154120537502 0.7478967248942823 0.6154284261583811	0.092221
H	0.4416751961873828 0.8611826886189959 0.6199142205723618	0.098509
H	0.6300988187959931 0.6323166180997219 0.8027033699320967	0.093307
H	0.5122110626206435 0.6243652509446420 0.7966413894849609	0.116903
H	0.3714031505548618 0.8511641138919472 0.9517504128254899	0.102649
H	0.4971920711185689 0.8474626534947873 0.9568324569054596	0.086383
H	0.4335845488541494 0.5968282437626797 0.8916309019025448	0.100282
H	0.3212596412265043 0.5827806277053398 0.8889268782050195	0.110995
H	0.1566701435045559 0.8447543771198553 0.8727006758281703	0.087071
H	0.2706232083062190 0.8583614331883140 0.8702866329705259	0.094187
H	0.7921105201183494 0.7420707866281546 0.7314114723177170	0.101166
H	0.9123393545523868 0.7478406634525570 0.7163399237284622	0.104750
H	0.9897985722659044 0.6043781247738593 0.0033856684508677	0.123333
H	0.8646842995275179 0.6056684396985261 0.0100253862658803	0.083365
H	0.9594342285830351 0.8148924108958582 0.8216157448710533	0.101062
H	0.0712042126561911 0.8313786928772728 0.8331061469964851	0.091157
H	0.2293671032323275 0.5743100250133537 0.9123158260981725	0.099704
H	0.1173748822918483 0.5589744259804661 0.9016065498150709	0.097009
H	0.6422096306284857 0.8671071541837136 0.7551399842404933	0.098566
H	0.6743737683767037 0.9713353470844481 0.7299636579777626	0.116082
H	0.7447904829623440 0.9196155322626112 0.0471812157554368	0.124205
H	0.7034591793647778 0.8209848204276042 0.0615775183418208	0.093236
H	0.6032076694260553 0.1088668006741074 0.8324005133246146	0.095434
H	0.6137874801740821 0.2263429218598105 0.8296936026399067	0.110675
H	0.8595025841459787 0.0681028196538307 0.9235652928744713	0.092801
H	0.8471190865872984 0.9500332194330596 0.9301130095682737	0.115264
H	0.8355834972111325 0.5387823397592442 0.8464172232818683	0.086796
H	0.8439230029522875 0.4130288580068466 0.8108256724795027	0.108355
H	0.6486049328701142 0.4824365309130556 0.0376325476466519	0.114593
H	0.6526085579929415 0.6034107435556493 0.0691905489393392	0.091884
H	0.8725044053064934 0.2870181063337895 0.8690003166484033	0.096400
H	0.8703022844717339 0.1660651688394310 0.8517223117140276	0.093685
H	0.6106453691506175 0.3121554459383660 0.8989275792632512	0.117204
H	0.6131382251209914 0.4323426923983575 0.9132017681217590	0.100893
H	0.6241112006150544 0.8927393307581752 0.2649508310746782	0.090399
H	0.5128507439216676 0.8759724981694177 0.2338808788686322	0.122206
H	0.5541537367445599 0.7502354149400432 0.5334448035313315	0.119980
H	0.6582405847396728 0.7786448005538276 0.5561230980791976	0.094065
H	0.3697409600910646 0.9304828888274983 0.3364681851092541	0.112701
H	0.2550052254538713 0.9191725223470684 0.3369269665566108	0.107232
H	0.4103211108467448 0.6604529044246803 0.4101091826248293	0.092765
H	0.5265713109010761 0.6724735575671161 0.4084638795615518	0.106735
H	0.9642248237225033 0.6668368110929705 0.3646391347471152	0.084818
H	0.0902467519274595 0.6631238325605366 0.3402827026257356	0.110361
H	0.9844237933047779 0.8607911976373614 0.5467270498240424	0.111847
H	0.8645345713822010 0.8508670897977808 0.5696633025237574	0.091243
H	0.2031945850886530 0.6433321107649448 0.3875694235146057	0.101685
H	0.3191445242006026 0.6535715645556195 0.3607524338783961	0.097145
H	0.1647321895265108 0.9117795932371564 0.4044273589426766	0.107717
H	0.0477316341580334 0.9015659721698057 0.4296855795626726	0.090937
H	0.7493732199022318 0.7337960312801926 0.2411908300548902	0.089655
H	0.7468631745469807 0.6169400122630435 0.2072314725743780	0.124601
H	0.9047102640181208 0.4869472374906607 0.4634257898026135	0.113617
H	0.8952527376953725 0.6136206785142377 0.4913763288488084	0.084786
H	0.6889253444291015 0.5467555381131319 0.3072665762223039	0.107254
H	0.6697546870578321 0.4345634425149214 0.3246937178809617	0.093482
H	0.9241647560212058 0.2651200839884780 0.3738326759106059	0.090939
H	0.9423483555116690 0.3770276024558328 0.3560945442326187	0.096507
H	0.8540800041464180 0.8816548161907107 0.2953196963961631	0.094473
H	0.8639895183080952 0.0003245364140270 0.2938632045056337	0.112412
H	0.6440927894277877 0.1199145055871895 0.4848102676454715	0.108492
H	0.6464894702022690 0.9926574441393043 0.4848630656815587	0.088468
H	0.8937100772820727 0.0640409268047364 0.3978496172277985	0.090471
H	0.9111798865589407 0.1766701600009029 0.3787587979584899	0.095438
H	0.6530957717058854 0.3465823999022390 0.3665139924475085	0.088166
H	0.6363938730298955 0.2331455596095964 0.3838683930695268	0.092503
H	0.2785932902229433 0.2433770207741617 0.2448517488947388	0.096711
H	0.3961413965105720 0.2443751857684333 0.2764337415190568	0.120918
H	0.5058236550273705 0.1240594711745402 0.9896122410668227	0.115632
H	0.3796178906972543 0.1307510092396740 0.9670151094937083	0.082238
H	0.4648619320916794 0.3105705554114664 0.1924964374971481	0.106837
H	0.5809182935733972 0.3212166595277779 0.1918843855363761	0.094619
H	0.7375698433540023 0.0734117226189497 0.0982004693162963	0.094141
H	0.6214497085971118 0.0631777481564697 0.0997674073232417	0.094440
H	0.1309893393847759 0.1371966588876887 0.1978273131550594	0.093341
H	0.0155824598669696 0.1233234484589403 0.2119078186174477	0.115053
H	0.8831806591584623 0.3481686897142495 0.0267087471066390	0.105891
H	0.0059303221562317 0.3512707706688758 0.0166860631980441	0.088814
H	0.9447943831447105 0.0924877059330385 0.1243448972312819	0.089313
H	0.8308962583578179 0.0775645340679105 0.1364431502417034	0.096154
H	0.6656189465385864 0.3386199650963846 0.1270018529434083	0.094191
H	0.7793765836027902 0.3533280083775736 0.1186818604374480	0.092270
H	0.3345191222787207 0.0394627315298379 0.1274892984194196	0.089823
H	0.3348046614710682 0.9146459649171064 0.1658363234647737	0.112893
H	0.1425217737263438 0.0126870033538893 0.9540872511757357	0.113696
H	0.1526745233204920 0.1327417752820566 0.9213225217233330	0.088630
H	0.3541502562603682 0.7975284904735318 0.1237557405685195	0.101358
H	0.3415971301061802 0.6819654425037598 0.1548985276014392	0.099421
H	0.0859902674773139 0.8401726163579966 0.1076858614345539	0.108901
H	0.0983882085941445 0.9566800978348695 0.0780135443330607	0.089195
H	0.0986989185319018 0.3772795812126120 0.2266670102143991	0.087155
H	0.1119377815358717 0.4899909577029007 0.2673300596537800	0.119850
H	0.2531590153278032 0.4472834433247854 0.9810610149811936	0.131422
H	0.2253050249575352 0.3437318709224826 0.9467868423362162	0.091126
H	0.0649019490005855 0.6346476283698692 0.1696124480456902	0.112961
H	0.0767707664085577 0.7496660313614711 0.1712057163142049	0.108002
H	0.3344201411367536 0.5906413753945472 0.1084921541252726	0.098026
H	0.3222178326806002 0.4749963759982450 0.1073851637799024	0.117151
Cd	0.2754120636257511 0.2977628583832157 0.5507073283315975	0.764838
Cd	0.6906998710925976 0.7148188344700870 0.9328140880593239	0.783981
Cd	0.7742818476302276 0.8040962801772622 0.4402033640237377	0.783392
Cd	0.1967038727871540 0.2273709989047177 0.0488549749736436	0.776649
B	0.2351509069591842 0.1052002415530211 0.3452312581220625	1.031423
B	0.8950727464685357 0.7767330229017162 0.1451431184088747	1.033635
B	0.7368776826756189 0.6053472260356401 0.6435237541945185	1.032108
B	0.4407691864650047 0.3706434091899879 0.9077045180474101	1.033712
	  	
