#======================================================================

# CRYSTAL DATA

#----------------------------------------------------------------------

data_VESTA_phase_1


_pd_phase_name                         BFFIVE_14_Cd_i
_cell_length_a                         13.72579
_cell_length_b                         13.71156
_cell_length_c                         8.62545
_cell_angle_alpha                      94.27505
_cell_angle_beta                       94.05917
_cell_angle_gamma                      88.65797
_symmetry_space_group_name_H-M         P 1
_symmetry_Int_Tables_number            1

loop_
_symmetry_equiv_pos_as_xyz
   x, y, z

loop_
   _atom_site_label
   _atom_site_fract_x
   _atom_site_fract_y
   _atom_site_fract_z
   _atom_site_charge
C	0.5802106129352185 0.2565607064446603 0.3534000701151913	-0.186198
C	0.4794239637994752 0.2602341913123738 0.3574001451051545	0.100094
C	0.9333018600608228 0.2823110455584257 0.4286189159920709	-0.176129
C	0.0343078143027769 0.2772220855002675 0.4222271604978322	0.106969
C	0.2554757664685292 0.5804718863470605 0.3560067502419041	-0.186438
C	0.2586686034656293 0.4795840161245098 0.3602808417863376	0.099081
C	0.2896674349430818 0.9340220519518267 0.4268192510723600	-0.176548
C	0.2843284196665997 0.0351511809281249 0.4204349157656230	0.109873
C	0.9189885487466667 0.2429326543051731 0.1497892924076325	-0.186073
C	0.0203416551415159 0.2408761035756923 0.1536686937921093	0.099351
C	0.5570104750029251 0.2171213998686879 0.0753225538017793	-0.174244
C	0.4564003417380554 0.2236056254964364 0.0897687944820093	0.104199
C	0.2185301500732783 0.5564205903080205 0.0774488264179051	-0.175332
C	0.2246644765906892 0.4558051941705042 0.0921215401596917	0.102658
C	0.2403139666411406 0.9188612186653743 0.1511722640930428	-0.184434
C	0.2383495986710510 0.0203404711459992 0.1547834660636667	0.101801
C	0.4194180874086839 0.7437955162687950 0.6508775458747427	-0.185309
C	0.5207742130620673 0.7417597186413077 0.6551451303303087	0.100015
C	0.0559690640557051 0.7321232835444592 0.5723068316744732	-0.171556
C	0.9554706654810350 0.7356499312141860 0.5883289707852374	0.102550
C	0.7438802758631866 0.4194572031904572 0.6499797216337738	-0.184240
C	0.7421749802354349 0.5209361089535368 0.6543824667597271	0.099662
C	0.7235535949464386 0.0558603630217729 0.5729301214220776	-0.171778
C	0.7284537447883183 0.9552736978687895 0.5885094378731877	0.102517
C	0.0802803903272827 0.7520838961400982 0.8534235522676632	-0.186563
C	0.9795732577342636 0.7540591783675121 0.8586099312138673	0.101231
C	0.4334764707075173 0.7750451959057396 0.9314117323651510	-0.174139
C	0.5345335611999917 0.7704270343917130 0.9252466281884131	0.105150
C	0.7749353060225561 0.4339344874995522 0.9304972803225259	-0.176775
C	0.7705378648258728 0.5350777908470373 0.9244695112249096	0.106736
C	0.7550880659889095 0.0805019965425744 0.8525607993502710	-0.187816
C	0.7578602151897286 0.9797120034233453 0.8574852917028080	0.100944
C	0.6198150555783918 0.2351959709764202 0.2088518686772519	0.188565
C	0.8746648271054950 0.2632132751179313 0.2907739524055140	0.187918
C	0.2355787476159440 0.6196758853500254 0.2111401214822017	0.191712
C	0.2655844727187131 0.8749149563572874 0.2907617656159091	0.188480
C	0.3748893188583624 0.7606108926607831 0.7924371729197491	0.187463
C	0.1192940727147574 0.7413041842984686 0.7068379707393282	0.189025
C	0.7603055789874713 0.3751442744409694 0.7913981612908810	0.188574
C	0.7379847727704059 0.1193962288390514 0.7068957989775367	0.189232
H	0.6274783761580555 0.2671501650050906 0.4599266853533345	0.098030
H	0.4444134675626188 0.2758592303574742 0.4663640318764624	0.101098
H	0.9001110067925445 0.2996616132719453 0.5385459755033516	0.123444
H	0.0829969161294212 0.2881355502672507 0.5271425970747878	0.102479
H	0.2651720736005109 0.6282913852833685 0.4623844773853595	0.099453
H	0.2731038401365722 0.4447884235625953 0.4694695719979655	0.101501
H	0.3112389760821622 0.9010637893724514 0.5353207936799771	0.123992
H	0.2998005527778768 0.0841631650003575 0.5241699401085937	0.100736
H	0.8749889276584610 0.2317414229796725 0.0399516057663079	0.103458
H	0.0613647997049188 0.2258702315023309 0.0495159758941201	0.110014
H	0.5862211494718398 0.1992404009020190 0.9622540191621168	0.127633
H	0.4040824634870572 0.2121486316171098 0.9887959854593636	0.112120
H	0.2018509053294455 0.5853130604153022 0.9640779598962569	0.128023
H	0.2141539542912990 0.4030990849137538 0.9911333394639396	0.113038
H	0.2254667002003349 0.8744590563961672 0.0423407289998675	0.103904
H	0.2201337254636031 0.0610247213515894 0.0514346758327654	0.108594
H	0.3757766329837722 0.7346413467548411 0.5403302615757977	0.100443
H	0.5617796494281778 0.7291909297406428 0.5505398261952791	0.109921
H	0.0846361782863845 0.7229946632022753 0.4573967341626615	0.128710
H	0.9028843988556893 0.7296368216459377 0.4870188913668126	0.111852
H	0.7350554412484324 0.3754805246269680 0.5394340405553879	0.100890
H	0.7298704371193979 0.5618180320656211 0.5499030385147465	0.109842
H	0.7094662218210399 0.0844971450279020 0.4588549103149840	0.128497
H	0.7191369685003148 0.9023928610934142 0.4875835379165167	0.112369
H	0.1276425778405100 0.7565831860183185 0.9604692563584103	0.095469
H	0.9451121952520131 0.7622248385615771 0.9690909264313937	0.100430
H	0.4000972699080031 0.7887833623737226 0.0419643369934963	0.123480
H	0.5830488912560795 0.7782251580492332 0.0308554620495145	0.103568
H	0.7885258244506643 0.4006903437130727 0.0409187028637179	0.124047
H	0.7782992457120780 0.5837949263147172 0.0301862550363468	0.103363
H	0.7633566795160186 0.1280675407237289 0.9594198884659065	0.095929
H	0.7705497449886972 0.9453111345724725 0.9672747749063618	0.101572
N	0.7726139977080435 0.2695715426818621 0.3040894401541763	-0.101467
N	0.2724557577564956 0.7727108143403791 0.3039342580474168	-0.103165
N	0.7217277115588008 0.2278612819738772 0.1914293589476847	-0.098755
N	0.2282197027376502 0.7216134559542321 0.1938986363072642	-0.100413
N	0.2210196445700882 0.7358829247467477 0.6871884913872883	-0.098608
N	0.7314192546658442 0.2212601632392510 0.6880470428911457	-0.099915
N	0.2729056420919315 0.7666001857633427 0.8070610192808508	-0.100944
N	0.7664557496408246 0.2730846759737744 0.8052770717448239	-0.101014
N	0.4186914729734707 0.2446325560438331 0.2285408240781427	-0.226011
N	0.0767682688455201 0.2567649300624897 0.2876032583359354	-0.224703
N	0.2441586264688822 0.4184863620729958 0.2312692121296325	-0.224969
N	0.2589224879028068 0.0771886330795151 0.2872895866750800	-0.224718
N	0.5771107039334500 0.7544395765495419 0.7898184302471873	-0.224820
N	0.9183609600812915 0.7462035879016803 0.7291608370312294	-0.225626
N	0.7548128513858200 0.5774955230877437 0.7891864762931333	-0.225168
N	0.7449988730739158 0.9183078206833145 0.7284720780333145	-0.225034
F	0.3526087546798412 0.2257221813492923 0.7448847343231332	-0.455268
F	0.2354590828224891 0.3527571897957256 0.7496983045560905	-0.454830
F	0.1930921428669096 0.1964453452924796 0.6463081664413022	-0.449539
F	0.7337770869716330 0.8576927339235512 0.2477642976742276	-0.452531
F	0.8568952687045343 0.7365750335793720 0.2482255324266059	-0.451562
F	0.6980084851474606 0.6976788718071669 0.1564492502505886	-0.442523
F	0.2933955701357697 0.2912098009872801 0.5175002256968061	-0.452110
F	0.2060209150096687 0.2072904384648395 0.0036238202391990	-0.595839
F	0.7080394887791792 0.7086979399252320 0.5025620055289027	-0.597443
F	0.7920568446346221 0.7928116862981990 0.0175011140361742	-0.451723
B	0.2673670170240647 0.2654159085185199 0.6725294691726640	1.046756
B	0.7691666502912941 0.7702011002264667 0.1752084568959554	1.043649
Cd	0.2463138201248211 0.2463198704839771 0.2437710180913585	0.770993
Cd	0.7464010839649305 0.7465114739453867 0.7435430560289908	0.769175
	  	
