#======================================================================

# CRYSTAL DATA

#----------------------------------------------------------------------

data_VESTA_phase_1


_pd_phase_name                         BFFIVE_1_Zn
_cell_length_a                         11.43003
_cell_length_b                         11.43001
_cell_length_c                         8.17126
_cell_angle_alpha                      89.86279
_cell_angle_beta                       90.13379
_cell_angle_gamma                      89.98136
_symmetry_space_group_name_H-M         P 1
_symmetry_Int_Tables_number            1

loop_
_symmetry_equiv_pos_as_xyz
   x, y, z

loop_
   _atom_site_label
   _atom_site_fract_x
   _atom_site_fract_y
   _atom_site_fract_z
   _atom_site_charge
C	0.2492455728635875 0.4608008475636590 0.3692503813646875	0.099308
C	0.1275443366302766 0.4593619197534844 0.3645165495454509	-0.183893
C	0.7511710408372427 0.5388658021835916 0.3682845202069603	0.097063
C	0.8727917288347723 0.5404302629824344 0.3638587392040336	-0.182672
C	0.5391179062887607 0.2494558308057232 0.3689312323170805	0.100355
C	0.5405761397123046 0.1277699836972775 0.3642905525965079	-0.184114
C	0.4610707570743993 0.7513427429394818 0.3691353066944284	0.096777
C	0.4595222640860147 0.8729632481167894 0.3643774820299007	-0.181885
C	0.7513503980795763 0.4610681335071831 0.6308897039657586	0.096732
C	0.8729642050042974 0.4595185139307292 0.6356362132873715	-0.181784
C	0.2494480468824987 0.5391173951906360 0.6310633659140878	0.100277
C	0.1277672719132221 0.5405779947603467 0.6357057038890015	-0.184085
C	0.4608034999184765 0.2492357503497885 0.6307514562762009	0.099311
C	0.4593633416571994 0.1275316986062344 0.6354887586865101	-0.183659
C	0.5388700635332467 0.7511669984556758 0.6317332863862979	0.097094
C	0.5404367081834890 0.8727911732901530 0.6361514593528885	-0.182884
C	0.0647183538373895 0.4999601100904236 0.5000335274598861	0.100899
C	0.9358824068835818 0.4999676662103836 0.4998411954596780	0.099574
C	0.4999635216073101 0.0647161716454105 0.4999637594856096	0.100776
C	0.4999726103118110 0.9358768680406120 0.5001644011407951	0.099629
H	0.3026889833930421 0.4313535578522961 0.2666082374207188	0.103194
H	0.0816797047364565 0.4250299174275814 0.2577880620385962	0.115357
H	0.6975559897283835 0.5677513791808456 0.2651451308321948	0.104615
H	0.9184859025478763 0.5745995170262053 0.2569108367434412	0.114606
H	0.5688198530320920 0.3032134800260954 0.2664721324433549	0.100930
H	0.5748915307517193 0.0820462387861167 0.2577178028764675	0.114895
H	0.4323708665352175 0.6979757988333393 0.2659181445836030	0.103750
H	0.4253145561084393 0.9187216196028658 0.2572230372451489	0.114871
H	0.6979845049746972 0.4323608247679892 0.7341118093653238	0.103749
H	0.9187247270054071 0.4253116420094136 0.7427945507781694	0.114788
H	0.3031987906771183 0.5688188441135903 0.7335247720673668	0.100838
H	0.0820393749059097 0.5748913367232464 0.7422763122206105	0.114903
H	0.4313509372654987 0.3026710489458088 0.7333963574051028	0.103049
H	0.4250347448534097 0.0816641371965796 0.7422176265442799	0.115291
H	0.5677602959513401 0.6975579884826282 0.7348763726716118	0.104566
H	0.5746076788327175 0.9184824142582536 0.7430891980269847	0.114666
Zn	0.5004171151581844 0.5004112463105118 0.4999789435437445	0.698987
B	0.4988460380133979 0.4988590998629453 0.9997738641791135	1.115559
F	0.5021030241490175 0.4973273103420820 0.7444476068877709	-0.582003
F	0.4973632852777137 0.5021807122062233 0.2556834174994583	-0.582449
F	0.4144525140643960 0.4146434588017728 0.0000056448163310	-0.422786
F	0.6138659154033654 0.4675901107554685 0.0031391764490832	-0.422850
F	0.4677708105367377 0.6139361586998241 0.9967892174574980	-0.422812
N	0.3086619440077973 0.4999844721640459 0.5003015645338499	-0.211969
N	0.6918678563475839 0.4999847463300244 0.4994419398163005	-0.212324
N	0.4999873742540885 0.3086598405447792 0.4997084213326790	-0.211977
N	0.4999855253489197 0.6918640476294533 0.5005923849580395	-0.212261
	  	
