#======================================================================

# CRYSTAL DATA

#----------------------------------------------------------------------

data_VESTA_phase_1


_pd_phase_name                         BFFIVE_13_Co_i
_cell_length_a                         14.99014
_cell_length_b                         14.99240
_cell_length_c                         8.06748
_cell_angle_alpha                      92.49517
_cell_angle_beta                       87.97376
_cell_angle_gamma                      89.98262
_symmetry_space_group_name_H-M         P 1
_symmetry_Int_Tables_number            1

loop_
_symmetry_equiv_pos_as_xyz
   x, y, z

loop_
   _atom_site_label
   _atom_site_fract_x
   _atom_site_fract_y
   _atom_site_fract_z
   _atom_site_charge
C	0.5416546938342506 0.6728206378290051 0.8819183134204002	0.094096
C	0.5456454071526823 0.7653234319926810 0.8778771427958639	-0.145400
C	0.4649043359813068 0.3239668223359005 0.8835724762651921	0.093860
C	0.4628124307741964 0.2312733885902554 0.8772960988109342	-0.134961
C	0.8281057057006452 0.9714416255420500 0.3698106778051068	0.095325
C	0.7357458520739613 0.9697048100353083 0.3616205073467158	-0.140550
C	0.3292599786912692 0.5391885749162592 0.8810484861870879	0.093795
C	0.2367939772342007 0.5435877130801675 0.8759288424484475	-0.146823
C	0.1778431929681913 0.9763247521162288 0.3649620035692140	0.084545
C	0.2704917808971806 0.9750941256345902 0.3569216713372553	-0.140525
C	0.6777784784256551 0.4616719691827327 0.8805347291536622	0.094339
C	0.7704485218786432 0.4599633527003744 0.8728648492900660	-0.134616
C	0.4546667353493649 0.6814916154969396 0.1271259644040849	0.089396
C	0.4527889737298380 0.7740367396189007 0.1272337113042879	-0.133526
C	0.5428834050078627 0.3272731079090303 0.1290053006716043	0.089561
C	0.5461412674611514 0.2345735374952118 0.1271668246323127	-0.146295
C	0.1756747115630139 0.0218913535281528 0.6446898548497226	0.091214
C	0.2681269778586457 0.0245395924854639 0.6452464076967327	-0.140223
C	0.6759657851864302 0.5476942386951974 0.1284435377725099	0.091438
C	0.7686421013620877 0.5515166244291294 0.1255291612150700	-0.146074
C	0.8190182665897247 0.0261671454771363 0.6448276984724343	0.082463
C	0.7265637730569351 0.0284172985015203 0.6447800990094525	-0.140435
C	0.3202337797395307 0.4588822403223325 0.1226171550708373	0.087990
C	0.2276450507371674 0.4574101564630575 0.1209806806043119	-0.134859
C	0.9664015976297201 0.8211742643058654 0.6356685457262214	0.087890
C	0.9644008416871691 0.7286732193885447 0.6339674844086765	-0.138427
C	0.9825978606496595 0.1797653455110710 0.6503784789733518	0.076244
C	0.9810188878776085 0.2722370590102870 0.6494332441429753	-0.142087
C	0.0229459613228863 0.8194942381032028 0.3629218392379731	0.088366
C	0.0247852439222408 0.7268418500032013 0.3530260972733296	-0.141851
C	0.0240338027993565 0.1684424984642172 0.3689392509682407	0.092956
C	0.0265189452097978 0.2606615305992546 0.3597455215902473	-0.138360
C	0.0035065899380504 0.3137045476319237 0.5016878762965934	0.061022
C	0.0011715283292885 0.4116354858658309 0.4958268666557210	0.257609
C	0.5002765087942790 0.8173110220537115 0.0019650414925105	0.075989
C	0.5017342548087984 0.9159818728697732 0.0003620512822237	0.254556
C	0.9954274754723503 0.6802514294214690 0.4912805767276502	0.059694
C	0.9965970087719253 0.5819974849763678 0.4894059650211963	0.250080
C	0.5043758227429856 0.1853126550247209 0.0007286266580944	0.077443
C	0.5035726931247735 0.0864676658456053 -0.0021115925730430	0.253685
C	0.6838100215450328 0.9991572060108924 0.5009146044214764	0.060021
C	0.5856328176446712 0.9999531644302121 0.4974394789997251	0.251849
C	0.1848212623191596 0.5017107690876574 0.9970679144255516	0.075744
C	0.0862720579284380 0.5031614742425863 0.9941300455975954	0.253695
C	0.3167308384918324 0.9997980978666319 0.4993775940699623	0.062649
C	0.4149402292994926 0.0005594564174588 0.4969349492001948	0.256274
C	0.8170484870068866 0.5058865207870024 -0.0029828054252135	0.075695
C	0.9158266496649199 0.5052984268577296 -0.0072871533274035	0.255398
H	0.5716019487372427 0.6288843157956198 0.7843557552021421	0.115088
H	0.5828858088610921 0.7961748879997723 0.7772516549785410	0.130303
H	0.4376403016658814 0.3633417289060472 0.7868100075441083	0.117218
H	0.4316410603107230 0.1946914231217284 0.7749489745953642	0.121391
H	0.8721007994730355 0.9526347295834535 0.2637731721088662	0.116034
H	0.7047899994705440 0.9471609801765223 0.2470154842483901	0.125901
H	0.3731244958303412 0.5665310757053335 0.7854156777925688	0.113752
H	0.2058163309345397 0.5782791488799528 0.7769610864408925	0.131178
H	0.1385334002805682 0.9622780373120048 0.2560402227561506	0.111686
H	0.3057381925463687 0.9571110773496034 0.2397207281741898	0.120905
H	0.6378505427134179 0.4313012847959211 0.7830782288450915	0.118187
H	0.8067757255092938 0.4261413414186769 0.7689142153051602	0.121812
H	0.4221399211922596 0.6454085150612583 0.2264044660769269	0.107901
H	0.4183117619499271 0.8126693474783948 0.2274203446950273	0.118027
H	0.5720709220708527 0.3680143074632951 0.2281212139307122	0.103325
H	0.5798432756184775 0.2016139827532480 0.2251409033650855	0.131203
H	0.1360631194491619 0.0380588740052899 0.7570328005784838	0.102710
H	0.3016103157728858 0.0440601746615742 0.7588915163630421	0.124105
H	0.6357732490792412 0.5795128825747609 0.2291432711957634	0.105856
H	0.8023805403673677 0.5884967758346679 0.2240675618272175	0.130533
H	0.8543961476937013 0.0458731116322038 0.7557525806906431	0.098673
H	0.6886258448898360 0.0513033239704266 0.7562791728510664	0.118561
H	0.3560815324586613 0.4286120754046560 0.2210353007692439	0.107152
H	0.1885908510400127 0.4252025570117861 0.2179539475610913	0.119123
H	0.9442485506981817 0.8605038676950715 0.7457213892122758	0.103384
H	0.9405763640701483 0.6946913754478359 0.7437076900495214	0.121080
H	0.9683176838716949 0.1457390603134630 0.7646038314848175	0.099463
H	0.9634996969721763 0.3111012674677773 0.7632230407392137	0.119516
H	0.0410888415546763 0.8590991522064849 0.2571252772114312	0.110356
H	0.0476308237722276 0.6918489689032827 0.2380824841237069	0.121001
H	0.0366668825993106 0.1236130190908038 0.2610448623761014	0.117706
H	0.0438074737647023 0.2906520103640511 0.2421780284423503	0.126551
N	0.9335886682680421 0.5430953824268998 0.5854513799626698	-0.192210
N	0.4228251162725389 0.0470348270843082 -0.0011730282992295	-0.192507
N	0.5434276281248999 0.0645399266697554 0.5916064707185363	-0.193108
N	0.9552796759679385 0.4246148874484552 -0.0081353496225871	-0.189109
N	0.0602856101094288 0.5400208723112669 0.3936117367104461	-0.191110
N	0.5832951700231039 0.0450583952225492 -0.0056248062109663	-0.190416
N	0.9571439051653815 0.5849280271313594 -0.0110880339539400	-0.192178
N	0.5469732258924089 0.9365397371862710 0.4006962831337659	-0.193198
N	0.0627263110958228 0.4503731499627540 0.3970316834220040	-0.184885
N	0.5824287084426608 0.9551628657561794 -0.0082845892020484	-0.193311
N	0.4572553019004736 0.9373294730653077 0.4002376490482419	-0.181622
N	0.0470084691498968 0.5834784304852521 0.9862947317923376	-0.191254
N	0.9362448095718987 0.4536664664254910 0.5886197544873573	-0.183408
N	0.4219253634515340 0.9575283245428977 0.0057807259159508	-0.188911
N	0.0448499535685386 0.4234120368042550 -0.0025424851816246	-0.191151
N	0.4537659698725946 0.0645900632968428 0.5918557626047336	-0.186776
N	0.0025674766701588 0.1288321015825468 0.5120502923798191	-0.177472
N	0.4981946690371770 0.6318050523212614 0.0063481025514330	-0.191802
N	0.9961555481704564 0.8658566547724268 0.5030889942631495	-0.178852
N	0.5030640178789939 0.3708853122817322 0.0088921864023738	-0.191748
N	0.8688627170316375 -0.0012566618489759 0.5097584619110864	-0.176727
N	0.3699494495852392 0.4989094275768628 0.0044229475693757	-0.189149
N	0.1312198723413407 0.9978354435074326 0.5073774821687558	-0.180205
N	0.6314584652911975 0.5036414606334538 0.0078516261036777	-0.194103
Co	-0.0002759538122980 0.9973858068043523 0.5098912018840307	0.661812
Co	0.5004395581903257 0.5010146976904796 0.0083623599135966	0.694704
B	0.9956902171813162 0.9949272950258481 0.9488366924631030	1.053042
B	0.4938524143590263 0.5008918015717977 0.4406965271640085	1.062389
F	0.0031316556731045 0.9937133845412603 0.2805619529391187	-0.480415
F	0.5065054890785216 0.4942459796425049 0.7820224986915023	-0.472346
F	0.9954491239823451 0.9981051132686750 0.7621302393818364	-0.435607
F	0.4903840277444343 0.5117276198707928 0.2542731199289835	-0.435072
F	0.9304403432000975 0.9322980091670354 0.9893501601370636	-0.430554
F	0.4312542342975193 0.4350058587016620 0.4754980778202604	-0.445423
F	0.9736704564945823 0.0822208396677812 0.0036221166386473	-0.433150
F	0.4711201445978760 0.5855148926825242 0.5069387871991905	-0.444685
F	0.0820504643461042 0.9688710787631776 0.9833570180632798	-0.432609
F	0.5816166773298054 0.4750090834176840 0.4654137515876910	-0.446424
	  	
