#======================================================================

# CRYSTAL DATA

#----------------------------------------------------------------------

data_VESTA_phase_1


_pd_phase_name                         BFFIVE_7_Ni
_cell_length_a                         19.14311
_cell_length_b                         19.14280
_cell_length_c                         8.55102
_cell_angle_alpha                      90.65939
_cell_angle_beta                       89.35498
_cell_angle_gamma                      90.01528
_symmetry_space_group_name_H-M         P 1
_symmetry_Int_Tables_number            1

loop_
_symmetry_equiv_pos_as_xyz
   x, y, z

loop_
   _atom_site_label
   _atom_site_fract_x
   _atom_site_fract_y
   _atom_site_fract_z
   _atom_site_charge
C	0.6600310706448809 0.8654096308202853 0.6844990503599537	0.098949
C	0.6105575155116462 0.9186303349509400 0.6898405480057002	-0.182615
C	0.5821169020796928 0.8907187047057957 0.4239455093583153	-0.175621
C	0.6325387391345817 0.8387904788077662 0.4273322043747400	0.094014
C	0.8385307130513181 0.6365003176476270 0.6860061217442348	0.097645
C	0.8878903575357515 0.5832313701491820 0.6913512508204862	-0.180380
C	0.9188571269503614 0.6084470572833773 0.4254591544505372	-0.179104
C	0.8683966245423678 0.6603900482797198 0.4285596506444282	0.091175
C	0.6355507740793452 0.6601515337944989 0.6878783391493665	0.096575
C	0.5823407764121724 0.6106503942631144 0.6933609261363749	-0.181768
C	0.6080756813224284 0.5816678350301134 0.4254451158394663	-0.177733
C	0.6599118411172001 0.6322298692474458 0.4284712175595221	0.087249
C	0.8645909543337491 0.8385178484608063 0.6827740042409732	0.100159
C	0.9178637694579639 0.8879168731410616 0.6878546400948399	-0.181907
C	0.8900436395508694 0.9186783704586986 0.4246295107912164	-0.176493
C	0.8380145139828641 0.8682694983238395 0.4281443552765127	0.094145
C	0.3385259187024658 0.3645881524501858 0.3171466795204542	0.100352
C	0.3879277988216755 0.4178522105948144 0.3120922436401276	-0.182010
C	0.4187034045847682 0.3900334441018196 0.5753254949211817	-0.176817
C	0.3682937075820319 0.3380148424749163 0.5717750855473601	0.094454
C	0.1601478593902162 0.1355518279107614 0.3121844628798797	0.096419
C	0.1106381982739963 0.0823457265219864 0.3067066720778583	-0.181815
C	0.0817066008354896 0.1080970931569030 0.5746322969506901	-0.177632
C	0.1322773478822798 0.1599309992347725 0.5716081981145120	0.087340
C	0.3654318050425546 0.1600340672118938 0.3155582247733607	0.099043
C	0.4186374102808713 0.1105510185197843 0.3102201111513427	-0.182538
C	0.3907220947172987 0.0821238815104622 0.5760912995273234	-0.175728
C	0.3388139413263693 0.1325627240471421 0.5727053266064593	0.094251
C	0.1364952056654629 0.3385404325808244 0.3139056723245273	0.097791
C	0.0832291274032508 0.3878972096261006 0.3085826672250551	-0.180226
C	0.1084632247819821 0.4188687850718025 0.5744930684055867	-0.179022
C	0.1604051268663357 0.3684085932080948 0.5713675473470458	0.088570
C	0.4329810990777054 0.0702944416505882 0.4427390082350330	0.139380
C	0.4881087167617100 0.0177388344061543 0.4371862776486951	-0.122551
C	0.0674248170142869 0.4292927799458445 0.4413094993447551	0.139767
C	0.0122211715983240 0.4816387647382694 0.4367156330590105	-0.121608
C	0.4292321961651271 0.4323553662123960 0.4436286744992632	0.139028
C	0.4816235368428285 0.4875821485829543 0.4388797354954123	-0.123066
C	0.0701405258080424 0.0668871153481586 0.4401893286458872	0.139658
C	0.0176176901202697 0.0117563276319211 0.4350144873635997	-0.122291
C	0.5668696327063554 0.5701323965391489 0.5599011807923946	0.139909
C	0.5117385103632466 0.5176082953984766 0.5650415601922913	-0.122047
C	0.9323698865254224 0.9292213405907906 0.5563363379226002	0.138965
C	0.9875900885286781 0.9816278738230108 0.5611675201605710	-0.123063
C	0.5703057157461403 0.9329861909410121 0.5573114305369546	0.139402
C	0.5177452928031885 0.9881157934130742 0.5628686203713983	-0.122544
C	0.9292880321503934 0.5674199673528292 0.5586417004903966	0.139765
C	0.9816434847082975 0.5122237687013722 0.5632514847268169	-0.121613
H	0.6919537793307469 0.8512167282556479 0.7845629817765769	0.111904
H	0.6035128295648103 0.9491889712378581 0.7973034310161305	0.113125
H	0.5513568672340936 0.8969838272782876 0.3186070975446805	0.113536
H	0.6432222333081308 0.8056099484580532 0.3255833937082155	0.096188
H	0.8058750877329783 0.6518429030291965 0.7863148931877687	0.111294
H	0.8940315541158733 0.5538428186352651 0.7988330219437727	0.113093
H	0.9507950421442899 0.6012454206422969 0.3202863507217358	0.113362
H	0.8589777283559255 0.6925041024402856 0.3264457961334059	0.097819
H	0.6505722423270518 0.6921271473636345 0.7888616125288500	0.112906
H	0.5525370661341248 0.6038947928908219 0.8015891774403880	0.112975
H	0.6011034899418660 0.5506078689199487 0.3192471262990152	0.113455
H	0.6918054774798158 0.6428776742481694 0.3251659578379842	0.100497
H	0.8502443167198075 0.8058875648970022 0.7822122780630728	0.111534
H	0.9481630975173830 0.8941910790772181 0.7943660423530702	0.113465
H	0.8962982881594429 0.9505315875018623 0.3206488724225579	0.113441
H	0.8043605265104564 0.8590384640484554 0.3279306496628019	0.096071
H	0.3058875790434768 0.3502403216832489 0.2177064949644414	0.111482
H	0.3941922625621290 0.4481619200450263 0.2056132733835019	0.113472
H	0.4505484905672483 0.3963076786968556 0.6793208512013394	0.113500
H	0.3590676476435852 0.3043692885063452 0.6719856129329475	0.096216
H	0.1921085570020112 0.1505650925984730 0.2111953499992646	0.113000
H	0.1038683148296994 0.0525318711440764 0.1984905507905282	0.113034
H	0.0506625775911044 0.1011229889567168 0.6808436134180056	0.113560
H	0.1429384707047232 0.1918127177276751 0.6749406793534104	0.100357
H	0.3512338330849339 0.1919487988325028 0.2154939372622951	0.111858
H	0.4492032882294170 0.1035018798311252 0.2027861102835612	0.113114
H	0.3969931560895085 0.0513662056975997 0.6814249418127073	0.113567
H	0.3056433137362617 0.1432534300141501 0.6744605004485781	0.095977
H	0.1518354179397808 0.3058813091924909 0.2135879424534225	0.111434
H	0.0538244441928965 0.3940347448194381 0.2011036989108607	0.112819
H	0.1012624144991372 0.4507987123386645 0.6796929701832217	0.113361
H	0.1925295508679998 0.3590086096564526 0.6734870002477777	0.100840
H	0.5067561967118323 0.0026841436724565 0.3201370563973560	0.100683
H	0.9945194113118104 0.4958160903623718 0.3200431603114940	0.099729
H	0.4961820457843734 0.5058929185473496 0.3221527211001025	0.100964
H	0.0028976136926012 0.9936742571942070 0.3180592221639685	0.100258
H	0.4936708634659295 0.5028979586086172 0.6820099985607844	0.100259
H	0.0059067443680613 0.9961827054772240 0.6779016469963284	0.101121
H	0.5027016084497246 0.0067628479771677 0.6799250266153156	0.100709
H	0.9958247137947964 0.4945310569296444 0.6799261050151881	0.099732
Ni	0.2500992215365518 0.2496093755538048 0.4376281462868551	0.719597
Ni	0.7495981078920578 0.7500704545938351 0.5622774518917952	0.719240
B	0.2511288831138556 0.2519490091192016 0.8623342400549971	1.058165
B	0.7518234779155148 0.7510787761512918 0.1376218466648490	1.058048
F	0.2523491516829214 0.2478859674539697 0.2152524950912094	-0.584764
F	0.2468785076546531 0.2517257119759166 0.6877705724454104	-0.454529
F	0.7479586536866992 0.7523979798136381 0.7846980245735932	-0.584592
F	0.7516241366285804 0.7466224319905186 0.3121825332077570	-0.454081
F	0.2026075579864023 0.2017748163028841 0.9115099040350583	-0.455689
F	0.2340415919845831 0.3200607568165073 0.9104339255269732	-0.456044
F	0.3203648956693333 0.2340654997269342 0.8961334310661802	-0.458788
F	0.7339605816996869 0.8203246218414473 0.1042194744350601	-0.458638
F	0.8199103403076828 0.7340249512672747 0.0894382781741634	-0.455453
F	0.7015875060545558 0.7026475251245731 0.0882004992664293	-0.456153
N	0.3263709889819902 0.1712103808409236 0.4454613148168832	-0.227028
N	0.1740708995717305 0.3284572096736424 0.4438494238548290	-0.226989
N	0.3284548610969752 0.3256638200627330 0.4456122043352861	-0.228149
N	0.1712377298147915 0.1734247463253644 0.4432784348615014	-0.226013
N	0.6734157874676943 0.6712142659076671 0.5567773178113985	-0.226120
N	0.8256629123943932 0.8284369230909093 0.5542942195993981	-0.227997
N	0.6711919947627729 0.8263434097497095 0.5545797546885081	-0.226894
N	0.8284436335724962 0.6740600403208600 0.5560598365209207	-0.226655
	  	
