#======================================================================

# CRYSTAL DATA

#----------------------------------------------------------------------

data_VESTA_phase_1


_pd_phase_name                         BFFIVE_4_Fe_i
_cell_length_a                         24.41981
_cell_length_b                         19.08816
_cell_length_c                         8.85602
_cell_angle_alpha                      82.83514
_cell_angle_beta                       57.53238
_cell_angle_gamma                      89.83749
_symmetry_space_group_name_H-M         P 1
_symmetry_Int_Tables_number            1

loop_
_symmetry_equiv_pos_as_xyz
   x, y, z

loop_
   _atom_site_label
   _atom_site_fract_x
   _atom_site_fract_y
   _atom_site_fract_z
   _atom_site_charge
C	0.4688245743062438 0.5857437799718808 0.6447718664464059	0.108423
C	0.4216295632111434 0.5473732858216069 0.6396065727765698	-0.142771
C	0.2526973697381846 0.5412557508808835 0.7685473369263240	-0.133946
C	0.2028615525946251 0.4991415431447084 0.7835584756594712	-0.132166
C	0.1386930757725333 0.3884481404903227 0.6835100401830408	-0.181918
C	0.1007276270218844 0.3368867323749309 0.6748267330644536	0.096879
C	0.9646087494880868 0.0826363016381542 0.6349327928159181	0.109971
C	0.9165915954416654 0.0451202234731266 0.6318396025620886	-0.144959
C	0.7486212255432304 0.0370559997774847 0.7605374766854806	-0.133642
C	0.6996238995087367 0.9931844864887350 0.7761181411150752	-0.133409
C	0.6409435813798177 0.8776273100342027 0.6744730717235121	-0.182276
C	0.6025627232387181 0.8260272896612303 0.6676556666768724	0.093118
C	0.5605254697500155 0.4649573843284699 0.2231347521814310	0.100809
C	0.6045377632906569 0.5176191025396972 0.2015817771493729	-0.167490
C	0.7716996634264651 0.5296882575112907 0.1038729478486857	-0.127298
C	0.8205532954822530 0.5715170432191854 0.0926182738293888	-0.126121
C	0.9215942400177903 0.6774625031507938 0.0515788097447520	-0.163527
C	0.9658966310900726 0.7135113411443400 0.0723954789719273	0.087809
C	0.0592081395544759 0.9558067219186381 0.2029691160610312	0.095021
C	0.1004912100428193 0.0089002087234848 0.1921831842092838	-0.169291
C	0.2637852977994262 0.0237907197824966 0.1203751967072207	-0.126988
C	0.3103316184076639 0.0671698626524381 0.1154060982188440	-0.125615
C	0.4084449176155071 0.1718928200045220 0.0785921382458869	-0.168285
C	0.4524679107887306 0.2056159532606160 0.1042644023168488	0.092334
C	0.6386640813489814 0.6340780435507003 0.7060897784241457	0.093693
C	0.6838709275881177 0.5856615202620322 0.6823716182119871	-0.185682
C	0.6980621053138930 0.3994037394989499 0.8211681142007200	-0.106294
C	0.7463668583497648 0.3596621587507853 0.8184287188519520	-0.129961
C	0.8615668354899317 0.3326397302552427 0.8640848354611034	-0.188535
C	0.9117092062573158 0.3005302480571747 0.8696389270101550	0.083754
C	0.1433603243259569 0.1282715172437560 0.7194000789283825	0.088682
C	0.1891686802496325 0.0808826625987754 0.6981284437467020	-0.184240
C	0.2072480384588304 0.8940303876270175 0.8070782719736531	-0.112746
C	0.2555493559057609 0.8554492357115241 0.8084512767071192	-0.132401
C	0.3695808154085965 0.8322457013864687 0.8681020866836622	-0.187374
C	0.4171384576205712 0.7967614849553123 0.8800295169049343	0.075797
C	0.4015950334579437 0.4162411339019469 0.3685592555525318	0.086939
C	0.3482171982452794 0.4493457072929694 0.3877923282524726	-0.163291
C	0.2655857441684323 0.5530135207709589 0.3500144930668783	-0.118594
C	0.2147105378865814 0.5914134168739714 0.3664680853823551	-0.136044
C	0.0851351165557277 0.6477859960908540 0.4519422436332754	-0.185575
C	0.0480516907906230 0.6999827083835857 0.4362462070789176	0.079588
C	0.9019752088764382 0.9077182934031149 0.3770286271395684	0.074942
C	0.8501208136432861 0.9421758517261140 0.3899961967124108	-0.165106
C	0.7737058593271804 0.0520326047774407 0.3384912238803529	-0.116444
C	0.7224740378449543 0.0902394354654923 0.3572224856832332	-0.133881
C	0.5939091923021486 0.1486553038055623 0.4476756094551604	-0.186569
C	0.5563696625230123 0.2003504579357517 0.4321946141322068	0.084301
C	0.6099156123920106 0.3777286744695226 0.3005689599494235	0.101420
C	0.6562374350858818 0.4265489680452234 0.2795387615360472	-0.180785
C	0.6934335763753402 0.6140096170141055 0.2610243041664635	-0.117101
C	0.7424081208271014 0.6550043848443060 0.2523655124855624	-0.109799
C	0.8377765189860218 0.6988289013762665 0.3466788195500263	-0.181205
C	0.8849181966300662 0.7314482608474099 0.3615017525732404	0.080770
C	0.1078963488583809 0.8691803781267315 0.2853449398924680	0.091651
C	0.1515900903714070 0.9187793270162335 0.2740181434491994	-0.178543
C	0.1831329119764324 0.1071845288933860 0.2675451328577450	-0.115533
C	0.2297309312130227 0.1499570998426155 0.2653647119508509	-0.105714
C	0.3230215469740189 0.2020503851681395 0.3618363141721382	-0.186227
C	0.3702044419898038 0.2330112785959295 0.3798117816146333	0.091420
C	0.3902939327370406 0.6305541236177341 0.8998144553841106	0.087172
C	0.3406160934139071 0.5972200816907873 0.8974714983932645	-0.174375
C	0.3000913099818450 0.4361525519178893 0.8143134545996893	-0.127478
C	0.2493895764190403 0.3942105596830406 0.8356038316972075	-0.113753
C	0.1233635883304109 0.3162608527043032 0.9470575025279409	-0.183487
C	0.0845365280688245 0.2683295090750940 0.9315832933453582	0.090279
C	0.8881859874983749 0.1305724355014506 0.8860226398764357	0.100230
C	0.8374206903353533 0.0976837129879172 0.8873476930141283	-0.177690
C	0.7948784439439074 0.9340154650204331 0.8228520668359878	-0.125289
C	0.7447373072708005 0.8905962730029106 0.8454583233366130	-0.114180
C	0.6172421893137306 0.8126627817252327 0.9550597930271724	-0.179799
C	0.5786704887027141 0.7640360839084924 0.9406661715718805	0.084685
C	0.4309872769688418 0.3893688922361853 0.0884906176091876	0.098456
C	0.3778976650507800 0.4210490165044833 0.0990849904091207	-0.165058
C	0.2383075586315781 0.4649909896097200 0.2219200833507715	-0.118533
C	0.1883054746831465 0.5044491784505177 0.2338261314746915	-0.129715
C	0.1321329311620049 0.6387052362224178 0.1395295912509583	-0.178829
C	0.0953228003730385 0.6930811165802614 0.1320598714241337	0.084255
C	0.9392041073975440 0.8898461559130832 0.0836742030256678	0.094066
C	0.8880752446933721 0.9238470266610156 0.0878051091505068	-0.156689
C	0.7442534185423270 0.9627720293801731 0.2178374448852775	-0.121017
C	0.6936074329966890 0.0018718050476963 0.2329478706234532	-0.131781
C	0.6348711704723400 0.1333539786251460 0.1416312378821801	-0.182795
C	0.5976928819201850 0.1874625214588817 0.1347066162159416	0.091661
C	0.5568986434095441 0.5450544516903223 0.8244850224796555	0.103906
C	0.5999625727519736 0.4928918161142956 0.7985871362387752	-0.174089
C	0.7810799360786246 0.4813657117030620 0.5679167030534256	-0.120558
C	0.8291515719844653 0.4401989611422685 0.5610811256200150	-0.135840
C	0.9177993865175863 0.3206342500781188 0.5493842102791210	-0.175782
C	0.9650501265576874 0.2872870132742540 0.5674460640627409	0.100032
C	0.0687667517233216 0.0382263204057123 0.7812480722509310	0.101957
C	0.1122227034048274 0.9868171744898406 0.7589502918512974	-0.173316
C	0.2907842480439978 0.9810295485523526 0.5705812126344568	-0.119954
C	0.3388979171691504 0.9406848902848898 0.5666231696871755	-0.135095
C	0.4243758965109712 0.8139730516755214 0.5581208287877539	-0.173727
C	0.4693669520772715 0.7776553659388563 0.5812807488039738	0.094215
C	0.3557095701826045 0.5527716353291240 0.7680433351308589	0.112095
C	0.3025622601190274 0.5101403155865183 0.7806377631768953	0.072751
C	0.2005244632279113 0.4249577503126318 0.8173704451908609	0.049932
C	0.1525530065546200 0.3775970491060465 0.8190213755265378	0.115043
C	0.8511208758233859 0.0516877861968213 0.7620825817854867	0.116327
C	0.7975883273217997 0.0077374756230869 0.7800500720376837	0.070194
C	0.6971978941321862 0.9194171683416048 0.8181270623770366	0.051110
C	0.6502248958890766 0.8708421862335526 0.8188610124486586	0.108982
C	0.6554751245243565 0.4985484118528289 0.2240363653112804	0.117038
C	0.7070983723415182 0.5491238246988059 0.1935586915390079	0.059545
C	0.8059712679615346 0.6333679463714549 0.1742310267013425	0.055528
C	0.8553297637733972 0.6705519959716862 0.1887263100291010	0.111661
C	0.1498884698222404 0.9908354260437453 0.2220531725269541	0.112346
C	0.1990489943018368 0.0421747651039102 0.2012480634173380	0.057116
C	0.2935390336671336 0.1298544822503468 0.1936328459578825	0.055867
C	0.3416097784441282 0.1690811476909728 0.2094715773825495	0.114817
C	0.6657911288977755 0.5128347024735824 0.7254830421999421	0.116183
C	0.7149794941986128 0.4629359924392971 0.7018880080007220	0.060642
C	0.8125097205771339 0.3803871829415673 0.6915461751960403	0.055983
C	0.8639984615503615 0.3436017976141286 0.7007372726805335	0.115975
C	0.1748148667499881 0.0081799833104182 0.7144154524579027	0.116339
C	0.2244544772538561 0.9593603830299327 0.6941921617993324	0.060051
C	0.3216716380247759 0.8788350517675008 0.6914143283892786	0.057242
C	0.3721716470323618 0.8411945540268682 0.7045456847670608	0.112144
C	0.3348191091076300 0.4520398372842071 0.2526460716350954	0.108818
C	0.2787161646868059 0.4896469099767297 0.2747462307530518	0.064734
C	0.1764765553511602 0.5687145641564912 0.3041190167148140	0.043379
C	0.1295860680455711 0.6166462156497089 0.3005440386288999	0.110796
C	0.8415260115273056 0.9501777054668625 0.2453598059660230	0.114841
C	0.7858219056233030 0.9881975478659105 0.2657963161060046	0.064156
C	0.6826731148462962 0.0666400758369154 0.3007164898928288	0.043835
C	0.6354122461515369 0.1144653650025052 0.2991286004088863	0.110106
H	0.5203813360419498 0.5856488863435977 0.5415135774191352	0.086251
H	0.4367845730670930 0.5146828392733345 0.5335424297262017	0.119325
H	0.2550208086298501 0.5987324216864711 0.7385450545409123	0.116170
H	0.1656661181395249 0.5238876315574498 0.7673048862657831	0.100902
H	0.1602346224374232 0.4347093297621303 0.5794276013907296	0.107116
H	0.0919605928693430 0.3415223842433261 0.5655121480345158	0.090712
H	0.0159312560329108 0.0798448154214372 0.5325022232342085	0.086668
H	0.9306692488630711 0.0114701833170263 0.5282694414499971	0.123740
H	0.7509958643783183 0.0941605295452113 0.7236446825564913	0.117728
H	0.6633192256397230 0.0161065498539404 0.7529953383003398	0.103819
H	0.6663256141375254 0.9209628646413718 0.5629014286495849	0.107247
H	0.5971859501302812 0.8270114681003375 0.5528004481850751	0.092367
H	0.5220752304223685 0.4789744540916898 0.2000090020069571	0.084505
H	0.5997274930074238 0.5725922992437191 0.1623289936057125	0.127693
H	0.7832829832484084 0.4809321669330109 0.0435599717069547	0.095933
H	0.8700120544464698 0.5547090436690367 0.0271481350576276	0.097739
H	0.9384380766997672 0.6591881747007053 0.9229970352841049	0.115002
H	0.0165237838419898 0.7265531250254579 0.9624991965563094	0.096586
H	0.0224672317914929 0.9698281877776965 0.1733060899152298	0.088088
H	0.0947154361901025 0.0636970731498064 0.1547119085773584	0.128055
H	0.2773714828234229 0.9748319108780715 0.0613690225930083	0.093385
H	0.3598192258384041 0.0509808165978409 0.0565655026774684	0.096591
H	0.4261568695222350 0.1507759310450301 0.9528603956709292	0.115331
H	0.5042673910311377 0.2123604267864304 0.9995278229519684	0.088336
H	0.6531785067192479 0.6904119963982325 0.6656805404935091	0.075710
H	0.7335839106568136 0.6045558193163257 0.6319163604453817	0.101046
H	0.6469990361265312 0.3812030337205046 0.9173545430523519	0.116783
H	0.7324845503365400 0.3117942718558917 0.9164366615800513	0.098687
H	0.8213268411782154 0.3504705933141255 0.9849416434216427	0.110405
H	0.9114225675091291 0.2916357920073653 0.9943494246209772	0.092541
H	0.1545362073090931 0.1849839591564210 0.7030682978996449	0.071350
H	0.2357137807579543 0.1001174113389422 0.6727120406098778	0.108967
H	0.1561183822159017 0.8736943887376877 0.8946511332178692	0.119735
H	0.2418728640932872 0.8062265796294198 0.9021231797004911	0.096769
H	0.3306240277545306 0.8534880926597401 0.9852176882974464	0.111686
H	0.4159338529204397 0.7881793652850378 0.0058126374654297	0.092333
H	0.4125429197036625 0.4132523990058317 0.4732112833924764	0.080133
H	0.3174597043725523 0.4740477576612430 0.5069249623195178	0.096800
H	0.2976361377220134 0.5740378162176962 0.3868600719236244	0.117335
H	0.2065833999152308 0.6417737335757662 0.4189942347669749	0.106611
H	0.0797531856718467 0.6322827811908447 0.5823048434408568	0.117665
H	0.0142167399870429 0.7254851333602200 0.5517124217405488	0.094724
H	0.9094619931220449 0.9007375783568240 0.4882872711629301	0.084724
H	0.8161842707337799 0.9632103257689147 0.5129269756653280	0.097513
H	0.8067704582348461 0.0733037115019047 0.3715363302967759	0.118604
H	0.7152288702464974 0.1411111863466290 0.4069564641109897	0.106324
H	0.5910779199209951 0.1357858423713321 0.5752271837889973	0.115964
H	0.5240834946432934 0.2274341952929975 0.5464691193213229	0.094668
H	0.6102408307013119 0.3218311800053981 0.3433431973660418	0.076477
H	0.6925929167101899 0.4089238648717954 0.3082677274144767	0.115063
H	0.6441978282516323 0.6319202247846053 0.3310396559748168	0.122271
H	0.7302472205968394 0.7040763601993837 0.3108422057830245	0.105784
H	0.7872431248688679 0.6951557097445088 0.4591484723691384	0.112233
H	0.8725890838029824 0.7527421035483800 0.4838035062015797	0.099180
H	0.1092198486545687 0.8135363410943228 0.3264289289007453	0.077303
H	0.1866870860582178 0.9012976578943291 0.3078811933788639	0.116091
H	0.1338550291504144 0.1244059703378799 0.3297596681600553	0.118307
H	0.2151112533159107 0.1991313722923191 0.3226848332733094	0.108401
H	0.2718887164760889 0.2023914784706546 0.4677195589671192	0.110114
H	0.3569072230130178 0.2575788621541786 0.4987571279659370	0.091586
H	0.3795481365364554 0.6620481583569778 0.0054259680474041	0.080226
H	0.2902354365470159 0.6030928127436536 0.0016094981545563	0.101710
H	0.3386626557143477 0.4108376848167848 0.8214704858579334	0.109078
H	0.2496055437362856 0.3367689775900838 0.8585426167414701	0.114857
H	0.1310154574244136 0.3052437724223532 0.0580221298445011	0.128734
H	0.0609200490738544 0.2207149845314406 0.0304695859266555	0.098482
H	0.8785118135986426 0.1630171488342748 0.9892609170944722	0.082460
H	0.7874004152163674 0.1047709530946327 0.9917304704737782	0.103917
H	0.8328342216058459 0.9102496198549749 0.8363713010633423	0.109076
H	0.7444164574687979 0.8333751943188247 0.8760388761606743	0.113606
H	0.6216161361870187 0.8046921959985140 0.0721830071865874	0.123493
H	0.5526082466250213 0.7187205422364771 0.0454521119730742	0.093186
H	0.4653320345643788 0.3646360665163109 0.9711382332024919	0.097672
H	0.3720479965461887 0.4224838238164459 0.9855941154524730	0.112774
H	0.2463795256122240 0.4147388010884380 0.1696073056657321	0.113378
H	0.1585376306916238 0.4853730540131503 0.1873830769843690	0.104792
H	0.1654656425280583 0.6159941224462715 0.0177695455715697	0.108186
H	0.0996816171877191 0.7162201478738927 0.0065368918849784	0.097962
H	0.9761939484165942 0.8676689093724604 0.9649706777814413	0.102069
H	0.8862008115716783 0.9301119097719263 0.9670244181245988	0.116136
H	0.7518087696037343 0.9121189446915563 0.1675490290611610	0.112564
H	0.6627687676642117 0.9821839511280661 0.1904466892930157	0.105409
H	0.6659522741675155 0.1083739554894816 0.0221114518922343	0.104981
H	0.5996948352112002 0.2072548379161695 0.0105703015698890	0.092857
H	0.5053321983008836 0.5308334406916414 0.8867805181398671	0.084228
H	0.5820386067926312 0.4371104122940913 0.8379860288597456	0.133565
H	0.7949878613174678 0.5287330286120578 0.4686886921847007	0.095208
H	0.8802807821178872 0.4562226502338856 0.4593773405691683	0.101692
H	0.9219665138194386 0.3264408086382320 0.4195241348624524	0.120684
H	0.0065176159587798 0.2658740185293741 0.4558639829575714	0.099981
H	0.0195391466343967 0.0232022407529951 0.8186837201926629	0.081291
H	0.0969416992328539 0.9307617204833050 0.7807257612392806	0.135477
H	0.3048092778357095 0.0302099821331143 0.4768669932765412	0.096856
H	0.3901661571714891 0.9587336770187133 0.4724759811399402	0.102532
H	0.4286757236959505 0.8181071056445627 0.4281137316402514	0.119008
H	0.5092665475986381 0.7523871292028063 0.4751628007664686	0.102157
Fe	0.5200440441275491 0.6939196152363140 0.7689381683200488	0.787308
Fe	0.0263521687876155 0.1957616157210745 0.7381787974010949	0.758708
Fe	0.5082026378135290 0.3109135665983854 0.2332958321199513	0.644850
Fe	0.0085628925913073 0.8097948941442891 0.2304061566907692	0.550117
F	0.5813987164585387 0.7074311085749435 0.5031523528649998	-0.575092
F	0.0850943850522469 0.2151273307278085 0.4809516664618673	-0.597697
F	0.5651725037740244 0.3173920234357157 0.9759862063774626	-0.553941
F	0.0707959606396079 0.8192214663641206 0.9582123703086324	-0.532990
F	0.4527075886826135 0.6862205173832607 0.0780927666198674	-0.427093
F	0.9585769072981535 0.1861309263047617 0.0519724877552548	-0.442010
F	0.4442625381730842 0.2931375730957667 0.5398536833279687	-0.417192
F	0.9373386625427700 0.7919990991584516 0.5698008981202876	-0.422685
F	0.3752646567300561 0.6462340703502558 0.3791720262724761	-0.451306
F	0.4847808677692790 0.6548032863470609 0.2800126187295386	-0.437981
F	0.8806301323916809 0.1467944781166914 0.3536037327718353	-0.453327
F	0.9900818286065771 0.1517715436504719 0.2543886058956347	-0.442595
F	0.4748221958585092 0.2851807391360026 0.7491284457397765	-0.430359
F	0.4423704574414369 0.3904595871246168 0.6765020681384299	-0.438899
F	0.9854821116709466 0.7949600345601373 0.7351404865224489	-0.433535
F	0.9451353232405721 0.8958724963917404 0.6714497316149043	-0.441870
F	0.4451487921567007 0.5684489157973982 0.1949340665407729	-0.437959
F	0.9483502919189450 0.0675900022664562 0.1688065292818287	-0.442344
F	0.3665549335829482 0.2943405389876245 0.8421427469772980	-0.443973
F	0.8735448124842934 0.8017122921444741 0.8744624299900055	-0.445896
N	0.4538877560322734 0.6259173854191212 0.7747186225108768	-0.251834
N	0.5719527344838921 0.7695090363757703 0.7979392971445989	-0.253050
N	0.9512334253282082 0.1236786005581494 0.7620136212370563	-0.243492
N	0.0745292845117275 0.2770849603007138 0.7948954283776770	-0.239097
N	0.5633123735777295 0.3954700674727377 0.2684218567186909	-0.225568
N	0.4343719085918274 0.2350830091102803 0.2533702075066047	-0.223828
N	0.0628108385230722 0.8860324866355133 0.2457322084304456	-0.201519
N	0.9482343588972313 0.7402477430677884 0.2249293849531760	-0.191093
N	0.5752508430200920 0.6152435038595896 0.7776819279286245	-0.254032
N	0.4657641691133804 0.7684945468745241 0.7403060390899788	-0.249623
N	0.0835705586744321 0.1082825271181382 0.7603995291928698	-0.244804
N	0.9624512968152639 0.2773638969945000 0.7247072798219294	-0.249115
N	0.4427235109445000 0.3863754093378761 0.2216456757383638	-0.232025
N	0.5592311658842297 0.2214511332291453 0.2767620871411238	-0.219484
N	0.9457328435576100 0.8809655986057261 0.2268208192968533	-0.202330
N	0.0543082217436551 0.7244366610031036 0.2774920131832844	-0.194599
B	0.4389883972269664 0.6374793391364991 0.2376688162395403	1.031072
B	0.9439348454010112 0.1365193909135273 0.2117325255361730	1.034269
B	0.4315339709219587 0.3161293468364870 0.7067977637517513	1.027438
B	0.9351574173231970 0.8212786312744438 0.7162170604849616	1.023382
	  	
