#======================================================================

# CRYSTAL DATA

#----------------------------------------------------------------------

data_VESTA_phase_1


_pd_phase_name                         BFFIVE_5_Fe_i
_cell_length_a                         20.07202
_cell_length_b                         20.07192
_cell_length_c                         16.25157
_cell_angle_alpha                      90.00068
_cell_angle_beta                       89.99894
_cell_angle_gamma                      89.97872
_symmetry_space_group_name_H-M         P 1
_symmetry_Int_Tables_number            1

loop_
_symmetry_equiv_pos_as_xyz
   x, y, z

loop_
   _atom_site_label
   _atom_site_fract_x
   _atom_site_fract_y
   _atom_site_fract_z
   _atom_site_charge
F	0.2769517014360445 0.1880680854410974 0.3617771033935646	-0.457687
F	0.1843579652934969 0.2597289910184644 0.3614056140372777	-0.460812
F	0.2926782986431812 0.3039275671703463 0.3632320477706965	-0.461698
F	0.6960616968616286 0.7073638093118445 0.1368086500905451	-0.461964
F	0.7403461950373323 0.8156668599188400 0.1386351924487571	-0.461034
F	0.8119333508980239 0.7230036020975882 0.1382520430393930	-0.458302
F	0.6843660168986289 0.7596779655741881 0.6386010195327879	-0.461195
F	0.7769795041409959 0.6880518548718292 0.6381848849539220	-0.457974
F	0.7926403666002891 0.8039155025314481 0.6367794686879801	-0.462000
F	0.1960639069500732 0.2073507456426996 0.8632086052876909	-0.461743
F	0.3119272307887896 0.2230029718607646 0.8617286795895835	-0.457750
F	0.2403151997773915 0.3156587060337481 0.8613972645124596	-0.460688
F	0.2501336123392328 0.2497897228881974 0.4758365299688724	-0.420499
F	0.2500478914280694 0.2498309220779051 0.2177897232496943	-0.523020
F	0.7502063692409265 0.7498723011922109 0.0241854595788422	-0.423527
F	0.7501257611095835 0.7499499381070938 0.2822155596975063	-0.523662
F	0.7501373189194593 0.7498123407489814 0.5241804334094327	-0.419987
F	0.7500556246277339 0.7498050528081135 0.7822326670166140	-0.530123
F	0.2502218712077430 0.2498905545645221 0.9758289302669401	-0.419996
F	0.2501310100349187 0.2499289435548788 0.7178095071707964	-0.524615
N	0.3592132441602316 0.2471790624885201 0.5969309002554786	-0.187716
N	0.1408486920261191 0.2530379011264532 0.5978382325349173	-0.186840
N	0.2527463053201014 0.3591177924474495 0.5974502281744803	-0.186579
N	0.2469709958467592 0.1407488069832991 0.5979104848834484	-0.187447
N	0.6408802316547542 0.7472555132885681 0.9025474072159954	-0.191695
N	0.8592525565616909 0.7530265035598116 0.9020806215582819	-0.192414
N	0.7469666361710122 0.8591503437773712 0.9021462967770759	-0.189681
N	0.7528185350657963 0.6407788392107646 0.9030686235195774	-0.190617
N	0.6408502935045143 0.7530377758734260 0.4021600143288196	-0.186580
N	0.8592144294930653 0.7471786790809065 0.4030770248600178	-0.187618
N	0.7469713577267759 0.6407477981018701 0.4021001515403250	-0.187804
N	0.7527471125453883 0.8591166982377813 0.4025491065242650	-0.186675
N	0.3592540704438014 0.2530276456086618 0.0979251095456472	-0.188170
N	0.1408781038360795 0.2472532049365395 0.0974411746182143	-0.187307
N	0.2528217618091262 0.1407805217020708 0.0969408573258727	-0.188387
N	0.2469646029441789 0.3591547568177063 0.0978421837906527	-0.187734
C	0.3912733217932450 0.2204900637563415 0.6619293927092356	0.096913
C	0.4604011155287135 0.2190055199825086 0.6674946523343253	-0.185823
C	0.4991227217647713 0.2475552960473328 0.6046966468905353	0.101251
C	0.4649004843110691 0.2759373589272871 0.5378940397051898	-0.190163
C	0.3956997700217285 0.2741852512116386 0.5359046383327517	0.091221
C	0.5724476808852016 0.2482702538713273 0.6085830767378116	0.056196
C	0.6082490315562927 0.1927557348482220 0.6374074103193221	-0.129420
C	0.6775006594958974 0.1933612539920789 0.6394009049602961	-0.125249
C	0.7133628427920367 0.2499422553384383 0.6142340480397950	0.066814
C	0.6775512417545921 0.3057702437963984 0.5866447754051527	-0.119062
C	0.6083718101874922 0.3047178288245648 0.5830993682488791	-0.128330
C	0.1088546457961874 0.2796556879210161 0.6629321990587073	0.097772
C	0.0397584749171471 0.2810966707492314 0.6686949361543736	-0.186416
C	0.0009761031895431 0.2525118134674159 0.6059808558028780	0.101315
C	0.0351093962007299 0.2242244797841741 0.5391064805508488	-0.188263
C	0.1042849263324008 0.2261272736969162 0.5369501605618886	0.096539
C	0.9276567254487182 0.2518379133961929 0.6096751523083642	0.056446
C	0.8918124406920632 0.3074173324838066 0.6382021244402660	-0.131438
C	0.8225468785870144 0.3068692539072310 0.6397614488185680	-0.124009
C	0.7867195329833241 0.2502987398594539 0.6144380634653299	0.067756
C	0.8226118578433148 0.1944003460637282 0.5870999347806981	-0.122010
C	0.8917944246171146 0.1953868160715854 0.5840003580790160	-0.127702
C	0.2794017878257095 0.3911759415791925 0.6624241213471088	0.098133
C	0.2809739056702837 0.4602989148775452 0.6679240767489506	-0.185882
C	0.2524876991785518 0.4990070950873278 0.6050749259355769	0.102948
C	0.2240741163524533 0.4647949349201693 0.5383170316842648	-0.189880
C	0.2258150214475262 0.3956159749085046 0.5364783007511303	0.096326
C	0.2518118558536370 0.5723324617656804 0.6088236250795326	0.056712
C	0.3073609526102392 0.6081051461964211 0.6375583306670919	-0.131897
C	0.3067214380957735 0.6773684237744183 0.6394381590955729	-0.124570
C	0.2501418253190159 0.7132528256925791 0.6142403959037567	0.066829
C	0.1942808792235752 0.6774442616215628 0.5866964516163792	-0.119644
C	0.1953573020522958 0.6082613874792859 0.5832807234084797	-0.128854
C	0.2203396885132584 0.1087829270214373 0.6630492330859141	0.096297
C	0.2188977902527592 0.0396711561609609 0.6687522409173128	-0.186694
C	0.2474501086059633 0.0008589058865106 0.6060062198543049	0.100072
C	0.2757419023771418 0.0349743832980069 0.5391092635378778	-0.188217
C	0.2738989831510714 0.1041711175669564 0.5369456459249915	0.093190
C	0.2481531227089962 0.9275362227564311 0.6096750661928270	0.057244
C	0.1925897402215881 0.8917025474722605 0.6382071518992080	-0.131661
C	0.1931842794806047 0.8224284639230833 0.6397388530417882	-0.124498
C	0.2497464623817231 0.7866081329376724 0.6144120400041402	0.067826
C	0.3056281378379601 0.8224681430635115 0.5870606169045675	-0.123105
C	0.3045967501964953 0.8916557168532083 0.5839813582022423	-0.127611
C	0.6088218754764442 0.7205922069976676 0.8375755878711318	0.098609
C	0.5396984782797433 0.7190196038378769 0.8320812965666241	-0.185916
C	0.5009898451478068 0.7475102231287085 0.8949270576022208	0.102500
C	0.5352035146125147 0.7759291678215038 0.9616813284779601	-0.189851
C	0.6043828925928412 0.7741882014872639 0.9635146797383112	0.096827
C	0.4276664506222694 0.7481872042083185 0.8911794441509072	0.056857
C	0.3918931935784078 0.6926395943988772 0.8624424583508377	-0.131803
C	0.3226310180425619 0.6932786486498714 0.8605602248034735	-0.124698
C	0.2867458996021389 0.7498582478354190 0.8857562991769932	0.066686
C	0.3225551568200510 0.8057195163475517 0.9133032574038747	-0.119654
C	0.3917361994667240 0.8046418068819711 0.9167215357214262	-0.128896
C	0.8912187866211972 0.7796633803220867 0.8369454610433815	0.097319
C	0.9603315856494852 0.7811099378186710 0.8312442253105011	-0.187006
C	-0.0008571869650861 0.7525531995005158 0.8939883668257439	0.100561
C	0.9650236716817044 0.7242551868209581 0.9608810945845471	-0.188284
C	0.8958277850214602 0.7261000296150966 0.9630417041574330	0.093868
C	0.0724637581635657 0.7518527233883698 0.8903222942595159	0.057034
C	0.1082992932048259 0.8074130405960473 0.8617895588341987	-0.131620
C	0.1775730963918871 0.8068179948022174 0.8602581488761577	-0.124405
C	0.2133925472464406 0.7502557652776686 0.8855853435166332	0.067859
C	0.1775291626479781 0.6943763453578623 0.9129372628210882	-0.123009
C	0.1083418419042842 0.6954102087156476 0.9160178091928597	-0.127569
C	0.7203437251474377 0.8911468438289011 0.8370577365741945	0.098209
C	0.7189005392876375 0.9602424079628400 0.8313031117041352	-0.186396
C	0.7474871747320861 -0.0009765544777923 0.8940157498630729	0.101656
C	0.7757780194818417 0.9648898913822912 0.9608840110157196	-0.188108
C	0.7738732591771810 0.8957126235657940 0.9630332846843315	0.096971
C	0.7481629418133598 0.0723425980465521 0.8903228043260367	0.056319
C	0.6925821202062489 0.1081855302629209 0.8617955919300169	-0.131311
C	0.6931337670949738 0.1774524366002316 0.8602363906751098	-0.123953
C	0.7497005927581055 0.2132781091565176 0.8855607803936627	0.067742
C	0.8055990074463290 0.1773865527284408 0.9128999997898577	-0.121835
C	0.8046114173330192 0.1082017168919488 0.9159983222903867	-0.127729
C	0.7795111934314404 0.6087203238757781 0.8380713031513676	0.097439
C	0.7809970701063006 0.5395900736925572 0.8325074931826509	-0.185800
C	0.7524438547167351 0.5008724185971815 0.8953018823168487	0.101996
C	0.7240566251679540 0.5350940642031520 0.9621014584265773	-0.190156
C	0.7258108683561479 0.6042961506914324 0.9640931930345438	0.091873
C	0.7517285588089325 0.4275472949387042 0.8914174141016852	0.055678
C	0.8072467221464332 0.3917469493930602 0.8625929208350223	-0.129218
C	0.8066401365990004 0.3224962387875578 0.8605996614065441	-0.125270
C	0.7500578889196797 0.2866339889855665 0.8857662436780018	0.067048
C	0.6942266870286250 0.3224462844902837 0.9133549046560551	-0.118988
C	0.6952804625539996 0.3916259012702988 0.9169001198123142	-0.128157
C	0.6088588082738553 0.7796540066408497 0.3370675768180376	0.097624
C	0.5397605922596805 0.7810969095467866 0.3313046843181668	-0.186430
C	0.5009788506130634 0.7525111783341170 0.3940184144807213	0.101685
C	0.5351069719031366 0.7242265422441924 0.4608923615831965	-0.188255
C	0.6042848841905653 0.7261291625906497 0.4630465649299193	0.096335
C	0.4276585515712765 0.7518366917425320 0.3903223512606785	0.056185
C	0.3918144596780752 0.8074175042286720 0.3617964501658855	-0.131331
C	0.3225499656582759 0.8068666573539486 0.3602382290391470	-0.124073
C	0.2867208549840632 0.7502995292559347 0.3855593930517251	0.067915
C	0.3226134241163500 0.6944015561219644 0.4128976315370324	-0.122131
C	0.3917966153702541 0.6953867883765995 0.4159969480355966	-0.127749
C	0.8912736046030383 0.7204901188715800 0.3380739288999441	0.096790
C	0.9604009899449059 0.7190065111007269 0.3325057705939902	-0.185819
C	-0.0008754216978969 0.7475564417983471 0.3953008880187986	0.101424
C	0.9649034847179393 0.7759375453225243 0.4621063452588979	-0.190220
C	0.8957034018648687 0.7741854940673591 0.4641017946001167	0.091016
C	0.0724495617168078 0.7482711593135462 0.3914145084283657	0.056187
C	0.1082512742823615 0.6927539716468228 0.3625898364948331	-0.129469
C	0.1775022327696056 0.6933599233323575 0.3605969847500372	-0.125136
C	0.2133660186675213 0.7499423650184471 0.3857638872213963	0.066820
C	0.1775522769609936 0.8057716097567350 0.4133526923545464	-0.119070
C	0.1083733613176849 0.8047188634987503 0.4168988883115768	-0.128405
C	0.7203409360424031 0.6087818936536810 0.3369630266501494	0.096573
C	0.7188996972297771 0.5396696502213230 0.3312556159808436	-0.186922
C	0.7474527868795725 0.5008584821201378 0.3939959559967559	0.099849
C	0.7757434633348349 0.5349725209490958 0.4608921298958880	-0.188245
C	0.7739006983530531 0.6041678122662112 0.4630622068989956	0.093101
C	0.7481537922990339 0.4275359829406469 0.3903252190570451	0.057414
C	0.6925911742346584 0.3917026284536679 0.3617932138764596	-0.131823
C	0.6931856658978784 0.3224281965593243 0.3602606347457890	-0.124287
C	0.7497468936860567 0.2866085355618096 0.3855868285948638	0.067619
C	0.8056270887138630 0.3224678037069881 0.4129382208292859	-0.123145
C	0.8045979006897576 0.3916547603167043 0.4160193909949201	-0.127724
C	0.7794023633608945 0.8911737588795825 0.3375711221896538	0.098214
C	0.7809756625737954 0.9602965147336726 0.3320747605239052	-0.185813
C	0.7524893538074466 -0.0009942814447861 0.3949243437754558	0.102846
C	0.7240743087987667 0.9647950841059976 0.4616815888548458	-0.189762
C	0.7258146530040844 0.8956163325253393 0.4635179440904846	0.096582
C	0.7518140335500078 0.0723335257158165 0.3911755477604725	0.056775
C	0.8073635521464025 0.1081044375337985 0.3624406491085527	-0.131923
C	0.8067223449589430 0.1773667693429271 0.3605607768776213	-0.124583
C	0.7501439077911467 0.2132539113227043 0.3857584371574059	0.066926
C	0.6942828450907027 0.1774436513059039 0.4133022503080754	-0.119639
C	0.6953579889128993 0.1082615047301691 0.4167178836758918	-0.128847
C	0.3912201784857087 0.2796635201432611 0.1630599309211644	0.096301
C	0.4603323947864215 0.2811094962291180 0.1687586240810234	-0.187117
C	0.4991418422475984 0.2525539260722369 0.1060136292246513	0.099695
C	0.4650244936571292 0.2242557638990108 0.0391205140313010	-0.188287
C	0.3958290666687358 0.2261009590515627 0.0369627992750401	0.093373
C	0.5724617911652453 0.2518519941129845 0.1096774678653867	0.057343
C	0.6082983317070533 0.3074140130363218 0.1382091261366702	-0.131777
C	0.6775720881797992 0.3068195870992194 0.1397402020348984	-0.124312
C	0.7133917081852725 0.2502567543533864 0.1144144468336328	0.067424
C	0.6775304308929807 0.1943751453290574 0.0870632740199259	-0.123008
C	0.6083432368287601 0.1954089232443938 0.0839843866814773	-0.127733
C	0.1088195684000534 0.2205919179136543 0.1624145350522052	0.098215
C	0.0396969457240636 0.2190218573750957 0.1679116132046985	-0.185747
C	0.0009898199615340 0.2475120727146229 0.1050678477925758	0.102962
C	0.0352037704613073 0.2759299007487672 0.0383139440181016	-0.189839
C	0.1043816962673037 0.2741866797103689 0.0364754568617309	0.096611
C	0.9276663332613808 0.2481887991858919 0.1088181734467438	0.056705
C	0.8918918959892944 0.1926408598728236 0.1375551896410089	-0.131818
C	0.8226295438643405 0.1932799879656082 0.1394378147389900	-0.124617
C	0.7867437314244519 0.2498592851331975 0.1142431010544970	0.067055
C	0.8225543234878291 0.3057202740222414 0.0866962205907214	-0.119653
C	0.8917358622469863 0.3046429040616522 0.0832767411486729	-0.128830
C	0.2795117982662566 0.1087219045284330 0.1619359628571381	0.097030
C	0.2809972751530049 0.0395917265118244 0.1674974279536115	-0.185987
C	0.2524445470575729 0.0008755338565664 0.1047001504169158	0.101604
C	0.2240610606012976 0.0350964628777948 0.0379041925525788	-0.190092
C	0.2258153625616844 0.1042968765284524 0.0359150667346550	0.091090
C	0.2517301744552794 0.9275514490756203 0.1085850773626587	0.056075
C	0.3072473976153159 0.8917495915482279 0.1374084215448058	-0.129432
C	0.3066401233766016 0.8224983793133680 0.1394008808657597	-0.125198
C	0.2500577967792204 0.7866371900264071 0.1142340242487992	0.066863
C	0.1942278422338676 0.8224481943090168 0.0866455677891975	-0.119128
C	0.1952828800773361 0.8916285270560241 0.0831012110962035	-0.128295
C	0.2203418549366110 0.3911496180095866 0.1629326797199889	0.097564
C	0.2188990352682131 0.4602449657482248 0.1686912707034640	-0.186305
C	0.2474869172122827 0.4990255183905469 0.1059794576068998	0.101341
C	0.2757781118678438 0.4648915347210230 0.0391080017675940	-0.188238
C	0.2738736770461943 0.3957148769287538 0.0369550502080303	0.096636
C	0.2481630659453341 0.5723431432784363 0.1096747939910256	0.056333
C	0.1925833269405934 0.6081879001969774 0.1382036382590845	-0.131461
C	0.1931309995808576 0.6774548311131439 0.1397614841988711	-0.124147
C	0.2497002818823960 0.7132805066388851 0.1144373832328910	0.067945
C	0.3056002425867234 0.6773896543404875 0.0870993044327187	-0.122182
C	0.3046133601142924 0.6082053981558000 0.0839999734037765	-0.127622
H	0.3592891347688602 0.2016748368875515 0.7111224915207411	0.111128
H	0.4837956282523366 0.1972064806345251 0.7217589677933736	0.111684
H	0.4920697830720460 0.2981576309722449 0.4866524470901521	0.111506
H	0.3678127587882473 0.2945001055573733 0.4838906463564228	0.102979
H	0.5812843800887058 0.1482586433806664 0.6568361961300911	0.097382
H	0.7044400459966120 0.1498403924829696 0.6619142978368873	0.101113
H	0.7044410904276923 0.3497387249889094 0.5654043851910868	0.101509
H	0.5815007171045247 0.3485221521506505 0.5612895823924232	0.100633
H	0.1410379066527010 0.2987093165668390 0.7118279379216227	0.109771
H	0.0163572310750294 0.3028712624594209 0.7229662663424588	0.110440
H	0.0079123345508938 0.2021211284270370 0.4877870412715036	0.111081
H	0.1319915129267267 0.2066147243830561 0.4844765212056073	0.099561
H	0.9187536160891814 0.3518963706227141 0.6576459056197432	0.098701
H	0.7955604626776807 0.3504271683062478 0.6620346887563097	0.100912
H	0.7957801509360612 0.1504724310827626 0.5656868639807091	0.102655
H	0.9187137574082697 0.1515973069004973 0.5623445744036687	0.101336
H	0.2981114630922931 0.3591380434725862 0.7116143793988392	0.110529
H	0.3027203496638159 0.4837387651707435 0.7221885853436582	0.111661
H	0.2019114675191867 0.4919648275167909 0.4870233428943002	0.111436
H	0.2055420155936849 0.3677081066485905 0.4845438257233212	0.098853
H	0.3518399510507512 0.5811312055658397 0.6569725048991837	0.099095
H	0.3502403092062040 0.7042963383801237 0.6618998464116929	0.101240
H	0.1503301426356475 0.7043456189740560 0.5654214275200672	0.102039
H	0.1515714434499411 0.5814055407831734 0.5615358765046229	0.101081
H	0.2013142351132803 0.1409098530807750 0.7120433509104359	0.110815
H	0.1970968779323232 0.0163089831318674 0.7230217466759388	0.110714
H	0.2978735254399123 0.0077790841983132 0.4878250694116171	0.111269
H	0.2935127252897918 0.1318496786350482 0.4844435461033912	0.100469
H	0.1480924841314318 0.9186562175371873 0.6576815881386329	0.098758
H	0.1496205880851160 0.7954613104899287 0.6620027418357106	0.100952
H	0.3495629819152568 0.7956102624212352 0.5656098759565988	0.103248
H	0.3483885562638169 0.9185537052724722 0.5622807433985352	0.101169
H	0.6408627450365132 0.7018739047934264 0.7883898317003802	0.110093
H	0.5162652729743167 0.6972706756503351 0.7778151132758877	0.111555
H	0.5080335011877574 0.7980977347990855 0.0129727954570372	0.111114
H	0.6322936959845413 0.7944567871513190 0.0154520771742260	0.098375
H	0.4188687427154982 0.6481602677046751 0.8430271568836383	0.099057
H	0.2957032169866683 0.6497593156972731 0.8380972589573379	0.101181
H	0.2956498265429221 0.8496696938036987 0.9345765162403414	0.102023
H	0.4185911940937324 0.8484289253226170 0.9384658424341326	0.101108
H	0.8590936110075270 0.7986925685948091 0.7879513967878837	0.110578
H	0.9836899452041616 0.8029110053387266 0.7769747361205703	0.110872
H	0.9922179827823581 0.7021199000206705 0.0121571848196165	0.111082
H	0.8681440195415271 0.7064836891625176 0.0155425503517997	0.100251
H	0.0813472271183540 0.8519099826439733 0.8423144744937231	0.098777
H	0.2045435809121649 0.8503799424956702 0.8379939970012058	0.100899
H	0.2043877286590801 0.6504415348014835 0.9343878652460417	0.103197
H	0.0814424265101271 0.6516195356443788 0.9377156100706575	0.101182
H	0.7012829185003808 0.8589646431959642 0.7881639408885054	0.109912
H	0.6971258924227371 0.9836389002492170 0.7770276160837681	0.110576
H	0.7978884161166963 0.9920840924416088 0.0122014685949633	0.111102
H	0.7933839904000014 0.8680021070174510 0.0155089697662932	0.099305
H	0.6481050493161195 0.0812470754673981 0.8423502836608393	0.098808
H	0.6495745028832298 0.2044376360316304 0.8379616873683605	0.100950
H	0.8495271292585270 0.2042184786833904 0.9343112930571542	0.102641
H	0.8484021553724858 0.0812861123116309 0.9376532022302380	0.101335
H	0.7983309060920670 0.6407024587175157 0.7888802988120800	0.111189
H	0.8027970910471106 0.5162012959268413 0.7782401747869282	0.111821
H	0.7018324960327254 0.5079280262960145 0.0133419591111687	0.111632
H	0.7054989884725749 0.6321870379791038 0.0161063949285435	0.103120
H	0.8517416043366984 0.4187107341859585 0.8431638907563058	0.097480
H	0.8501620010732495 0.2955563407828372 0.8380867541443097	0.101132
H	0.6502600006801593 0.2955552358388851 0.9345944081408087	0.101555
H	0.6514741853248743 0.4184955547948169 0.9387078336523973	0.100736
H	0.6410415828745183 0.7987081807030033 0.2881709100974374	0.109715
H	0.5163617337625304 0.8028690479035259 0.2770313464718292	0.110446
H	0.5079079975590260 0.7021228013847340 0.5122087985457155	0.111039
H	0.6319876245322636 0.7066183079530939 0.5155249400040840	0.099540
H	0.4187557828476428 0.8518956436224377 0.3423512633380083	0.098736
H	0.2955622423671082 0.8504248067940072 0.3379620848751674	0.100945
H	0.2957824800155088 0.6504727216642233 0.4343098756831785	0.102596
H	0.4187155037454206 0.6515976907156220 0.4376515821119694	0.101392
H	0.8592921374740462 0.7016744420772494 0.2888822955496561	0.111228
H	0.9837970521922167 0.6972092528647635 0.2782393042957265	0.111718
H	0.9920727496436776 0.7981564177836542 0.5133476700137170	0.111557
H	0.8678155931383765 0.7944977002796736 0.5161174110514781	0.103121
H	0.0812889636380508 0.6482589690462740 0.3431604546967129	0.097469
H	0.2044444731562542 0.6498391476145166 0.3380858349908821	0.101059
H	0.2044429064358872 0.8497383493130719 0.4345950705054352	0.101536
H	0.0815022568608283 0.8485232130835800 0.4387082801464734	0.100680
H	0.7013144742075544 0.6409092958954876 0.2879701675355842	0.110819
H	0.6971000920517096 0.5163100930779159 0.2769823804201574	0.110755
H	0.7978757052823701 0.5077757236557623 0.5121723338039884	0.111289
H	0.7935135725819027 0.6318462885928481 0.5155659428076678	0.100554
H	0.6480945737425180 0.4186543919343219 0.3423199910263523	0.098877
H	0.6496229156327559 0.2954596128068717 0.3379966595392238	0.100847
H	0.8495620673936370 0.2956100791661551 0.4343889448401269	0.103214
H	0.8483868816653726 0.4185529544960866 0.4377192981389628	0.101215
H	0.7981145821031680 0.8591369349983377 0.2883805835915336	0.110508
H	0.8027230400299221 0.9837371665573281 0.2778089851827909	0.111662
H	0.7019139049140892 0.9919675888908920 0.5129779922651760	0.111386
H	0.7055440423827203 0.8677101527927124 0.5154565106846570	0.098878
H	0.8518430735812269 0.0811305866150956 0.3430257628605554	0.099056
H	0.8502427352812630 0.2042965049851744 0.3380974912985205	0.101184
H	0.6503302905388837 0.2043463771767953 0.4345781366746432	0.102056
H	0.6515726340486163 0.0814060945494972 0.4384637629818692	0.101123
H	0.3590913558574698 0.2986925869888202 0.2120542322451396	0.110623
H	0.4836907568818082 0.3029119944801931 0.2230290661668806	0.110974
H	0.4922199412621900 0.2021221189775089 0.9878404170931691	0.111131
H	0.3681457268588677 0.2064827174966155 0.9844608085136043	0.100071
H	0.5813435292474227 0.3519103815807937 0.1576834231285511	0.098825
H	0.7045401754581506 0.3503825469193526 0.1620052884245634	0.100892
H	0.7043892676426997 0.1504402507872945 0.0656126545511581	0.103113
H	0.5814441577104424 0.1516181974193210 0.0622847025963591	0.101256
H	0.1408615903094423 0.2018764817138307 0.2115990091035632	0.110696
H	0.0162623866851979 0.1972735012105753 0.2221796006575419	0.111731
H	0.0080348346729697 0.2980958539405681 0.9870207270141932	0.111392
H	0.1322943154886653 0.2944557351479454 0.9845363828870437	0.098885
H	0.9188677285033459 0.1481628052401451 0.1569697398514301	0.099056
H	0.7957020479705630 0.1497605487742397 0.1619022439691833	0.101223
H	0.7956490150226432 0.3496709263867870 0.0654241355169076	0.102040
H	0.9185910388807941 0.3484292357851398 0.0615332376259775	0.101076
H	0.2983285635400009 0.1407056015798145 0.2111289937654884	0.111095
H	0.3027978181873316 0.0162022862322571 0.2217657175720446	0.111721
H	0.2018392480487030 0.0079307417819723 0.9866599670673766	0.111498
H	0.2055022005944321 0.1321900025994324 0.9839033030863233	0.102874
H	0.3517414857613340 0.9187134518156829 0.1568385134430297	0.097576
H	0.3501609056052188 0.7955591365293371 0.1619153130056356	0.101149
H	0.1502601814392960 0.7955586494519707 0.0654063290412823	0.101566
H	0.1514779123836466 0.9184987967952131 0.0612922616721065	0.100684
H	0.2012812907494344 0.3589646116959848 0.2118277187413614	0.109619
H	0.1971235191980152 0.4836411032159323 0.2229660058124707	0.110419
H	0.2978877417077742 0.4920874815435680 0.9877903244380413	0.111058
H	0.2933851313414643 0.3680063551597844 0.9844781124383759	0.099359
H	0.1481042684800982 0.5812466265109287 0.1576482255619646	0.098843
H	0.1495720145697109 0.7044387825993444 0.1620385093533436	0.100967
H	0.3495291267450595 0.7042216874525768 0.0656896337788643	0.102737
H	0.3484053243666529 0.5812883664120070 0.0623452285468105	0.101414
Fe	0.2500272853405857 0.2499213422671610 0.6029323784924082	0.507671
Fe	0.7500825195938241 0.7499624997095292 0.8971032021932793	0.528333
Fe	0.7500345042537148 0.7499180418269527 0.3970811598202599	0.507439
Fe	0.2500780906426718 0.2499720500520020 0.1029026402116418	0.509849
B	0.2510676763457390 0.2504172033407869 0.3834310216632883	1.072288
B	0.7495928687071054 0.7489578402626268 0.1166091328156492	1.073041
B	0.7510800580754896 0.7503912243617136 0.6165345250532764	1.072670
B	0.2495919083087525 0.2489431210602566 0.8833817407193306	1.072889
	  	
