#======================================================================

# CRYSTAL DATA

#----------------------------------------------------------------------

data_VESTA_phase_1


_pd_phase_name                         BFFIVE_7_Fe
_cell_length_a                         19.48931
_cell_length_b                         19.48598
_cell_length_c                         8.56543
_cell_angle_alpha                      90.53285
_cell_angle_beta                       89.43961
_cell_angle_gamma                      90.02141
_symmetry_space_group_name_H-M         P 1
_symmetry_Int_Tables_number            1

loop_
_symmetry_equiv_pos_as_xyz
   x, y, z

loop_
   _atom_site_label
   _atom_site_fract_x
   _atom_site_fract_y
   _atom_site_fract_z
   _atom_site_charge
C	0.6528337350148974 0.8618857540943174 0.6819491934009450	0.096534
C	0.6032229916658270 0.9131000564839478 0.6891722626524219	-0.182149
C	0.5860168514967418 0.8973878170349153 0.4146863846487785	-0.177321
C	0.6361645829462280 0.8470107458141310 0.4166544801565394	0.094416
C	0.8460156137821558 0.6397360967852657 0.6819929831320655	0.096026
C	0.8961281383301909 0.5891305965604441 0.6892475651157381	-0.181749
C	0.9154476269666201 0.6028725144449801 0.4147592046151761	-0.176787
C	0.8647712186563955 0.6528027407048038 0.4166114212258454	0.090921
C	0.6403003430213133 0.6518219725114970 0.6875795816575836	0.097825
C	0.5897001864827495 0.6016071442840952 0.6962972025340968	-0.182435
C	0.6001905521933500 0.5862436695138926 0.4193700131978507	-0.177336
C	0.6500966438395008 0.6369205545707527 0.4197473001300834	0.085498
C	0.8625691980759200 0.8445144020694767 0.6750055118767593	0.096539
C	0.9137502284604078 0.8941114152453945 0.6809662189467174	-0.181644
C	0.8946185262511871 0.9157159177308535 0.4099207875624937	-0.176585
C	0.8441801847483844 0.8655326647239266 0.4131947060077858	0.093376
C	0.3445465022558322 0.3625974654306037 0.3250776176226925	0.097216
C	0.3941373971037498 0.4137938922266154 0.3191009966773488	-0.182406
C	0.4156962241322188 0.3945927430675341 0.5900980892394098	-0.175615
C	0.3655204055879941 0.3441429527882630 0.5868528121692101	0.091933
C	0.1518273471589798 0.1403597230769353 0.3123860339430495	0.096156
C	0.1016188546748122 0.0897729994510660 0.3037173689796325	-0.182132
C	0.0862462660685388 0.1001900068792290 0.5806642910631554	-0.177159
C	0.1369253968022640 0.1500902038276750 0.5802497982626489	0.087627
C	0.3618761213049914 0.1528238410995811 0.3181096825013448	0.096695
C	0.4130950524258607 0.1032239743691424 0.3108675464810832	-0.182433
C	0.3974210987063189 0.0860202346757834 0.5854020378381597	-0.177574
C	0.3470328176786769 0.1361622117590742 0.5834558104480967	0.094245
C	0.1397645463612922 0.3460426743656448 0.3179641418270844	0.094670
C	0.0891374925995950 0.3961331279559512 0.3107093614615278	-0.181426
C	0.1028693955463114 0.4154846578853737 0.5851439886630677	-0.176532
C	0.1528204460386830 0.3648282433946021 0.5833169339273341	0.090612
C	0.4326218885367615 0.0683058421314985 0.4465584570407370	0.137505
C	0.4861034439623084 0.0162472601292026 0.4383282516656060	-0.122621
C	0.0688274781652870 0.4322728343691687 0.4464731499557153	0.137120
C	0.0156886197325224 0.4845376609186564 0.4382456269628276	-0.123244
C	0.4311326352199964 0.4316072597022215 0.4538523904380282	0.137550
C	0.4829798808549732 0.4852683683855341 0.4463890122753615	-0.123197
C	0.0673121830480152 0.0679106601670247 0.4398298364623105	0.137231
C	0.0146874012424262 0.0150048350958021 0.4305742335813382	-0.123328
C	0.5678779498579083 0.5673114792262466 0.5601828144362996	0.137785
C	0.5149759739663260 0.5146895040233542 0.5695234322643347	-0.124158
C	0.9315992446097434 0.9311319848494697 0.5462044065756901	0.138050
C	0.9852556336773403 0.9829819899288164 0.5536621056770740	-0.123653
C	0.5683162592346378 0.9326182125239422 0.5534882632743068	0.137254
C	0.5162596461451920 0.9861014860699470 0.5617283585514108	-0.122541
C	0.9322531853581979 0.5688220669682699 0.5534351816127949	0.138143
C	0.9845328896557513 0.5156976480032615 0.5616707429323796	-0.124383
H	0.6807132800346994 0.8450503936420690 0.7849102437315637	0.106571
H	0.5918195569543457 0.9382287592495803 0.8008032843250593	0.111294
H	0.5605304417805844 0.9082566742658346 0.3051002670885096	0.112752
H	0.6510111983795280 0.8197816433091077 0.3099521224854185	0.091644
H	0.8174847991507571 0.6574031401605361 0.7852174314817074	0.106050
H	0.9070353409451216 0.5652109089479718 0.8009391009303110	0.111271
H	0.9421635664260003 0.5915619864273148 0.3052437927478270	0.111997
H	0.8512422542700487 0.6796979593993809 0.3101321752877634	0.093747
H	0.6588910191817734 0.6790792170360526 0.7909894491359692	0.107051
H	0.5669474137612760 0.5892423512345987 0.8094831256432441	0.111339
H	0.5875060199403557 0.5612579056589897 0.3090870690280524	0.111925
H	0.6751796652049890 0.6524741683526155 0.3114296991480718	0.095899
H	0.8467549266155091 0.8151820683474189 0.7773797147318153	0.106158
H	0.9401025673936495 0.9039325042887455 0.7907559385222255	0.111605
H	0.9040723147838770 0.9431776162028309 0.3016572518506502	0.113178
H	0.8147968946243237 0.8531039347979140 0.3090021353942478	0.092650
H	0.3152361996400903 0.3468126355303823 0.2227129990892635	0.105985
H	0.4039829790591022 0.4401630991948142 0.2093396861554758	0.111649
H	0.4431340849766553 0.4040129633017808 0.6983937096420354	0.112474
H	0.3530770940186288 0.3147255009066759 0.6910480052295771	0.092334
H	0.1790994096516974 0.1589754411250774 0.2089880093500941	0.106989
H	0.0892500445217505 0.0670465318050347 0.1905302995896248	0.111044
H	0.0612575392442883 0.0874678232282682 0.6909410174570286	0.111589
H	0.1524880897563184 0.1751362370173170 0.6885763054142690	0.093215
H	0.3450153197982039 0.1807002678151636 0.2151474907064649	0.106887
H	0.4381972737159830 0.0918170895012548 0.1992056841094445	0.111122
H	0.4083017025454067 0.0605357207727131 0.6950132008661309	0.112672
H	0.3198133393671851 0.1509999921724863 0.6901831236709925	0.091823
H	0.1574499797433226 0.3175122023904949 0.2147525582048945	0.106185
H	0.0652199854238759 0.4070268177692605 0.1990269455807456	0.110976
H	0.0915612002894582 0.4422166192760458 0.6946300709513185	0.111700
H	0.1797254508132594 0.3513184848960011 0.6897799149690333	0.093461
H	0.5028526722866541 0.0019029494827735 0.3201619476140231	0.097048
H	0.9999423802882454 0.4979140813724430 0.3201183395132886	0.098416
H	0.4953948393788390 0.5030311783437120 0.3286399001608653	0.097363
H	-0.0005715444382154 0.0003795504429067 0.3122280687982950	0.098207
H	0.5003148021669075 0.4994098387605324 0.6878410406688755	0.098461
H	0.0030045094236285 0.9953668428826892 0.6714109444394558	0.097460
H	0.5018819734467093 0.0028252409220117 0.6798771341101666	0.096968
H	0.9979411763962532 0.4999871341045132 0.6798084436599960	0.098459
Fe	0.2498634046818561 0.2492769638460741 0.4419556033998301	0.769750
Fe	0.7492557156497660 0.7498403629133475 0.5580357214497742	0.778292
B	0.2497886960469135 0.2513948934511618 0.8691954045008944	1.055930
B	0.7514028969090669 0.7497663502872018 0.1307008928521998	1.057032
F	0.2519970973204417 0.2498298145280236 0.2214282661771765	-0.536215
F	0.2467214749172238 0.2496374106242392 0.6935601401277203	-0.432916
F	0.7498265545570363 0.7519552598838759 0.7784954939109381	-0.536609
F	0.7496263739445364 0.7467122252906500 0.3062716690893788	-0.434674
F	0.2026555808440119 0.2019135739398892 0.9190037570771766	-0.449606
F	0.2315331919819653 0.3182244323989544 0.9135863207665224	-0.451507
F	0.3178089572768300 0.2352927036675012 0.9051753901849020	-0.454545
F	0.7352573865422963 0.8176846395522080 0.0944336340200006	-0.454656
F	0.8182233474787142 0.7315230929233677 0.0863575117016569	-0.452026
F	0.7020007941541988 0.7025908753667350 0.0808659411254187	-0.450543
N	0.3291383485342116 0.1694696498201501 0.4526504144590024	-0.239840
N	0.1711331432176960 0.3300329245395661 0.4524400229030108	-0.238678
N	0.3299463004156006 0.3282037441639164 0.4571665050401329	-0.238330
N	0.1696554373237208 0.1702176155175071 0.4488181889530016	-0.238325
N	0.6701953968097109 0.6696375536201919 0.5511673057368303	-0.240550
N	0.8281967763555377 0.8299383310131780 0.5428911252111266	-0.239965
N	0.6694865214259117 0.8291421421298787 0.5474308092008834	-0.241466
N	0.8299782760063147 0.6710975588689092 0.5475042549566836	-0.240694
	  	
