#======================================================================

# CRYSTAL DATA

#----------------------------------------------------------------------

data_VESTA_phase_1


_pd_phase_name                         BFFIVE_13_Cu_i
_cell_length_a                         15.02437
_cell_length_b                         15.08942
_cell_length_c                         8.77501
_cell_angle_alpha                      104.62531
_cell_angle_beta                       79.02065
_cell_angle_gamma                      92.97635
_symmetry_space_group_name_H-M         P 1
_symmetry_Int_Tables_number            1

loop_
_symmetry_equiv_pos_as_xyz
   x, y, z

loop_
   _atom_site_label
   _atom_site_fract_x
   _atom_site_fract_y
   _atom_site_fract_z
   _atom_site_charge
C	0.5584221789209509 0.6585793458148912 0.8917773129487515	0.111730
C	0.5614674810216652 0.7465137763014960 0.8675060157272334	-0.132892
C	0.4512770625864110 0.3138678538192909 0.9486352477022264	0.104085
C	0.4477831460856890 0.2199281723856268 0.9311740406687132	-0.147215
C	0.8509205126739100 0.9686644176648536 0.3449159721891711	0.095194
C	0.7624469404758305 0.9836136081224341 0.3305992753831145	-0.129298
C	0.3465777194550660 0.5290779540281201 0.9033613433651568	0.108227
C	0.2569727443632225 0.5315893471305754 0.8847566355905746	-0.136004
C	0.2009509480301961 0.9821596396303471 0.3549187179224156	0.094555
C	0.2939625344910977 0.9956157755681366 0.3411197428890936	-0.144044
C	0.6850076935309830 0.4465724716223546 0.9316848269373978	0.100757
C	0.7782683364618604 0.4426411195759690 0.9170323545268732	-0.138962
C	0.4532607904883505 0.7032844573492885 0.1285474562745638	0.092545
C	0.4489042010671427 0.7910801019647600 0.1080953729716648	-0.152193
C	0.5313005413038546 0.3356343208123280 0.1573924498368444	0.105363
C	0.5367336961106900 0.2413416733521598 0.1392080873843279	-0.148478
C	0.1831044954749356 0.9998933595200585 0.6309800741052600	0.101969
C	0.2759232930040973 0.0133001473456057 0.6263829183759212	-0.137085
C	0.6749770309686118 0.5690709659629629 0.1575016642523268	0.106947
C	0.7688932266479408 0.5728964248186841 0.1450550394827112	-0.152636
C	0.8135059254988092 0.0090660399597254 0.6237902914642105	0.092694
C	0.7242382934056162 0.0258021764255287 0.6196554428486396	-0.141828
C	0.3037392752761776 0.4751174644965453 0.1338584542001284	0.094864
C	0.2133866695843087 0.4697906513173608 0.1168428963905845	-0.153366
C	0.9750280580722700 0.8187571859782836 0.6538662129154478	0.102210
C	0.9657277375162905 0.7262541435113384 0.6532579745271042	-0.135876
C	0.9970419296755857 0.1800916242631135 0.6245752522334457	0.093378
C	0.9862159954392389 0.2704555589354508 0.6235094465298361	-0.145339
C	0.0231585660756034 0.7840983611789675 0.3766695457078182	0.089070
C	0.0165860098812135 0.6910151074195995 0.3670894406971649	-0.143976
C	0.0269780338689408 0.1353574520399214 0.3456130619199028	0.092728
C	0.0176979593940600 0.2248296648491238 0.3343057713062414	-0.123437
C	0.9954673801655043 0.2936735917260231 0.4762617331623493	0.040822
C	0.9798208070745206 0.3889265507959244 0.4767896513375900	0.254933
C	0.5053498535649377 0.8139338886748250 0.9771054731201211	0.064383
C	0.5044293137772762 0.9085639869840042 0.9605130730820488	0.244605
C	0.9857264633889942 0.6607398817218189 0.5062385346438378	0.042849
C	0.9746343938837759 0.5620814612754899 0.4937177173975109	0.250644
C	0.4937510771733929 0.1824044552088687 0.0245484830274895	0.059178
C	0.4984734475049920 0.0819018948566847 0.9915883025576296	0.243138
C	0.6977255851145778 0.0132091654083247 0.4706472135215866	0.041377
C	0.6029842994660157 0.0301331751525325 0.4663745857857080	0.253611
C	0.1892844201820904 0.5007514035158587 0.9926510890091244	0.057296
C	0.0932048358549136 0.5008447586629428 0.9783545891333739	0.244452
C	0.3327099679033453 0.0120682215650750 0.4788567219071957	0.043423
C	0.4305549629772505 0.0285819225685513 0.4699878251153922	0.248933
C	0.8214286536603946 0.5079995637775325 0.0230454112511791	0.063787
C	0.9210478907406977 0.5062614906634165 0.9989068805386239	0.239431
H	0.5945442295877831 0.6006461271010018 0.8049927443615656	0.114550
H	0.6047470833493134 0.7614144553630086 0.7624200494270750	0.126965
H	0.4251706138487809 0.3455605279346876 0.8676068196728892	0.106392
H	0.4149305207629250 0.1754966954536655 0.8395755989174547	0.106460
H	0.9055573981784292 0.9476167642994192 0.2416566143383007	0.119934
H	0.7456312731176038 0.9739924950245171 0.2121273172920104	0.130193
H	0.4023778207340516 0.5462904372798097 0.8163678515589772	0.115836
H	0.2416337491565259 0.5549488203577762 0.7849418558952296	0.133296
H	0.1649426146981705 0.9682756955963657 0.2536853605603963	0.121604
H	0.3347768070572267 0.9950494940676697 0.2245775437646464	0.108392
H	0.6468247269062412 0.4042647531511859 0.8451515529896874	0.114729
H	0.8180387180830671 0.3925628531409065 0.8199943634261379	0.113689
H	0.4138155622476171 0.6828789937529500 0.2318586673843668	0.111929
H	0.4035552625227111 0.8416307403614741 0.1945099940665699	0.112311
H	0.5596438894570327 0.3847652783561756 0.2503231220267583	0.109430
H	0.5732229280454462 0.2150386382569446 0.2144612732353294	0.128451
H	0.1365198133000752 0.0024113642460559 0.7438200341461179	0.108644
H	0.3031461226796939 0.0249499671304678 0.7364023967699621	0.125559
H	0.6300599695606887 0.6148512699586441 0.2541461083330014	0.101134
H	0.8002561049099725 0.6244724894312845 0.2301463534802256	0.124762
H	0.8371108951894191 0.0186160164608539 0.7366804556107824	0.108200
H	0.6766107656286235 0.0491416304080642 0.7316492364268341	0.105806
H	0.3258592915419035 0.4566377638729849 0.2332647876661647	0.105189
H	0.1621292768014941 0.4434862547921996 0.2000436045559487	0.116114
H	0.9597901844015757 0.8717600762911919 0.7655153626075727	0.105515
H	0.9434628133748554 0.7058960503690707 0.7651632119762314	0.126946
H	0.9890442199903916 0.1591941951754489 0.7362961296444405	0.107725
H	0.9694318554336618 0.3213403806970345 0.7369033052482979	0.102778
H	0.0432435054070073 0.8132189234106963 0.2723926794229443	0.117743
H	0.0342939149672727 0.6426253900361295 0.2516553215659799	0.101081
H	0.0417144868652842 0.0780887696094822 0.2399867029219494	0.114798
H	0.0245249600304988 0.2387380754262008 0.2167468118326956	0.132224
N	0.9373828779583152 0.5331998262978002 0.6256240042976449	-0.126300
N	0.4217507719661080 0.0334542709148951 0.9706871216693607	-0.142729
N	0.5478933848023240 0.0684822157470360 0.6065225550700559	-0.123277
N	0.9597606429302682 0.4231760236128393 0.9670532225491141	-0.125248
N	0.9942066113823056 0.5037101376972113 0.3465999622564265	-0.145360
N	0.5810934836019690 0.0425274907468306 0.9578855104049979	-0.133166
N	0.9682885399696950 0.5835496097764009 0.9871208909848339	-0.148034
N	0.5748932494573545 0.0150463825651757 0.3244693937553307	-0.131198
N	0.9976711753809278 0.4155123697605881 0.3381846317983401	-0.123843
N	0.5842027791782786 0.9530054371001009 0.9387592974509589	-0.144604
N	0.4868659436069568 0.0148993172196662 0.3259468762599853	-0.143979
N	0.0575520925708393 0.5800735688328886 0.9734132614853044	-0.147750
N	0.9393640887721558 0.4450716575395778 0.6165966734469439	-0.126704
N	0.4243086947675987 0.9443159582591854 0.9575067361383801	-0.153848
N	0.0480465256275241 0.4201397210890194 0.9587564706191737	-0.142872
N	0.4603377968927253 0.0665109491990703 0.6078670165206497	-0.120746
N	0.0157239704157139 0.1137259332882410 0.4880261836325236	-0.208825
N	0.5070878437655190 0.6385617684199866 0.0222223648772097	-0.217503
N	0.0020049972103464 0.8467401386003335 0.5178534392580950	-0.211812
N	0.4910929322882839 0.3708198091407628 0.0612238538841320	-0.220776
N	0.8756145021562159 0.9817540218145987 0.4889885362191026	-0.208479
N	0.3685705000046705 0.5037838856352147 0.0281035704441804	-0.217110
N	0.1468302738681509 0.9850749122534594 0.4977090526469344	-0.208264
N	0.6345953147470667 0.5081210535625786 0.0513442951772290	-0.216663
Cu	0.0117334986197470 0.9774208924097615 0.4873680471821762	0.676328
Cu	0.5021918508919589 0.5035663455682309 0.0341400992134741	0.690726
B	0.9653062785227441 0.0458325203329224 0.9567608836101831	1.035167
B	0.4546672958851614 0.5416892591066612 0.4668349253326751	1.041341
F	0.0418073707311250 0.9321122539496481 0.2368415442919949	-0.623446
F	0.5350976390558256 0.4527268387360681 0.7905043396903001	-0.650750
F	0.9731997973556170 0.0312473127198105 0.7847003557951090	-0.469939
F	0.4467093709541255 0.5810200553034673 0.3357583413943886	-0.486089
F	0.9138670674097471 0.9720698898643250 0.9997076093877606	-0.439164
F	0.3945741849816533 0.4659825221996616 0.4616520172902618	-0.466259
F	0.9215638935925626 0.1297302066416146 0.0327984254470195	-0.461735
F	0.4310096246501589 0.6092430276730897 0.6117561457374432	-0.457098
F	0.0542485279220874 0.0472899896677525 0.9870718820288950	-0.436954
F	0.5455507799874483 0.5140652012173677 0.4444316777593275	-0.457963
	  	
