#======================================================================

# CRYSTAL DATA

#----------------------------------------------------------------------

data_VESTA_phase_1


_pd_phase_name                         BFFIVE_14_Cu_i
_cell_length_a                         13.00759
_cell_length_b                         13.00562
_cell_length_c                         9.10560
_cell_angle_alpha                      102.13834
_cell_angle_beta                       102.24392
_cell_angle_gamma                      83.42962
_symmetry_space_group_name_H-M         P 1
_symmetry_Int_Tables_number            1

loop_
_symmetry_equiv_pos_as_xyz
   x, y, z

loop_
   _atom_site_label
   _atom_site_fract_x
   _atom_site_fract_y
   _atom_site_fract_z
   _atom_site_charge
C	0.5892046061013486 0.2506995162387259 0.3518327341652027	-0.177359
C	0.4828647024209055 0.2517458387968152 0.3535124466558099	0.101177
C	0.9757608359784430 0.2713839694671675 0.4258208983641980	-0.160747
C	0.0797022195549407 0.2730647693228696 0.4100428732557156	0.102693
C	0.2488965437088062 0.5886406081793168 0.3516799027597013	-0.177820
C	0.2501596602548727 0.4822486561823645 0.3532360601657314	0.100683
C	0.2718990638533458 0.9749886428385037 0.4261845791693859	-0.160821
C	0.2740052605924816 0.0789026741395775 0.4102968720033427	0.104288
C	0.9221513261296230 0.2666751043510451 0.1533910949853039	-0.178359
C	0.0273943926879786 0.2667637548481984 0.1469617335999518	0.097863
C	0.5425676330044975 0.2330852203760393 0.0764338406967534	-0.165046
C	0.4374286765914374 0.2336026208579331 0.0873970778081203	0.098438
C	0.2350786254534308 0.5421011871832256 0.0768933002170029	-0.164478
C	0.2357006812257491 0.4369112552356108 0.0877236262122899	0.098036
C	0.2671829677790480 0.9214590953468688 0.1538812450582271	-0.178523
C	0.2675323313313623 0.0266669650078811 0.1472989211858519	0.098604
C	0.4209163955177654 0.7643770763663094 0.6521945302351301	-0.177732
C	0.5261415437083323 0.7642602224602978 0.6454469008868251	0.097970
C	0.0417492992746657 0.7312339513167901 0.5775938716377718	-0.164410
C	0.9365199149930009 0.7327810852997526 0.5885584191814311	0.097186
C	0.7667103384688615 0.4215762094074816 0.6525689518634072	-0.177276
C	0.7666829281081601 0.5268719529582072 0.6461421613930590	0.096858
C	0.7296607550501144 0.0427295011267673 0.5765374991826767	-0.164808
C	0.7306229689448194 0.9375128283566715 0.5875285234559234	0.097667
C	0.0882152781264820 0.7514352442692517 0.8533564268334514	-0.177256
C	0.9818168750653704 0.7529737290274968 0.8549816451874779	0.100310
C	0.4744006533538839 0.7744626592294992 0.9257674419091890	-0.160564
C	0.5783682584774983 0.7753973196789471 0.9095688783128033	0.102874
C	0.7737267234916921 0.4747228600058812 0.9254667239195855	-0.162474
C	0.7745891506843590 0.5787907587929567 0.9095192063368203	0.103454
C	0.7504915294713866 0.0888662788480366 0.8522684217715532	-0.177352
C	0.7513066881662286 0.9825303979505096 0.8539290055441925	0.100461
C	0.6196335323982506 0.2429226663677924 0.2106648520577056	0.195312
C	0.8958237473674995 0.2668898207266954 0.2953016896734026	0.192168
C	0.2430269907437371 0.6191334042617747 0.2108938109450195	0.194924
C	0.2671485563670472 0.8951489282973956 0.2957795150210485	0.192411
C	0.3945697690507963 0.7674908966520511 0.7949337551177252	0.191938
C	0.1187493827100845 0.7420557187267105 0.7119153644964303	0.194975
C	0.7681081088073258 0.3950388119376874 0.7947616240648709	0.191821
C	0.7412739997342463 0.1195250352284290 0.7108399073478914	0.194946
H	0.6474858592060426 0.2550070699392119 0.4579021797301897	0.092672
H	0.4505202134872350 0.2617581959246454 0.4579317919986459	0.113773
H	0.9581450414898837 0.2718146158794948 0.5376037943138275	0.134808
H	0.1457721718065405 0.2791910224841604 0.5071995503324265	0.112903
H	0.2520078953872473 0.6468610178529758 0.4575080852746389	0.092976
H	0.2591098430588805 0.4499107226868503 0.4575824459344022	0.114300
H	0.2722639517638925 0.9573394054004263 0.5379892846858572	0.134653
H	0.2803932464329917 0.1448708762462227 0.5074264465322540	0.112577
H	0.8615945685334843 0.2671802940918229 0.0505410799711910	0.092351
H	0.0530041998475682 0.2635358228313001 0.0396973231566408	0.104330
H	0.5645460739433038 0.2261091256265064 0.9656082858971019	0.133420
H	0.3751921565670002 0.2244124795811160 0.9853969455574971	0.100278
H	0.2296022061761074 0.5641798459016907 0.9663902456973712	0.133241
H	0.2279808860327271 0.3746848781218675 0.9858369058201915	0.100210
H	0.2676024990279425 0.8609576300310231 0.0510890580049278	0.091715
H	0.2643674238557536 0.0522199031731708 0.0399240985372038	0.104248
H	0.3603801899217937 0.7632225538546268 0.5490277924473302	0.092986
H	0.5518268803899508 0.7590685572632984 0.5377293927141509	0.103944
H	0.0639625523526059 0.7228052236759908 0.4666640168098530	0.132435
H	0.8742955742169661 0.7232565811956616 0.4865409022610361	0.100389
H	0.7666422441092554 0.3611913721710483 0.5495547933714824	0.092915
H	0.7627431295446085 0.5526579057670165 0.5387663000069766	0.104056
H	0.7213405920894539 0.0649673004665680 0.4655768641120968	0.132471
H	0.7206051292732141 0.8754454901371584 0.4854773362718738	0.100860
H	0.1465829639824107 0.7564651599086483 0.9593910833500295	0.094291
H	0.9492729955064164 0.7637152228566818 0.9593935308618646	0.114361
H	0.4565743973029726 0.7773750310716927 0.0381497147333457	0.134485
H	0.6444606731891539 0.7829367931497635 0.0067466073039543	0.113214
H	0.7753156264341524 0.4566823608957010 0.0373913812778606	0.134629
H	0.7809407633882212 0.6447237012953049 0.0067591477053024	0.112907
H	0.7560060044789977 0.1470736131137853 0.9583606341108599	0.093778
H	0.7620774916693387 0.9499796394305172 0.9584261912195682	0.114025
N	0.7911300295805951 0.2654513387873503 0.3156946069535292	-0.088021
N	0.2652193493523645 0.7904901136098169 0.3161430528791889	-0.087350
N	0.7249166074946665 0.2429296855454655 0.1921297593155313	-0.092953
N	0.2433285465969260 0.7243843453271561 0.1924456414914190	-0.093182
N	0.2240156502149442 0.7410468816805290 0.6929240938300074	-0.092991
N	0.7411002115462292 0.2247947361915767 0.6921285427486893	-0.091591
N	0.2899155428877437 0.7669015416030368 0.8158211207816973	-0.087625
N	0.7669875505362059 0.2903543170755560 0.8152597325665065	-0.087950
N	0.4087429859232938 0.2438530098214994 0.2235147606477925	-0.212356
N	0.1044993558736466 0.2689286549796624 0.2725919334514628	-0.208413
N	0.2441978174922578 0.4081568847233073 0.2235392662241195	-0.211579
N	0.2699245547775224 0.1037204587106780 0.2728068754399575	-0.209904
N	0.6031876709572395 0.7686280643909680 0.7714465051582582	-0.209829
N	0.9077605948970637 0.7445137337186167 0.7248811382799273	-0.211929
N	0.7692500345862584 0.6038208172964726 0.7717963901927002	-0.208324
N	0.7424025970681862 0.9085925993438684 0.7238535021163025	-0.212281
F	0.2860862953965770 0.1463898242307241 0.7621728040451125	-0.448563
F	0.1552618225499552 0.2855574176679203 0.7622398065657698	-0.446720
F	0.1092137763296857 0.1125916478684564 0.6952091104433096	-0.467172
F	0.6477166531381562 0.7864668360886533 0.2622215733211058	-0.447878
F	0.7853470878700304 0.6542274223709791 0.2611146405045233	-0.446280
F	0.6110564260117393 0.6105577631715614 0.1932626987959171	-0.466997
F	0.3058610674620234 0.3053037563618948 0.4982320381367127	-0.640258
F	0.1839143475664849 0.1835137785534719 0.9474847826123469	-0.470659
F	0.6831794879362654 0.6827199827196208 0.4460672739449132	-0.470272
F	0.8049077294004605 0.8055958880112505 0.9985182363217487	-0.638538
B	0.1828829658217967 0.1813557534673348 0.7881485916274025	1.034999
B	0.6811766449115839 0.6826561346125771 0.2867493456230544	1.034787
Cu	0.2593885438134830 0.2586636786021532 0.2616853831647640	0.659711
Cu	0.7581700937906145 0.7590161367763527 0.7616571771363415	0.657885
	  	
