#======================================================================

# CRYSTAL DATA

#----------------------------------------------------------------------

data_VESTA_phase_1


_pd_phase_name                         BFFIVE_16_Ni_i
_cell_length_a                         25.02606
_cell_length_b                         25.02532
_cell_length_c                         8.16759
_cell_angle_alpha                      90.04655
_cell_angle_beta                       90.00400
_cell_angle_gamma                      89.98378
_symmetry_space_group_name_H-M         P 1
_symmetry_Int_Tables_number            1

loop_
_symmetry_equiv_pos_as_xyz
   x, y, z

loop_
   _atom_site_label
   _atom_site_fract_x
   _atom_site_fract_y
   _atom_site_fract_z
   _atom_site_charge
C	0.4831976045742367 0.3904501632257235 0.3791753913706934	0.099110
C	0.4813895752981369 0.3350277446678319 0.3697695870379947	-0.175926
C	0.9551166542659548 0.6136517009634807 0.9432698606564941	-0.125934
C	0.9553613201376853 0.5581437300662727 0.9432061070318709	-0.124627
C	0.5160316051364970 0.6092362525581171 0.3726588194629538	0.099090
C	0.5182015812649916 0.6646319462559662 0.3616206208128248	-0.175512
C	0.0451970511824221 0.3864384072250029 0.9458027726256302	-0.125094
C	0.0448304709280662 0.4419383259071556 0.9441094906801958	-0.124877
C	0.6095631105048925 0.4836993669294783 0.3768935057628178	0.096926
C	0.6649761904442771 0.4818372420092081 0.3668890641402909	-0.175551
C	0.3865466219162346 0.9551080073348566 0.9435894230863349	-0.126340
C	0.4420522367940527 0.9553746752534480 0.9431953347769846	-0.125474
C	0.3908624559016178 0.5166248701471426 0.3739124694319117	0.100695
C	0.3354812371256803 0.5187892334733797 0.3629575856187836	-0.177481
C	0.6137266670798469 0.0452663579662958 0.9459701783642773	-0.124498
C	0.5582303429475278 0.0448895894572562 0.9442238896317020	-0.126033
C	0.5201878095529009 0.3874144590098771 0.6396349206985937	0.097422
C	0.5204818594532188 0.3319211811411296 0.6395451570406431	-0.177659
C	0.0447383130277789 0.6136726073136141 0.0573949550000065	-0.127387
C	0.0447340659229030 0.5581626367262977 0.0556915574712508	-0.123826
C	0.4803717441383922 0.6133896740107702 0.6346392946187537	0.087911
C	0.4802686022390116 0.6688661022178780 0.6326402035656613	-0.174901
C	0.9555791609331180 0.3866496877863931 0.0598914562770743	-0.125407
C	0.9554594386223139 0.4421430543896959 0.0565761732568492	-0.123284
C	0.3868585061599369 0.4797235373969759 0.6343071337063761	0.092554
C	0.3313865705104834 0.4797449799475439 0.6325300070559128	-0.175525
C	0.6136038073947295 0.9556646991308440 0.0600248542838779	-0.125626
C	0.5581087406562789 0.9555390070208044 0.0566836488948877	-0.123604
C	0.6130058618219192 0.5196069311984922 0.6386909651645967	0.095286
C	0.6684918160258757 0.5199945219481723 0.6378218989991398	-0.176304
C	0.3865546701367489 0.0447325477081321 0.0578699035417953	-0.126689
C	0.4420506601878353 0.0447555200210098 0.0557776566259934	-0.124002
C	0.5452481406572864 0.8864574663877329 0.5541867660483848	-0.124683
C	0.5448746729988326 0.9419637006984736 0.5558951588795725	-0.125510
C	0.0160835103193482 0.1092626155680457 0.1274613053793939	0.098399
C	0.0183961698313885 0.1646723433354151 0.1383778750167482	-0.174946
C	0.4550756720876508 0.1137081501705471 0.5566596311708728	-0.126110
C	0.4553448511428629 0.0581965367976030 0.5568020318844474	-0.124774
C	0.9831497635787630 0.8904814208966981 0.1208407183409468	0.098770
C	0.9812211955266363 0.8350673893926110 0.1300882506609455	-0.175965
C	0.1137687160909296 0.5453379419551908 0.5540416715029778	-0.123436
C	0.0582636276114454 0.5449418642034493 0.5558489556729649	-0.127222
C	0.8908600802741879 0.0166563824793551 0.1261562069462097	0.100271
C	0.8354672900873830 0.0189515169329228 0.1370723957721565	-0.176448
C	0.8865519045773044 0.4550718887862142 0.5564082339044285	-0.126193
C	0.9420607532253402 0.4553598890370064 0.5568945142574538	-0.126032
C	0.1095716512434684 0.9835963862337642 0.1229219479835371	0.097261
C	0.1649891682607049 0.9816288962553892 0.1326629197521785	-0.174800
C	0.4556253915195020 0.8865948684344460 0.4401141944577628	-0.124942
C	0.4555116737626360 0.9420985512629395 0.4434490018716842	-0.124223
C	0.9803755339193571 0.1133062520156031 0.8655218278624143	0.090625
C	0.9804254755193089 0.1687961287323583 0.8674533420525591	-0.175049
C	0.5446891887496171 0.1137050635606824 0.4425734656096501	-0.126588
C	0.5447039425638218 0.0581917247690376 0.4443657705865074	-0.124753
C	0.0201692584985490 0.8873087225265974 0.8603889358458335	0.097328
C	0.0203290627339517 0.8318127118582227 0.8603922227971054	-0.177626
C	0.8865342882980806 0.5446551245904092 0.4422559188613243	-0.126608
C	0.9420325409665274 0.5446916471715550 0.4444576766704994	-0.124041
C	0.1129422748887644 0.0195451272208157 0.8613089426901912	0.094269
C	0.1684308383958822 0.0198124443141742 0.8619994270851774	-0.176118
C	0.1136701049798789 0.4556833843150641 0.4399843286791981	-0.125112
C	0.0581689073361963 0.4555505872332338 0.4434147166436551	-0.123682
C	0.8868072084079476 0.9796874864370105 0.8656714682828194	0.092632
C	0.8313234187421437 0.9798495208811687 0.8674568492872761	-0.175581
C	0.5003526561429662 0.3044412250005516 0.5022614437886693	0.173144
C	0.4996180941714962 0.2477990710708798 0.4986167276035199	-0.116295
C	0.4996368680476593 0.1990547289207032 0.4984855614188463	-0.097696
C	0.4997899819719174 0.1423996150042778 0.4990048123299672	0.126327
C	0.5000717380705529 0.0295320424152079 0.5009185147142052	0.066167
C	0.0001488254024784 0.8044024000853269 0.9976033143162384	0.172971
C	-0.0004255322196917 0.7477537503536161 0.0013456416404929	-0.116093
C	-0.0002827059275735 0.6990070653999230 0.0015942166810298	-0.098170
C	-0.0001565240686452 0.6423490205487782 0.0009722561950902	0.126724
C	0.0000773084932435 0.5295062785305042 -0.0008378178165843	0.065889
C	0.4999923772523499 0.6957930816545275 0.4939367983359162	0.171022
C	0.5010412302341499 0.7524426405164867 0.4899643621237096	-0.115501
C	0.5009501454044060 0.8011733591133736 0.4922600279385589	-0.098123
C	0.5006362774356613 0.8578381659655819 0.4953114878633118	0.124027
C	0.5001424944464044 0.9707003680191220 0.5004433302932838	0.066099
C	0.0002049028497985 0.1957905985428395 0.0060703174213287	0.171853
C	0.0010934933646567 0.2524528582449920 0.0102077260810984	-0.116810
C	0.0008950966201989 0.3011914474012299 0.0079527382926210	-0.097339
C	0.0005851144528160 0.3578531096476762 0.0047325787742656	0.124082
C	0.0001066159587811 0.4706905594316756 -0.0003858150493464	0.065364
C	0.6957892174845307 0.5003338014771085 0.4996028690925475	0.171555
C	0.7524370499960144 0.4995299903720950 0.4958589287222569	-0.114114
C	0.8011770905247722 0.4995340219929611 0.4967781508982322	-0.099967
C	0.8578420325813981 0.4997244737508945 0.4983510018697858	0.126962
C	0.9707229877669873 0.5000823042884700 0.5010341230649348	0.065771
C	0.1957739003861267 0.0001153307549860 0.9999781536945327	0.171622
C	0.2524325439171644 -0.0005060296799045 0.0038007660011247	-0.114742
C	0.3011796892945685 -0.0003708212337390 0.0031664737062981	-0.100131
C	0.3578484577025538 -0.0002028308379654 0.0016873896828080	0.127173
C	0.4707062468462495 0.0001097840115906 -0.0008479743357529	0.065332
C	0.3044073602748796 0.5000426056948498 0.4946673657110023	0.171964
C	0.2477855127340599 0.5010986015003145 0.4905235733624742	-0.115908
C	0.1990433727214549 0.5010353250187864 0.4924243418721845	-0.097672
C	0.1424058121157779 0.5007213841333727 0.4952573929172809	0.124227
C	0.0295520950547730 0.5001577472918628 0.5005170985049695	0.066450
C	0.8043654763156423 0.0002225191956628 0.0053362788874190	0.171195
C	0.7477262585844379 0.0011324698716820 0.0096082594302853	-0.114616
C	0.6989921465011755 0.0009688053613923 0.0077691011824144	-0.098636
C	0.6423464213913669 0.0006694855496901 0.0048043497453608	0.124954
C	0.5295219162846097 0.0001428517606357 -0.0003669150461674	0.066225
H	0.4707843538450318 0.4164458487637323 0.2785658159766942	0.113285
H	0.4655827029073896 0.3155247178264121 0.2608414235997041	0.123289
H	0.9205479249989008 0.6355670945810257 0.8977706191992351	0.111304
H	0.9209264897897523 0.5364140707595189 0.8953965711714180	0.105652
H	0.5277490499707406 0.5828509864465118 0.2722007481996683	0.112733
H	0.5337372824028193 0.6836483048133174 0.2516391712796540	0.122306
H	0.0797819875432500 0.3644340764035929 0.9007017762556876	0.110958
H	0.0791970585560179 0.4635832567892006 0.8955462243544401	0.106140
H	0.5834401326321874 0.4717516275716186 0.2759889720186983	0.113830
H	0.6842975782375454 0.4663179167036694 0.2572926159791019	0.123038
H	0.3646363773749230 0.9205089897812652 0.8981259232758758	0.111459
H	0.4637736504430430 0.9209510759588374 0.8952028037447742	0.106409
H	0.4172331129579723 0.5289378903974991 0.2741147162961114	0.111646
H	0.3163731079744992 0.5347030486405300 0.2536078863070955	0.123080
H	0.6357049172426347 0.0798643691698913 0.9009477458139370	0.110904
H	0.5365574863224508 0.0792345242729663 0.8956641552311058	0.106316
H	0.5348707637396485 0.4100961169303143 0.7445112691068021	0.096844
H	0.5358830447458988 0.3099877536061163 0.7444866982215835	0.122860
H	0.0792590235050241 0.6355837929580990 0.1033606339934160	0.111895
H	0.0792490385818288 0.5364465037473047 0.1029367383093582	0.105521
H	0.4667062008088020 0.5912998633725661 0.7418035342918075	0.102859
H	0.4654289696245066 0.6912424310882688 0.7375612276626266	0.122333
H	0.9210709180660699 0.3648267748434676 0.1062213114909389	0.111394
H	0.9208738122219414 0.4639535769873537 0.1030064849274355	0.105635
H	0.4090632947708364 0.4651164745075817 0.7402181137805017	0.099508
H	0.3090444736484615 0.4644999405281123 0.7368947189354284	0.122160
H	0.6354583708034715 0.9211784894584532 0.1063983690826137	0.111132
H	0.5363341089605207 0.9209505463480182 0.1031236094602758	0.105167
H	0.5905674117672092 0.5332561947211928 0.7451855704648435	0.098430
H	0.6905555532759559 0.5350023113686823 0.7431061196068399	0.122038
H	0.3646653814424227 0.0792478212775067 0.1040366081376759	0.111662
H	0.4637853483604558 0.0792956268798923 0.1029146419769411	0.105897
H	0.5798416741183332 0.8644603111629944 0.5991687544404452	0.111105
H	0.5792419329592513 0.9636038475379229 0.6045594306759453	0.106191
H	0.0276755294989937 0.0829528008310999 0.2281261581585909	0.112990
H	0.0337718630858080 0.1837347685122263 0.2485997748895665	0.122217
H	0.4205008730136324 0.1356606917421733 0.6020511801797279	0.111386
H	0.4209131723636532 0.0365212353303155 0.6047218204604762	0.105682
H	0.9708817567636744 0.9164947795329129 0.2216829321450169	0.114140
H	0.9655862539518112 0.8156348752225528 0.2392428911756733	0.123330
H	0.1357661825905697 0.5799603833663967 0.5989614221372371	0.110714
H	0.0366361528415779 0.5793109804205973 0.6045429842807772	0.106461
H	0.9172095877473891 0.0288541645862968 0.2261916465252376	0.111968
H	0.8163975176753945 0.0347176321009460 0.2467455084436326	0.122547
H	0.8646321870815320 0.4204868989470980 0.6017614032394968	0.111474
H	0.9637568791839751 0.4209503524836183 0.6049313863928818	0.106654
H	0.0835130233810606 0.9717915906351885 0.2240857382360954	0.114175
H	0.1843387555584934 0.9662663013616507 0.2423481144803317	0.122598
H	0.4211135285701901 0.8647707056669443 0.3936977035283140	0.111419
H	0.4209101066165086 0.9638785914235712 0.3970995190160906	0.105473
H	0.9665593249297749 0.0911845748064286 0.7584719207467459	0.099674
H	0.9654492062105423 0.1911854189500101 0.7628365354876914	0.121852
H	0.5792043874683281 0.1355862458332316 0.3964989352378616	0.111730
H	0.5792331120311639 0.0364691362145109 0.3971843984320667	0.105854
H	0.0350055108211707 0.9099462286717264 0.7556829891396906	0.096592
H	0.0358807806739623 0.8097710517835166 0.7557791745726258	0.122933
H	0.8646534310097564 0.5791550048141286 0.3960896399804849	0.111647
H	0.9637573761484505 0.5792320679345248 0.3974537161916283	0.105736
H	0.0904664396825827 0.0333237821480912 0.7550929223162011	0.098799
H	0.1905059268489679 0.0349354900572527 0.7569845085019802	0.122152
H	0.1355112285668825 0.4211727900256312 0.3935083445172611	0.111036
H	0.0364070665116448 0.4209221349205486 0.3970433117128359	0.105130
H	0.9089864589653757 0.9648997510723160 0.7598401991744217	0.099415
H	0.8089009246460613 0.9644040081306787 0.7634588221744448	0.122064
Ni	0.4999609029067092 0.4999164620337426 0.5063624885964483	0.718416
Ni	-0.0000388211078100 0.9998332191747925 -0.0067031938753933	0.717893
B	0.4981033209954726 0.4986542473116779 0.9400879120344330	1.067682
B	0.9981111325224773 0.9984331826422389 0.5589777438133248	1.067230
F	0.5007533823729741 0.4982856851329001 0.2763282440901296	-0.578816
F	0.9979010235448603 0.0017216642124587 0.7413952278705730	-0.453280
F	0.4979198106927779 0.5020349948389022 0.7577480977880885	-0.453209
F	0.0008577093304099 0.9982681678371418 0.2238139631875239	-0.579135
F	0.4598066021435243 0.4597602494563773 0.9789445940241058	-0.457465
F	0.9599371810985687 0.9593400410898552 0.5196197286757347	-0.457059
F	0.4841656671585640 0.5501091153368896 -0.0076405756524663	-0.454675
F	0.9839712713818414 0.0499326131689262 0.5074248734751354	-0.454451
F	0.5503455886519294 0.4833860363711481 0.9804655955860047	-0.457470
F	0.0504445929200043 0.9833576234579436 0.5185228995652993	-0.457619
N	0.5018253590430631 0.4161585344777280 0.5125358111359170	-0.226613
N	0.0018417126146129 0.9161231031033045 0.9875388717231355	-0.226219
N	0.4979866154484158 0.5840411794452318 0.5075066374470741	-0.227657
N	-0.0020409637492813 0.0839975273937752 -0.0073067008089431	-0.227288
N	0.5839967165698056 0.5017903706319352 0.5112580725535724	-0.227111
N	0.0839708099374558 0.0017529773050936 0.9887746637613195	-0.226738
N	0.4160865451258661 0.4979583478827475 0.5078693624781528	-0.225666
N	0.9160699636956214 -0.0020917410384568 -0.0078404152732318	-0.225406
	  	
