#======================================================================

# CRYSTAL DATA

#----------------------------------------------------------------------

data_VESTA_phase_1


_pd_phase_name                         BFFIVE_1_Cu
_cell_length_a                         11.14355
_cell_length_b                         11.14099
_cell_length_c                         9.00188
_cell_angle_alpha                      89.85001
_cell_angle_beta                       90.16878
_cell_angle_gamma                      90.02168
_symmetry_space_group_name_H-M         P 1
_symmetry_Int_Tables_number            1

loop_
_symmetry_equiv_pos_as_xyz
   x, y, z

loop_
   _atom_site_label
   _atom_site_fract_x
   _atom_site_fract_y
   _atom_site_fract_z
   _atom_site_charge
C	0.2544984317999172 0.4707405589952156 0.3713179788337818	0.095114
C	0.1298632585628058 0.4695310290453805 0.3706274832246504	-0.172114
C	0.7453574545073063 0.5259210102588175 0.3711501634898003	0.094516
C	0.8699798706388545 0.5273008727750809 0.3700177170776143	-0.173228
C	0.5284298703085556 0.2552465577584259 0.3724846842348996	0.095052
C	0.5296100820859920 0.1306451324232017 0.3712486539812326	-0.173306
C	0.4734527985069421 0.7459066454995705 0.3705284881027340	0.094802
C	0.4719657789295368 0.8706182357449378 0.3698812065914631	-0.172488
C	0.7422522135626308 0.4752351216620936 0.6220839237846364	0.095378
C	0.8671755610203343 0.4735075382619247 0.6280647283577414	-0.168837
C	0.2591537134271616 0.5264134234310515 0.6201550718607324	0.097658
C	0.1343759922284760 0.5280368941076223 0.6266609015388813	-0.169695
C	0.4730210087190153 0.2584298178140139 0.6213592692365325	0.096745
C	0.4712251157772274 0.1335354977491706 0.6273438237647970	-0.168308
C	0.5243306782216308 0.7415162811777752 0.6214692507795194	0.095131
C	0.5257895030435312 0.8664009355408064 0.6279032534599359	-0.169567
C	0.0666597731166499 0.4992527797831822 0.4999977124915353	0.097721
C	0.9340786777117328 0.5000642742995353 0.5002078809667831	0.099535
C	0.4999280550054740 0.0666361667639321 0.5004384838424790	0.099722
C	0.4991632165111944 0.9340265258630496 0.5002125011346668	0.097414
H	0.3063432811577968 0.4490038989149634 0.2723174749141398	0.104394
H	0.0830735196643896 0.4435953098231077 0.2693287357277188	0.118700
H	0.6929529722209341 0.5441094342457266 0.2710566950822880	0.103794
H	0.9160127985439915 0.5509924716276036 0.2675180674605475	0.119554
H	0.5494726852630537 0.3078831236851820 0.2735898611334781	0.104401
H	0.5552574756182478 0.0845111024477678 0.2697367138336687	0.119300
H	0.4544480638011614 0.6941984610350160 0.2703804052641107	0.103799
H	0.4479279141763862 0.9172555051478114 0.2676201336126471	0.119164
H	0.6841308924636978 0.4586548373972150 0.7180860789392757	0.118958
H	0.9114017216022682 0.4498796348168976 0.7322017811193592	0.119564
H	0.3180577716955328 0.5443733687404457 0.7153875565257901	0.118433
H	0.0909484729143844 0.5532988888411111 0.7302659207256076	0.119594
H	0.4548529724194975 0.3166877321711806 0.7167053964122313	0.119519
H	0.4457747641159998 0.0893897198553480 0.7307315031610383	0.119316
H	0.5406514886166489 0.6827845196921829 0.7173934349946707	0.119371
H	0.5490921081615731 0.9099609544813921 0.7323117947231722	0.119729
Cu	0.5003435496189980 0.5002547637411974 0.5059631489930468	0.683105
B	0.4996054105401794 0.5009410508253493 0.0662076308387549	1.060645
F	0.5004460638807361 0.4997166634129267 0.7318420054827166	-0.625566
F	0.4986841566385304 0.5016812775025660 0.2304945883481178	-0.489385
F	0.4142410344690627 0.4147576885182688 0.0227728516814664	-0.469346
F	0.6172995212300779 0.4695136817201814 0.0253258345786758	-0.469708
F	0.4686066870269287 0.6179501368854647 0.0211145330878764	-0.466651
N	0.3175227660164485 0.4989988974493118 0.4939305165168734	-0.215355
N	0.6830499927261172 0.5005483523550229 0.4950145981383632	-0.215695
N	0.5006088372949982 0.3175420952064366 0.4952681609897018	-0.214767
N	0.4992920424373724 0.6829611915055251 0.4942815609602437	-0.216112
	  	
