#======================================================================

# CRYSTAL DATA

#----------------------------------------------------------------------

data_VESTA_phase_1


_pd_phase_name                         BFFIVE_2_Zn
_cell_length_a                         13.96402
_cell_length_b                         13.95969
_cell_length_c                         8.64020
_cell_angle_alpha                      89.01653
_cell_angle_beta                       90.77385
_cell_angle_gamma                      89.92221
_symmetry_space_group_name_H-M         P 1
_symmetry_Int_Tables_number            1

loop_
_symmetry_equiv_pos_as_xyz
   x, y, z

loop_
   _atom_site_label
   _atom_site_fract_x
   _atom_site_fract_y
   _atom_site_fract_z
   _atom_site_charge
C	0.5219499683280512 0.7002792657409057 0.1247226860363101	0.094947
C	0.5232886762869366 0.7995347219881552 0.1341691340313123	-0.169997
C	0.4763146067561601 0.2979280159737193 0.1200154682119604	0.094126
C	0.4748749239369975 0.1984953233177005 0.1296064257497038	-0.169154
C	0.3003156291632039 0.5234148420998557 0.1225189452752991	0.095233
C	0.2010648813540694 0.5248111872982557 0.1321763349062884	-0.170238
C	0.7029881507013562 0.4774390769786250 0.1226152212860199	0.092458
C	0.8023873878849294 0.4761909057615358 0.1320846166967636	-0.171083
C	0.4765156502645358 0.7076124008010518 0.8649591049469145	0.093807
C	0.4756527553595148 0.8070828176723868 0.8645372209046608	-0.172600
C	0.5251124940885282 0.2955772747256094 0.8641604121009933	0.098129
C	0.5258393232517538 0.1961113179295403 0.8636982576019204	-0.172025
C	0.7055720760594461 0.5229383086563384 0.8627793569393862	0.095467
C	0.8049881261778565 0.5240191546725260 0.8623094899900150	-0.170587
C	0.2934499829755537 0.4744625912831227 0.8668738385373246	0.095653
C	0.1940035121759224 0.4738448344114198 0.8665390834568296	-0.171481
C	0.5001260098111516 0.1453458211021462 -0.0009078125122243	0.169596
C	0.4999791507346809 0.0439472471691023 0.0031472109294198	-0.095942
C	0.4997844333850206 0.8552873292942084 0.0015663392245655	0.168482
C	0.5000567221567624 0.9565976884549332 0.0042840757400328	-0.095939
C	0.8556956471845261 0.5000459407924157 0.9995982759460503	0.168836
C	0.9570152006360423 0.4999904956376561 0.0035333229690412	-0.095495
C	0.1456452538833424 0.4997573692146687 0.0016757033951789	0.169825
C	0.0443356977554968 0.5001063708472154 0.0046244784364703	-0.097333
H	0.5372240134213875 0.6530041139991917 0.2244219472172502	0.111942
H	0.5421993745523053 0.8337099323692184 0.2427505635150143	0.125172
H	0.4595299767676744 0.3432520061644283 0.2181191135788910	0.112312
H	0.4545925988337460 0.1621115975897238 0.2367051800633564	0.124384
H	0.3474175681027485 0.5399971574434879 0.2206571959026043	0.112752
H	0.1667129154518660 0.5450044288483257 0.2392094822805519	0.124821
H	0.6576743023276308 0.4616606928066416 0.2221547109944984	0.113295
H	0.8386573247057052 0.4570173382586645 0.2406924395379156	0.124805
H	0.4592694501121697 0.6679918978928796 0.7604772252956193	0.100760
H	0.4564956247692064 0.8470909711585489 0.7591856861198993	0.124379
H	0.5441633279872921 0.3374686000017534 0.7613617395718525	0.099409
H	0.5461744942204620 0.1580829787519272 0.7601444429604446	0.124752
H	0.6639494189929797 0.5393130805909697 0.7578891455444539	0.100783
H	0.8429478539587387 0.5430928398656150 0.7569216294844529	0.124031
H	0.3333793177689037 0.4549616008288694 0.7643671952766457	0.100107
H	0.1541156026954122 0.4534115463534586 0.7630938400104637	0.123969
Zn	0.5006404370901293 0.5002674108521065 0.0075439082565380	0.687551
B	0.4968803497691838 0.5008645185859196 0.5761720016506650	1.055122
F	0.4968917120513996 0.5048185806545240 0.7477912438622161	-0.454864
F	0.5023972299512550 0.4970352991911451 0.2296698643959577	-0.573190
F	0.4732488398070930 0.5935250161698552 0.5229049143492785	-0.458640
F	0.4275237763879937 0.4326067664339142 0.5358276248957903	-0.462024
F	0.5900005495528230 0.4731130641295975 0.5367527908584102	-0.460794
N	0.5007251999545330 0.3455463903432976 0.9894247899486657	-0.216391
N	0.4994986934137654 0.6552444099091685 -0.0077061032786001	-0.215641
N	0.6554855228601388 0.5001312746338799 0.9901618067829355	-0.216524
N	0.3455783301816140 0.4991862153497998 -0.0079814798760141	-0.216963
	  	
