#======================================================================

# CRYSTAL DATA

#----------------------------------------------------------------------

data_VESTA_phase_1


_pd_phase_name                         BFFIVE_14_Ni_i
_cell_length_a                         13.22415
_cell_length_b                         13.21807
_cell_length_c                         8.52296
_cell_angle_alpha                      89.71979
_cell_angle_beta                       89.64470
_cell_angle_gamma                      88.83470
_symmetry_space_group_name_H-M         P 1
_symmetry_Int_Tables_number            1

loop_
_symmetry_equiv_pos_as_xyz
   x, y, z

loop_
   _atom_site_label
   _atom_site_fract_x
   _atom_site_fract_y
   _atom_site_fract_z
   _atom_site_charge
C	0.5696590749299866 0.2635190264597024 0.3595078940776336	-0.185152
C	0.4645896282451650 0.2666794814949566 0.3572875067761180	0.104093
C	0.9452594147288663 0.2836089098812087 0.4127121285620807	-0.174822
C	0.0497653575568960 0.2758198026725788 0.3939869173135425	0.105712
C	0.2616183252360638 0.5694791958869736 0.3612195716900347	-0.185498
C	0.2647108174588425 0.4643143097538392 0.3591446506284713	0.103373
C	0.2911647476735715 0.9448888806999032 0.4090391690173921	-0.176215
C	0.2822531247512481 0.0494191113121876 0.3913860393666542	0.106955
C	0.9286130212748976 0.2390522382365325 0.1393595276229591	-0.188105
C	0.0333735442410966 0.2348756477565059 0.1302456454000007	0.100647
C	0.5653465947437999 0.2101293253794617 0.0889021061557810	-0.174321
C	0.4605109310860691 0.2179045119875764 0.0957101672394971	0.100546
C	0.2113591991398726 0.5649700655042774 0.0892881600290004	-0.175447
C	0.2192690663169967 0.4601464307807515 0.0962231172907970	0.099730
C	0.2359440804358794 0.9283596811434566 0.1405567300018993	-0.187069
C	0.2312405732640090 0.0331872406945465 0.1320592307293751	0.102511
C	0.4285275416319309 0.7392189843968685 0.6417193258625414	-0.186266
C	0.5331813575761071 0.7363151991627053 0.6316903321237244	0.100917
C	0.0648492716454650 0.7307137811113579 0.5807319076293946	-0.172450
C	0.9599403059697732 0.7343541029700400 0.5893429312018509	0.100618
C	0.7399111162728307 0.4282943286439044 0.6407081491320552	-0.185842
C	0.7371799860227304 0.5330250955639573 0.6308910679447771	0.102140
C	0.7183339776013302 0.0646276682052551 0.5844691919761609	-0.171555
C	0.7240743208094991 0.9596942495429623 0.5922126226702453	0.100441
C	0.0690622390736484 0.7593121298285554 0.8604049172924757	-0.183432
C	0.9639971988934006 0.7602268140779811 0.8589593354705237	0.102832
C	0.4457218099131101 0.7741691472614082 0.9183214242262100	-0.170917
C	0.5503091529091128 0.7692198328618843 0.8980591813547462	0.106322
C	0.7750213999875435 0.4453987902583029 0.9172622106368177	-0.172761
C	0.7697697280525896 0.5499947894978271 0.8973189847568648	0.105647
C	0.7625618348836496 0.0690167671191564 0.8590217175426512	-0.181582
C	0.7647018733037944 0.9639142991940697 0.8571943541095732	0.101867
C	0.6212132344781298 0.2352974295698567 0.2214533249598130	0.188854
C	0.8835683260693894 0.2635999891879932 0.2841598401913235	0.189932
C	0.2350633795688364 0.6209141599050485 0.2225326427658341	0.189548
C	0.2662590080704354 0.8832556819506540 0.2825044187273889	0.188567
C	0.3837164987765693 0.7587702828215301 0.7885771743586537	0.188674
C	0.1206965350293019 0.7441324437108289 0.7175675796041436	0.189017
C	0.7593386487759334 0.3834391635398925 0.7873746999936468	0.188074
C	0.7390648454016353 0.1205570705200525 0.7189448519864345	0.188004
H	0.6107508745081719 0.2792996241386129 0.4666388854409786	0.109066
H	0.4184226365107679 0.2839813837047325 0.4608674556714852	0.111895
H	0.9116705012785016 0.3039550024692916 0.5254539597017513	0.125233
H	0.1031206914128673 0.2875115002516537 0.4894143830089093	0.115832
H	0.2760994113481419 0.6108872671656311 0.4686411003887664	0.111024
H	0.2807463666255589 0.4181899133951872 0.4631664789506873	0.112316
H	0.3160333290562197 0.9112114699431567 0.5194403983754537	0.125892
H	0.2970978530864477 0.1027115872043529 0.4858679261429129	0.115116
H	0.8823422544839177 0.2269345337927557 0.0361125687396134	0.101953
H	0.0720069063031815 0.2172228098969583 0.0200826779216980	0.097159
H	0.6039129804808233 0.1857843092936092 0.9821297914658992	0.121671
H	0.4146772178788436 0.2014200279367263 0.9935935916621732	0.100250
H	0.1883542344884623 0.6034403307618909 0.9818328540228938	0.121277
H	0.2042355005191285 0.4142346398849500 0.9935160952220804	0.099665
H	0.2200381829834147 0.8820285452771937 0.0386836006265084	0.103371
H	0.2094577576964061 0.0718960566560800 0.0238263989538361	0.096604
H	0.3824467846629889 0.7290212049942401 0.5376806041337735	0.097287
H	0.5716302826610393 0.7217067461582511 0.5203483425899097	0.098087
H	0.1034972697807074 0.7179823030340931 0.4694166708970410	0.121477
H	0.9142027544154693 0.7248528237316745 0.4848367725005119	0.099562
H	0.7301256908636871 0.3820323514607563 0.5366250355080191	0.098509
H	0.7229427264418559 0.5715261371371791 0.5195712965052697	0.097691
H	0.6985134055967034 0.1032350052511920 0.4756779521771398	0.121445
H	0.7100815083294157 0.9138217429609733 0.4890802277667396	0.098721
H	0.1099082890228818 0.7677636016949435 0.9700073525169816	0.105435
H	0.9177397606513649 0.7689791768553569 0.9649819119771027	0.114833
H	0.4124057223048329 0.7894606850338046 0.0331294461955993	0.125454
H	0.6038525946266576 0.7789839682079396 -0.0061915614770927	0.115880
H	0.7905079064954414 0.4120415172321713 0.0318780805804905	0.125608
H	0.7793364519027883 0.6034945592245572 -0.0067142290757506	0.115043
H	0.7760040370393537 0.1100368342162227 0.9671929488924276	0.106220
H	0.7790654569586809 0.9177285447594917 0.9617472882196635	0.114062
N	0.7775681923297942 0.2732839205731664 0.3061689592945096	-0.103801
N	0.2771149528810713 0.7771350326438167 0.3029694761623354	-0.105577
N	0.7273891652809970 0.2258941247089269 0.2054157045575608	-0.107956
N	0.2253195519527683 0.7270972176881652 0.2075513319658349	-0.106287
N	0.2267005457454998 0.7374123959777100 0.6983027758516769	-0.106140
N	0.7308125210672001 0.2266830523055511 0.7010615898732461	-0.106918
N	0.2777817430452464 0.7665227324518776 0.8139511878740779	-0.104547
N	0.7676359803717748 0.2774752542888985 0.8114657631087731	-0.102803
N	0.4108713481005687 0.2459052429865716 0.2273660281780061	-0.220515
N	0.0929310966067318 0.2525383800044969 0.2546384194439073	-0.220230
N	0.2456256073263662 0.4105297966956375 0.2285645639677338	-0.221747
N	0.2535938053448017 0.0926470272193151 0.2546351340104995	-0.221460
N	0.5930740402279023 0.7514093115006235 0.7566618924631843	-0.221004
N	0.9102530365862871 0.7486869905743739 0.7258915390056703	-0.221808
N	0.7520720580746059 0.5928834425370090 0.7560443342638655	-0.221536
N	0.7468219801913638 0.9101117990930172 0.7260080985903559	-0.219513
F	0.3401301973812595 0.2094148115112622 0.7721044767468758	-0.443298
F	0.2182673982392394 0.3404142657753505 0.7715799893687844	-0.442668
F	0.1686883781609217 0.1722551577430319 0.7794911778787091	-0.456240
F	0.7129070190502163 0.8396902296749696 0.2706107662448159	-0.441970
F	0.8390011230745187 0.7128808819012235 0.2700790006402433	-0.440162
F	0.6688995432920386 0.6699067645388772 0.2754836014857439	-0.454524
F	0.2609639833459980 0.2601891520417157 0.4674705391218295	-0.574813
F	0.2445607109772970 0.2434993551018700 0.9948039750280432	-0.451240
F	0.7420035820838655 0.7421955722179341 0.4924702268295560	-0.451020
F	0.7609955153041289 0.7608736549850007 -0.0326120563680912	-0.573060
B	0.2431617184900860 0.2416166704494359 0.8189981340459134	1.051528
B	0.7408985327571155 0.7413910927894102 0.3168265230597362	1.050637
Ni	0.2516441390322668 0.2513153649085912 0.2452438700734274	0.715624
Ni	0.7514845024633369 0.7513988918399598 0.7445958496106225	0.715822
	  	
