#======================================================================

# CRYSTAL DATA

#----------------------------------------------------------------------

data_VESTA_phase_1


_pd_phase_name                         BFFIVE_13_Zn_i
_cell_length_a                         15.40242
_cell_length_b                         15.40108
_cell_length_c                         8.29644
_cell_angle_alpha                      90.81047
_cell_angle_beta                       89.11848
_cell_angle_gamma                      89.89182
_symmetry_space_group_name_H-M         P 1
_symmetry_Int_Tables_number            1

loop_
_symmetry_equiv_pos_as_xyz
   x, y, z

loop_
   _atom_site_label
   _atom_site_fract_x
   _atom_site_fract_y
   _atom_site_fract_z
   _atom_site_charge
C	0.5390986962996276 0.6877484310351484 0.8666002075882252	0.105625
C	0.5433971573003803 0.7780392869447262 0.8701306672245270	-0.159016
C	0.4654066444100797 0.3150361765288336 0.8802310765220919	0.101540
C	0.4614131065457982 0.2248134675769292 0.8825968948772205	-0.148082
C	0.8187075337333234 0.9773740229972193 0.3721549217609297	0.105902
C	0.7285444369991418 0.9735250198647825 0.3655932124101358	-0.141684
C	0.3152185614097194 0.5395122389648936 0.8639204345035121	0.103746
C	0.2249241781774175 0.5447852648724033 0.8669768745024086	-0.158846
C	0.1855585749569652 0.9757377564994580 0.3694342597903474	0.096501
C	0.2758677436901824 0.9736756633475873 0.3621321056166432	-0.143386
C	0.6872502263155504 0.4643783470699936 0.8830988775332785	0.101912
C	0.7774351412693767 0.4608468665645706 0.8840213689673925	-0.147418
C	0.4576599964401504 0.6860547713449210 0.1046781709207365	0.104606
C	0.4544096127698214 0.7763323676451906 0.1121830677178462	-0.144135
C	0.5380336249546588 0.3203660957746960 0.1237094100120936	0.104801
C	0.5411936599410426 0.2300743529582135 0.1307926036487501	-0.156796
C	0.1855804580415844 0.0170214289992861 0.6402447298588562	0.104113
C	0.2757161153615367 0.0195143706304982 0.6422648276537298	-0.144449
C	0.6821255777289509 0.5416800851558252 0.1256600893596880	0.107186
C	0.7724707646159170 0.5454595076575154 0.1311385919254539	-0.156698
C	0.8134316490958931 0.0267392813982876 0.6384908228574829	0.100140
C	0.7232487230112038 0.0272877768446878 0.6411927470288731	-0.145675
C	0.3157425876562895 0.4611506125813156 0.1012821917280110	0.107258
C	0.2254474456685267 0.4587642240505990 0.1081766796070232	-0.147262
C	0.9686760760098383 0.8121022402532788 0.6374021860737807	0.105901
C	0.9674885886772827 0.7218228538750314 0.6381269592233356	-0.145332
C	0.9852392549349758 0.1852584552589821 0.6411994659208065	0.094142
C	0.9826498562458349 0.2754050520510260 0.6419359491719502	-0.144844
C	0.0177508431729133 0.8136638135583141 0.3708773538993688	0.098152
C	0.0210869308167881 0.7234649449669335 0.3624939693842070	-0.143488
C	0.0251025336325765 0.1796351332512704 0.3693532123120419	0.105143
C	0.0269812689082352 0.2698340628806783 0.3608314424198912	-0.141844
C	0.0043268819686752 0.3185309198919270 0.4993338072139085	0.039633
C	0.0018186843560283 0.4135813266554762 0.4966822508771808	0.254566
C	0.4990767552860477 0.8231055622799701 0.9937451523281220	0.054870
C	0.4998761332034490 0.9188122627210313 0.0006821507443966	0.251055
C	0.9953802545471301 0.6766183854042389 0.4987812178814940	0.035605
C	0.9972572708722628 0.5814205439256984 0.4965016874069325	0.249606
C	0.5013696167258140 0.1815397479692790 0.0087931241798819	0.055048
C	0.5010039575177880 0.0857001706661260 0.0103150095770117	0.252764
C	0.6799346795179061 0.9992899660126607 0.5024561388223370	0.037940
C	0.5847514716371748 0.9975173068534705 0.5017786791281845	0.246097
C	0.1792858415675007 0.5022446080223217 0.9896166753304848	0.053931
C	0.0835409189459488 0.5030165306912027 0.9949526132888742	0.252727
C	0.3217864068734478 0.9964456438643120 0.5010719809252602	0.038797
C	0.4168840740800021 0.9964279041131859 0.5007437160425421	0.256453
C	0.8208713239336656 0.5035697757900388 0.0088339552813831	0.054025
C	0.9166937197882272 0.5037527823683928 0.0070330669456536	0.252816
H	0.5684799944958767 0.6493653504700025 0.7687370419960988	0.102663
H	0.5794910650096565 0.8125268144565440 0.7769732722060813	0.120222
H	0.4393271884200051 0.3520814357329384 0.7806505207572887	0.103863
H	0.4302807204956706 0.1883799020815868 0.7860760806304267	0.115679
H	0.8609830948972993 0.9610663950124533 0.2688844911787227	0.116660
H	0.6965828928536801 0.9517169482587555 0.2560281588662761	0.120503
H	0.3540589601774521 0.5680387971520058 0.7671837106861370	0.102683
H	0.1908395247738743 0.5801702419885547 0.7742593497057734	0.121611
H	0.1453672413872159 0.9629207148631613 0.2642397006379094	0.113193
H	0.3096099530910426 0.9561239188029338 0.2499328251719701	0.115962
H	0.6500600091002808 0.4366949098825521 0.7841711109035628	0.103724
H	0.8137803904345716 0.4282543825336966 0.7870279408364934	0.115033
H	0.4302317001934972 0.6449068546500393 0.1988870479281579	0.114209
H	0.4208933948181195 0.8101614538103020 0.2111964561939199	0.114660
H	0.5630572277871436 0.3621634228906997 0.2197473247495461	0.111988
H	0.5726347442335104 0.1982902838809854 0.2309918429745051	0.121525
H	0.1470358791605480 0.0310333339813993 0.7486542605589293	0.104083
H	0.3094781759890465 0.0375299069186012 0.7521376121000009	0.116287
H	0.6402553416875411 0.5681291166923025 0.2219307794269355	0.113080
H	0.8043531791126250 0.5791243610590476 0.2303545810624756	0.121778
H	0.8501887622148747 0.0452593704959115 0.7446869343564138	0.099054
H	0.6874505586977865 0.0478498478199267 0.7493731223359162	0.116847
H	0.3560367795858268 0.4344782602973311 0.1959697404189279	0.111778
H	0.1911658751576970 0.4265757783775703 0.2063402376174238	0.115912
H	0.9496909468071184 0.8501614639400591 0.7441600978473547	0.103718
H	0.9465112786139580 0.6873137358176070 0.7455726062816078	0.115755
H	0.9716475758176455 0.1489045187446393 0.7505809790356507	0.099968
H	0.9650329781984310 0.3112789148374790 0.7516963330170248	0.115918
H	0.0331052327928302 0.8547166069029818 0.2679385139054476	0.112783
H	0.0424288359346667 0.6903958477555726 0.2519190368437713	0.117614
H	0.0378319862288445 0.1372639387404945 0.2647298959807869	0.116531
H	0.0437917515095810 0.3016895615011637 0.2481217850849458	0.119734
N	0.9492601412275359 0.5398890495518560 0.6097358110221516	-0.136701
N	0.4228931408512283 0.0459015766453371 0.0097767856602037	-0.150209
N	0.5419867197666883 0.0452915027255679 0.6161878899833969	-0.136042
N	0.9570569905721505 0.4257395414547155 0.0027799369291844	-0.150201
N	0.0460390675776270 0.5405013077794755 0.3814181872752385	-0.138069
N	0.5784715086531110 0.0445521277679786 0.0112154376797001	-0.151300
N	0.9572901121988782 0.5813693893502720 0.0045303367540131	-0.149583
N	0.5451732759330147 0.9481834255764822 0.3885246035745768	-0.135439
N	0.0489562017408082 0.4549660174828894 0.3825300567584606	-0.134215
N	0.5779458083609612 0.9586715559762167 0.0018336697175241	-0.149289
N	0.4596056447495981 0.9474062076482019 0.3884943509254683	-0.134015
N	0.0431440893500800 0.5809273952606758 0.9942688496772812	-0.149344
N	0.9510297921310706 0.4545218885872430 0.6088412081877472	-0.133153
N	0.4223598628663631 0.9600007278439784 0.0086687150586076	-0.146264
N	0.0429447382077525 0.4253677952065563 0.0000631015590453	-0.148840
N	0.4566192144478077 0.0450148212015078 0.6151255318677971	-0.136089
N	0.0051779056387002 0.1386381185630867 0.5073939079885925	-0.206941
N	0.4979013698394955 0.6430836585992142 0.9823980887493672	-0.213608
N	0.9935604587224294 0.8568431538618047 0.5066086345168936	-0.207945
N	0.5023371681609561 0.3615150502212518 0.9990034886951199	-0.212709
N	0.8599100528335970 0.0025609198636147 0.5069733364098091	-0.204667
N	0.3593074841651573 0.4991739747423083 0.9795021018395069	-0.214456
N	0.1416214998110826 0.9957850157775497 0.5066911072293980	-0.205549
N	0.6408478420197691 0.5033846644787685 0.0020135581942891	-0.212737
Zn	0.0004752177401577 0.9982590294868546 0.4915427432411106	0.681808
Zn	0.4998970219372655 0.5029003196723772 0.0064165663687875	0.686260
B	0.9976329507869836 0.9955028004567089 0.9321392301575260	1.060447
B	0.5016059351383872 0.4987568156995106 0.5669056144903120	1.067480
F	0.0051005084294220 0.9928304476358976 0.2621786881547202	-0.571027
F	0.5113110685517139 0.4935075248346923 0.7453164245633510	-0.459823
F	0.9973091925996244 0.9981086928564619 0.7527571048640406	-0.455002
F	0.4869595201570768 0.5113250138594839 0.2337495627418181	-0.576205
F	0.9349789562399033 0.9335830331785377 0.9743591221528013	-0.452944
F	0.4398045770182158 0.4356049238830596 0.5271301145080984	-0.466054
F	0.9749696062108525 0.0801951868155307 0.9820177821877966	-0.453036
F	0.4734782439223853 0.5837915029850373 0.5391132755724339	-0.464141
F	0.0822270891464635 0.9717036163752379 0.9719698864124593	-0.450537
F	0.5847411540051700 0.4805483421123995 0.5035452690406115	-0.468526
	  	
