#======================================================================

# CRYSTAL DATA

#----------------------------------------------------------------------

data_VESTA_phase_1


_pd_phase_name                         BFFIVE_4_Zn_i
_cell_length_a                         23.84858
_cell_length_b                         20.77278
_cell_length_c                         11.16393
_cell_angle_alpha                      90.00025
_cell_angle_beta                       89.99599
_cell_angle_gamma                      90.00053
_symmetry_space_group_name_H-M         P 1
_symmetry_Int_Tables_number            1

loop_
_symmetry_equiv_pos_as_xyz
   x, y, z

loop_
   _atom_site_label
   _atom_site_fract_x
   _atom_site_fract_y
   _atom_site_fract_z
   _atom_site_charge
C	0.4138138339180318 0.5929328277737014 0.6466465404938491	0.098079
C	0.3706129888483586 0.5480812723298529 0.6435655671668414	-0.177506
C	0.2775708591732632 0.4520646703568364 0.6433909169053871	-0.116205
C	0.2326704030407558 0.4095221422438365 0.6429778330646592	-0.115289
C	0.1345881065117382 0.3218191732598934 0.6429071689965782	-0.182026
C	0.0885803832713417 0.2807757912229012 0.6464871442756912	0.092791
C	0.9138747330766352 0.0929447431846651 0.6467246356898428	0.097628
C	0.8706792785742420 0.0480835057649436 0.6435816717335964	-0.176598
C	0.7776038900781471 0.9520623420717806 0.6433465052154328	-0.115790
C	0.7326946593704526 0.9095265172458070 0.6429033606408306	-0.115273
C	0.6345722697041685 0.8218355561344153 0.6427668508683834	-0.181762
C	0.5885612694677681 0.7807961301050202 0.6463099175194662	0.092939
C	0.5861372240070878 0.4070447865513034 0.1470871469862004	0.097685
C	0.6293583475060172 0.4518888257746634 0.1437832705964205	-0.178457
C	0.7225181954939258 0.5478998348202904 0.1433730930299203	-0.115656
C	0.7674541713902664 0.5903967034397751 0.1429060939075875	-0.115313
C	0.8655608839678389 0.6780878521821735 0.1428335821399286	-0.182895
C	0.9115482128485867 0.7191639703184675 0.1464366053455784	0.093272
C	0.0861583039898492 0.9071056487165182 0.1467045358895515	0.097873
C	0.1293870303183497 0.9519347374073894 0.1435602487578842	-0.178493
C	0.2225395875579703 0.0479189696393245 0.1433618001335900	-0.116002
C	0.2674822976640395 0.0904084437930258 0.1430109789852817	-0.114903
C	0.3656050198901065 0.1780945034042904 0.1431773010013843	-0.182593
C	0.4115973907591487 0.2191632663013270 0.1469083409912424	0.092341
C	0.5861668730912253 0.5929378649735684 0.8532396752004759	0.097640
C	0.6293778076309610 0.5480830862700490 0.8564286191841310	-0.178360
C	0.7224682281390279 0.4520285891473062 0.8567112012206702	-0.116680
C	0.7674076026552173 0.4095296874883467 0.8571324849696418	-0.114861
C	0.8656268432408289 0.3219860785995926 0.8571522825593013	-0.183041
C	0.9116452618606626 0.2809587671293309 0.8535316202641408	0.093592
C	0.0861697605473123 0.0929398562830006 0.8533000571368060	0.098080
C	0.1293868161883641 0.0480974096957351 0.8564398349734141	-0.178058
C	0.2224673642217745 0.9520380182650701 0.8566565869718101	-0.116575
C	0.2674067701107844 0.9095364279250131 0.8570520710999651	-0.114996
C	0.3656256830081415 0.8219633205728958 0.8570152845947816	-0.182635
C	0.4116499783020605 0.7809449077248160 0.8533553264255499	0.092725
C	0.4138785479446609 0.4072876877734737 0.3536241794679220	0.097350
C	0.3706488539148044 0.4520912514618994 0.3566057946498595	-0.177840
C	0.2775310846224322 0.5479459137409057 0.3566539078067297	-0.115869
C	0.2326003347598894 0.5904435429046745 0.3570538556726873	-0.115770
C	0.1345654261147988 0.6781967187388113 0.3570854466990053	-0.181828
C	0.0885820430637957 0.7192790557624621 0.3535042486061583	0.092782
C	0.9139314648294538 0.9072464037647691 0.3532596099902783	0.097803
C	0.8707081444412199 0.9520632404912424 0.3563929130410905	-0.177336
C	0.7775671163887595 0.0479426503114318 0.3566478980838029	-0.115547
C	0.7326366284733773 0.0904382806169454 0.3571483459997835	-0.115989
C	0.6346119145937891 0.1781889657275838 0.3574268689329789	-0.181857
C	0.5886177532697890 0.2192556962417343 0.3539586232369504	0.091622
C	0.5862216636135511 0.4071260964733309 0.3536125628695073	0.098171
C	0.6294476521176433 0.4519603161569375 0.3566020779344745	-0.178813
C	0.7225349030862207 0.5479176992614941 0.3566623638093274	-0.116144
C	0.7674697754614624 0.5904103974422381 0.3570692505876550	-0.114966
C	0.8655508610305828 0.6780831617628116 0.3571036679768569	-0.182992
C	0.9115351146089211 0.7191558210017202 0.3535211149904953	0.093039
C	0.0861519016082058 0.9071037447246559 0.3532302790495741	0.097463
C	0.1293802719632895 0.9519335910059077 0.3563675468114281	-0.178325
C	0.2224851864647808 0.0478908424835787 0.3566617736312806	-0.115348
C	0.2674267862886147 0.0903738063280604 0.3571748533493453	-0.115832
C	0.3655012140206746 0.1780323629170764 0.3574686142498784	-0.182463
C	0.4114935721495764 0.2190928727395765 0.3540076585854078	0.091964
C	0.4138657210603323 0.5929239735209557 0.8532042854279873	0.097685
C	0.3706739283771303 0.5480559581159270 0.8563962097897951	-0.176650
C	0.2775897848149573 0.4520358393746086 0.8566978983066600	-0.116008
C	0.2326877125979782 0.4094953813967948 0.8571248197248862	-0.115195
C	0.1345795256624264 0.3218018206689434 0.8571565988090130	-0.181548
C	0.0885724626848767 0.2807541970362095 0.8535454370155658	0.092668
C	0.9138689224543113 0.0929472299095569 0.8532784005071569	0.097708
C	0.8706686216137656 0.0480923347474909 0.8564183802364124	-0.176754
C	0.7775816872016189 0.9520521966176486 0.8566421263593886	-0.115962
C	0.7326711496863998 0.9095160861814016 0.8570402842320795	-0.115236
C	0.6345381278936825 0.8218132489872677 0.8570140390365164	-0.182258
C	0.5885239921459601 0.7807698004378051 0.8533755901167802	0.093140
C	0.4139713581938655 0.4071863637804820 0.1470567876786390	0.097228
C	0.3707476237253777 0.4520119964192292 0.1437609759056584	-0.176902
C	0.2775541948758508 0.5479230643257244 0.1433579108350420	-0.115688
C	0.2326200067792968 0.5904233338648958 0.1428996065536142	-0.116229
C	0.1345602600045867 0.6781984576812382 0.1428302408956222	-0.181333
C	0.0885786514442210 0.7192847341997959 0.1464443969368877	0.092385
C	0.9139363554580545 0.9072403969161922 0.1466879602036381	0.097332
C	0.8707111210802444 0.9520595251717715 0.1435452381530532	-0.176986
C	0.7775324998163043 0.0479637429090417 0.1433519269787670	-0.116252
C	0.7325962367912254 0.0904678533763806 0.1429966449782969	-0.115104
C	0.6345079957549742 0.1782352675020470 0.1431546056709025	-0.182905
C	0.5885184483418370 0.2193080011084931 0.1468974124738312	0.092516
C	0.5862202284288189 0.5929409408362503 0.6466848846271550	0.098085
C	0.6294368427141083 0.5481007285477020 0.6435934685584057	-0.178156
C	0.7224934012774806 0.4520641602626936 0.6434126766834288	-0.116180
C	0.7674301712372464 0.4095665201231082 0.6429751650327666	-0.114563
C	0.8656150254652589 0.3219966233395595 0.6428888092100559	-0.183443
C	0.9116357019197643 0.2809704832213826 0.6464539493438461	0.093963
C	0.0861698565712826 0.0929319666701682 0.6467461387559931	0.097771
C	0.1293820263317237 0.0480867229235090 0.6435950862931430	-0.177943
C	0.2224497705832668 0.9520432678093593 0.6433594957430596	-0.115907
C	0.2673869822906099 0.9095450441763748 0.6428975301618580	-0.115337
C	0.3655977153535827 0.8219965789227067 0.6427527933840387	-0.183500
C	0.4116240102756957 0.7809811715605433 0.6462731294513457	0.093936
C	0.3474112854371033 0.5235468373826644 0.7500036821813489	0.104044
C	0.3011049110833932 0.4758601827596412 0.7500386592068926	0.066865
C	0.2081934882734659 0.3875085998731305 0.7500493765591980	0.062319
C	0.1592372624222249 0.3436670466121013 0.7500413605894806	0.100864
C	0.8474382860379488 0.0235593356051377 0.7499997022653498	0.104092
C	0.8011223492349182 0.9758701982851213 0.7500059686952557	0.066452
C	0.7081813086781381 0.8875240200406895 0.7499594210226805	0.062423
C	0.6592144421828651 0.8436847836233535 0.7499178900649924	0.100758
C	0.6526606131910849 0.4764462748001580 0.2501206131366726	0.104554
C	0.6989874868344046 0.5241049144855658 0.2500361703295808	0.067379
C	0.7919563503307100 0.6123823662140726 0.2499693698156308	0.063533
C	0.8409032064681329 0.6562443142023312 0.2499613515317404	0.100826
C	0.1526465114723891 0.9764513617058442 0.2499665620221330	0.104208
C	0.1989728875084328 0.0241062398422036 0.2499799095364865	0.067273
C	0.2919484063180935 0.1123677934792732 0.2501293377005373	0.063847
C	0.3408999589441233 0.1562269305336551 0.2502449194980564	0.100285
C	0.6526571847148043 0.5235674455636208 0.7500295068565971	0.103658
C	0.6989557920616354 0.4758697409104852 0.7500619566508432	0.067255
C	0.7919341208880489 0.3875909929486661 0.7500485435078805	0.062677
C	0.8409444031529815 0.3438161211983137 0.7500329382549045	0.101560
C	0.1526354852163499 0.0235681176928433 0.7500216482864924	0.103510
C	0.1989332519861494 0.9758670447494343 0.7500229951894493	0.067012
C	0.2919166590341190 0.8875830601972983 0.7499582402559898	0.063197
C	0.3409299405033489 0.8437991189926243 0.7499113376721952	0.100923
C	0.3474383419708907 0.4765406331814099 0.2501033812842052	0.104669
C	0.3010861948930011 0.5241552671253688 0.2500219188061638	0.067687
C	0.2081268145901413 0.6124372250494888 0.2499643914305209	0.063542
C	0.1592002745473987 0.6563204739621706 0.2499535523622079	0.100103
C	0.8474456022161578 0.9765548243600921 0.2499647189631683	0.104455
C	0.8010928438765234 0.0241721460132629 0.2499729888038744	0.067781
C	0.7081278937042841 0.1124588263354749 0.2501071571481269	0.062664
C	0.6591992971036681 0.1563372525131690 0.2502148520316037	0.100886
H	0.4329515426658095 0.6131610379597452 0.5659623753588255	0.098997
H	0.3556558456622216 0.5330634488616793 0.5562459549027050	0.092255
H	0.2943071649678777 0.4664656000352038 0.5571341100477545	0.083239
H	0.2166455058799867 0.3935263974634666 0.5566190463520468	0.103047
H	0.1507362856974827 0.3361196580089215 0.5556517420894542	0.109381
H	0.0681171478882198 0.2618712850552167 0.5661651877279962	0.098487
H	0.9330539475561318 0.1131869646609278 0.5660953580540902	0.099358
H	0.8557665377867451 0.0330689406622590 0.5562205252609052	0.091702
H	0.7943686666928151 0.9664480554400213 0.5571037898700851	0.083003
H	0.7166994992940285 0.8935322971694013 0.5565171135238463	0.103008
H	0.6507265163936008 0.8361398284697840 0.5555244690927994	0.109147
H	0.5680872819955592 0.7619050603185921 0.5659841438326629	0.098294
H	0.5669013753218449 0.3867697079408118 0.0665445214354903	0.099905
H	0.6442991582826126 0.4668552040742663 0.0564025085262581	0.092199
H	0.7057078508107832 0.5335009459757012 0.0571645039119854	0.082960
H	0.7834524495404047 0.6063969144172990 0.0565197833380253	0.103139
H	0.8494551958797617 0.6637724030133426 0.0555671863022347	0.110217
H	0.9319968540074116 0.7380547477311118 0.0660980368257765	0.098378
H	0.0669477813944903 0.8868868632516742 0.0660832522597400	0.099696
H	0.1443551661750044 0.9669309435581206 0.0562218056910478	0.092214
H	0.2057613475640649 0.0335411268196472 0.0571071084292340	0.083115
H	0.2835099698204148 0.1064231253123577 0.0566592213340654	0.103051
H	0.3495344766991101 0.1638036132844788 0.0558639435025536	0.110304
H	0.4321024800015913 0.2380801451189573 0.0666533172592090	0.098425
H	0.5669770741046826 0.6131962533336862 0.9338462980228006	0.099755
H	0.6442956876405154 0.5330374665710337 0.9437787801784522	0.092301
H	0.7056718630791263 0.4663936131046883 0.9429612418180980	0.083059
H	0.7833986929110109 0.3935014590101042 0.9435087164120363	0.103333
H	0.8494936179538892 0.3362585093532592 0.9444266745209139	0.109983
H	0.9321365098248913 0.2620843515627556 0.9338336694693954	0.098076
H	0.0669816509210290 0.1131920530381750 0.9339186331004917	0.099552
H	0.1443261747291807 0.0330804253924270 0.9437942621764270	0.092118
H	0.2056924748466800 0.9664092745581716 0.9429242623121127	0.083226
H	0.2834105853061198 0.8935202962430924 0.9434230047574685	0.103260
H	0.3494971869781827 0.8362229900516442 0.9442951369698545	0.110170
H	0.4321652655586525 0.7620764563699075 0.9336381944425695	0.098451
H	0.4330527416737038 0.3871165297292197 0.4343140637208293	0.099562
H	0.3556716598687187 0.4671085704513492 0.4439080602616843	0.092498
H	0.2942997114812198 0.5335464638006183 0.4428936872501684	0.083122
H	0.2165776861474450 0.6064382169846403 0.4434275626970277	0.103071
H	0.1507018402644094 0.6638723573131214 0.4443353341747047	0.109623
H	0.0681771818960425 0.7381863491470636 0.4338875057602444	0.098329
H	0.9331442851909274 0.8870193628801615 0.4338598334641734	0.099559
H	0.8557640774420752 0.9670452442935189 0.4437442626422538	0.092078
H	0.7943703647819217 0.0335183367924527 0.4428442304391976	0.083007
H	0.7166498791711586 0.1064070784148329 0.4435728822348278	0.103177
H	0.6507798223762855 0.1638627253075418 0.4446458779613948	0.109412
H	0.5682340520328659 0.2381429327475940 0.4343722232858794	0.098076
H	0.5670639804602110 0.3869360317567802 0.4343134535637701	0.099377
H	0.6444462806963668 0.4669750609700025 0.4438976006828140	0.092418
H	0.7057472638357956 0.5335312417514990 0.4428997836721716	0.083133
H	0.7834800876104456 0.6064179136706402 0.4434301092688645	0.103190
H	0.8494323782222379 0.6637583435042217 0.4443612707187861	0.110270
H	0.9319717629079834 0.7380380572789342 0.4338785874188709	0.098447
H	0.0669380663714027 0.8868847174164457 0.4338501173111531	0.099821
H	0.1443378927865213 0.9669269002967015 0.4437167347658663	0.092034
H	0.2056590249585767 0.0334849057279602 0.4428542635888279	0.083197
H	0.2834090715379072 0.1063522541088470 0.4435790183957789	0.103247
H	0.3493590056092462 0.1636845440737136 0.4446789162401799	0.110069
H	0.4319062703036198 0.2379257585369332 0.4344254650694340	0.098410
H	0.4330374951043787 0.6131677001951878 0.9338290688949922	0.099486
H	0.3557630676633868 0.5330065174414228 0.9437440085996847	0.091807
H	0.2943497901569633 0.4664144151298923 0.9429475210954360	0.083090
H	0.2166744982332482 0.3934788736424578 0.9434871555714555	0.103016
H	0.1507187372223762 0.3360885153824538 0.9444190986368473	0.109261
H	0.0681024323739598 0.2618275343536929 0.9338412424194882	0.098444
H	0.9330435697166934 0.1131894557121350 0.9339079114498469	0.099329
H	0.8557396765016236 0.0330834074025850 0.9437709573920339	0.091749
H	0.7943251694529349 0.9664300343430577 0.9429100195442682	0.083134
H	0.7166571247160707 0.8935042863237341 0.9434065406554124	0.102938
H	0.6506612339184067 0.8360843847695294 0.9443035527385881	0.109683
H	0.5680247448186608 0.7618451847690869 0.9336403775081514	0.098501
H	0.4332002638290935 0.3869054926014095 0.0665171011746209	0.099932
H	0.3558229740408460 0.4669702734929466 0.0563721858552838	0.091745
H	0.2943452165532448 0.5335008342777569 0.0571456156634513	0.083086
H	0.2166134059218294 0.6064029896040525 0.0565035957503242	0.103124
H	0.1506946965900828 0.6638801052200890 0.0555725252045736	0.109484
H	0.0681668820906863 0.7381977675946566 0.0660752786403049	0.098342
H	0.9331534851724792 0.8870088048361908 0.0660958461667203	0.099359
H	0.8557660344060064 0.9670429181330854 0.0561961244324440	0.092133
H	0.7942956871934616 0.0335707836599276 0.0570904887276256	0.083180
H	0.7165710744124790 0.1064673504550411 0.0566316365696255	0.102893
H	0.6505997502399516 0.1639438441664663 0.0558356402089963	0.110340
H	0.5680365728165222 0.2382401206358446 0.0666255210672079	0.098321
H	0.5670675072469692 0.6131914773159060 0.5660340101535333	0.099346
H	0.6444007336962951 0.5330835396591208 0.5562623421315052	0.092160
H	0.7057207533228574 0.4664574549993691 0.5571644928627277	0.082892
H	0.7834363196080223 0.3935656968952301 0.5565936087904746	0.103076
H	0.8494680566749530 0.3362806228747177 0.5556393587754493	0.110099
H	0.9321141175872442 0.2621166259913273 0.5661173351112813	0.098214
H	0.0669829498689249 0.1131844262895944 0.5661293388051087	0.099552
H	0.1443091326268761 0.0330608771445615 0.5562344777076981	0.092048
H	0.2056546727580576 0.9664258467198978 0.5571258857334057	0.082889
H	0.2833710226416382 0.8935403232444659 0.5564943751980459	0.103200
H	0.3494386928740872 0.8362856802272055 0.5555211965601173	0.110099
H	0.4321121762888875 0.7621568492098340 0.5659166870849806	0.098354
Zn	0.5000158064038951 0.6888498313479199 0.7497793438335216	0.695290
Zn	0.0000148845041114 0.1888246027241803 0.7499729190867125	0.695260
Zn	0.4999363249246795 0.3112479157658364 0.2507038736494724	0.695274
Zn	-0.0000483276754077 0.8113018391137484 0.2499946113722485	0.695650
F	0.4999691993945830 0.6882455645378138 0.5642961707853665	-0.633279
F	-0.0000458020208385 0.1881771699876552 0.5645178673965939	-0.633262
F	0.4998140926850352 0.3115992295479018 0.0655852271027979	-0.632814
F	-0.0002022223797600 0.8118436136234283 0.0644784194378987	-0.633513
F	0.4999592838707775 0.6882936984882542 0.9351642896510540	-0.633142
F	-0.0000566112278880 0.1882158771131143 0.9354757693476670	-0.633349
F	0.4998280513834340 0.3119698327007993 0.4361139336033526	-0.633219
F	-0.0001943169705973 0.8118398830754217 0.4354733008460762	-0.633502
F	0.4829673886202846 0.7461402440875542 0.2543419591713409	-0.370500
F	0.5531886266033107 0.6698890715717358 0.2523820653575891	-0.368436
F	0.9821713364946945 0.2462886796018039 0.2514103614112728	-0.370774
F	0.0536595915983903 0.1715800839997395 0.2500024265805696	-0.368642
F	0.5539671596438182 0.2979325517577830 0.7427795913669173	-0.370463
F	0.4851814271721672 0.3757836523519189 0.7442135071124273	-0.366954
F	0.0525115683319867 0.7955648815719439 0.7502852423296243	-0.369425
F	0.9870320668704384 0.8772118448201363 0.7498260316061572	-0.366310
F	0.4606025887725871 0.6382872220281496 0.2523439558466590	-0.367702
F	0.9615706334234700 0.1380302329943169 0.2497647338054005	-0.367804
F	0.4608070750895688 0.2684831729714239 0.7436815299942423	-0.370346
F	0.9582234956958963 0.7714243354933658 0.7501935721120275	-0.369780
N	0.4352138214969922 0.6150740539723828 0.7498960029479906	-0.204110
N	0.5659474811913583 0.7605557442272219 0.7498125881954727	-0.207263
N	0.9352415680880741 0.1150894976079502 0.7499999073929308	-0.203908
N	0.0659737553187633 0.2605410556844524 0.7500059044001444	-0.207073
N	0.5647966254833036 0.3849601858383589 0.2504355899624389	-0.204979
N	0.4341356649683552 0.2393901577666911 0.2505336043149879	-0.205723
N	0.0647702101878302 0.8849790584230562 0.2499655933768459	-0.204285
N	0.9341309209182770 0.7394329105710616 0.2499841652735788	-0.207602
N	0.5648228800286546 0.6150676306344031 0.7499398394006007	-0.203732
N	0.4342286170453736 0.7607238683505594 0.7497818357178542	-0.207010
N	0.0648037915868645 0.1150638672164427 0.7500247602368715	-0.203808
N	0.9342368216735222 0.2607284426393930 0.7499784853337434	-0.207514
N	0.4353019308146063 0.3851180497983338 0.2504200410651051	-0.204474
N	0.5659644884077999 0.2395172188306148 0.2505039635956353	-0.205783
N	0.9353090985552168 0.8851225210780842 0.2499736329735877	-0.204466
N	0.0659713872459584 0.7395265319838118 0.2499809755924430	-0.207292
B	0.4989550080710791 0.6848098642092799 0.2531318072058578	1.088989
B	-0.0008337641500946 0.1853031387687838 0.2503736885928517	1.089582
B	0.4999694048788639 0.3140681184215033 0.7431774947095338	1.090277
B	0.9992893671414056 0.8147536040088665 0.7501243846246857	1.088045
	  	
