#======================================================================

# CRYSTAL DATA

#----------------------------------------------------------------------

data_VESTA_phase_1


_pd_phase_name                         BFFIVE_18_Zn
_cell_length_a                         13.15043
_cell_length_b                         15.00674
_cell_length_c                         8.52427
_cell_angle_alpha                      90.38553
_cell_angle_beta                       85.10339
_cell_angle_gamma                      89.19987
_symmetry_space_group_name_H-M         P 1
_symmetry_Int_Tables_number            1

loop_
_symmetry_equiv_pos_as_xyz
   x, y, z

loop_
   _atom_site_label
   _atom_site_fract_x
   _atom_site_fract_y
   _atom_site_fract_z
   _atom_site_charge
F	0.4568470313093071 0.3863533759991502 0.4488457442798311	-0.442663
F	0.5400005943825201 0.4766417699318098 0.7605731905998333	-0.558893
F	0.3902700136056511 0.5266695594737487 0.5190977837228853	-0.428135
F	0.9586861538359891 0.8863634006224854 0.4537889959783391	-0.444455
F	0.0405244323015994 0.9763785400059094 0.7611950664935061	-0.558578
F	0.8926652550453227 0.0276435447766110 0.5195928634526937	-0.427925
F	0.5638983135800512 0.5089528472221314 0.4383832926822507	-0.423170
F	0.4430395735103539 0.4943700156924012 0.2603610490998294	-0.436443
F	0.0657289256446855 0.0090649038021707 0.4381552443763040	-0.423343
F	0.9437893888339053 -0.0073858953423990 0.2618928698492214	-0.437315
C	0.7230465948437582 0.1662071830633884 0.6777046711511303	-0.425216
C	0.7820076381771902 0.1550797332737898 0.8179339746693529	0.203838
C	0.7697210672624428 0.1956494840685013 0.9671088022986898	-0.154207
C	0.6913310597318107 0.2599400266920747 0.0263038061331130	-0.144056
C	0.6785897260945246 0.3492305265753366 0.9775182680949539	0.214401
C	0.7434741073578787 0.3983423106289492 0.8559587109725034	-0.432531
C	0.8747506199461166 0.1844985009505621 0.2128705855424057	-0.425009
C	0.8498373948678350 0.1607819717710177 0.0507790512594612	0.208118
C	0.6139250993958904 0.2464636257083917 0.1467533041068088	0.207035
C	0.5886443931181922 0.1666400208404044 0.2445307413199475	-0.424076
C	0.2231145881601198 0.6666780242635759 0.6774249483359898	-0.424750
C	0.2822076691853204 0.6555397638362734 0.8176288755307802	0.203900
C	0.2696785198536387 0.6959380508769246 0.9669851432041093	-0.156202
C	0.1912129710886892 0.7600881247235074 0.0264939828805665	-0.142224
C	0.1786223828440016 0.8494327309821093 0.9779615625901305	0.214879
C	0.2436965739090642 0.8983278044078784 0.8563971569542150	-0.432868
C	0.3740434585273516 0.6851391685681338 0.2130581335485341	-0.425466
C	0.3498747389056885 0.6613343379101115 0.0506729627546738	0.209634
C	0.1137717211175762 0.7465861554515482 0.1469399762092081	0.206183
C	0.0886915374701015 0.6667380036158477 0.2447622793511962	-0.422550
C	0.2878580322295176 0.1770598067641303 0.3270719439575859	-0.421122
C	0.2337818266601993 0.1570059546719606 0.1845824029147086	0.192840
C	0.2403805991529432 0.1954107760661907 0.0345845588363460	-0.144146
C	0.3070869489672521 0.2673527646863330 0.9783027994405289	-0.151920
C	0.3111521015993708 0.3546593111635929 0.0427455810087390	0.200501
C	0.2439562205005114 0.3956879444959164 0.1745560658837924	-0.417159
C	0.1388472836161755 0.1656567370502561 0.7873825130520636	-0.441561
C	0.1681217229129452 0.1497300958352917 0.9501135670401843	0.211632
C	0.3813706728178700 0.2649225669530936 0.8494591714280588	0.203824
C	0.4163152333356309 0.1912540605759708 0.7387704084990907	-0.426089
C	0.7882692622638821 0.6766347798658051 0.3264904644026319	-0.421175
C	0.7339932418867539 0.6567868221139688 0.1842267521957220	0.192602
C	0.7405934436301255 0.6953425320028719 0.0343584775039214	-0.144196
C	0.8071699774311986 0.7674168160575938 0.9783341149732064	-0.151580
C	0.8113564395890093 0.8546659454566089 0.0429410716721905	0.200466
C	0.7445956809836101 0.8959879172353781 0.1749700709322578	-0.416700
C	0.6391412157342172 0.6659319806957654 0.7870069448663196	-0.441674
C	0.6684095775893040 0.6497493678185158 0.9496661850416336	0.212149
C	0.8813976437122385 0.7650352944089972 0.8494820935638855	0.203793
C	0.9163954392589724 0.6913995105050567 0.7389089263696302	-0.426626
H	0.7718647324752809 0.1885277880822909 0.5748616482081235	0.143297
H	0.6620025121953017 0.2159879138513846 0.7033311444638700	0.138686
H	0.6889884631722389 0.1031304175690025 0.6444472671276289	0.140147
H	0.6974238009924906 0.4240405424942082 0.7640025827374123	0.155330
H	0.8042197524795835 0.3537471926771714 0.8036975303697231	0.129595
H	0.7789389033180092 0.4557603506748331 0.9094759437387056	0.135905
H	0.8965577393601762 0.0596276605594203 0.7309479070189692	0.284554
H	0.8333945833410832 0.1430841813351930 0.3022732870465561	0.133169
H	0.8541930453944443 0.2546190738953413 0.2384500829750115	0.131432
H	0.9563318589498483 0.1743609820348424 0.2251363925248123	0.142712
H	0.5700386122625434 0.1848390286523266 0.3689233083649938	0.141008
H	0.6538280976862255 0.1200147247004332 0.2368251998029090	0.144276
H	0.5228837765534724 0.1312809754293893 0.2036855288015524	0.138037
H	0.5042037532865774 0.3411457829119718 0.2481425286622946	0.270365
H	0.2719020132692661 0.6888953437569131 0.5744625005577731	0.143527
H	0.1623269166370367 0.7166300888753787 0.7033510817162484	0.138223
H	0.1887233921028537 0.6037124207736274 0.6442376826357650	0.139914
H	0.1979601531697076 0.9238847021229284 0.7639606004630318	0.156132
H	0.3042085223122293 0.8533587972729302 0.8047419754012696	0.129248
H	0.2796723973561848 0.9557599031249133 0.9090296752757326	0.135716
H	0.3969692826902889 0.5600775919346666 0.7310856246631809	0.283855
H	0.3327719731681762 0.6434554092210019 0.3020510888957766	0.132818
H	0.3524469949846795 0.7550469653663480 0.2384995223102199	0.131456
H	0.4556108389225487 0.6758824668674750 0.2263410177858801	0.142976
H	0.0698833951362993 0.6848241963156535 0.3691409257814602	0.140658
H	0.1541241415911982 0.6204171016598956 0.2371943271292277	0.144332
H	0.0232427927769893 0.6310344386247226 0.2037453915826591	0.137323
H	0.0039381483738266 0.8413237720935248 0.2479245273022936	0.270065
H	0.2338282672332959 0.1941818682190164 0.4287363261365833	0.144336
H	0.3385418902447881 0.2336923856071498 0.3044875160610698	0.140747
H	0.3337900408644386 0.1196853533473720 0.3613394222463623	0.133182
H	0.2865882292660579 0.4129666214108005 0.2753711156116937	0.135996
H	0.1830343163237565 0.3496876657946711 0.2139550738416689	0.128868
H	0.2085724668602026 0.4575673513233695 0.1352676160744763	0.134961
H	0.1330500846479734 0.0546216944133087 0.2751525148893738	0.277107
H	0.1198192880254868 0.1030108249634532 0.7299717090273615	0.159326
H	0.2006559205162870 0.1988842854320918 0.7167922770623779	0.124016
H	0.0710316621080293 0.2096935762834772 0.7901498913143787	0.140396
H	0.4253856810024551 0.2146121481244278 0.6164839369801708	0.138888
H	0.3612508378516717 0.1369653370452382 0.7465346172367834	0.142541
H	0.4903617201321159 0.1635828957383312 0.7674770731656276	0.132320
H	0.4798507984905164 0.3759940681084196 0.7689388633576416	0.282683
H	0.7343723933033288 0.6939124312868220 0.4282458439009784	0.144435
H	0.8392167496382757 0.7330702974627119 0.3038039685403813	0.140361
H	0.8340665773678801 0.6191393182429669 0.3606107180070821	0.133375
H	0.7878154549943676 0.9139774093055220 0.2747734010806034	0.136161
H	0.6839687859094803 0.8500881460722426 0.2159517640419125	0.128777
H	0.7087071539828583 0.9575869574459013 0.1353899431186949	0.134050
H	0.6329905201769377 0.5544172985255295 0.2745022763316362	0.276579
H	0.6200107609766271 0.6032729393735159 0.7295165707492183	0.159281
H	0.7010163975553215 0.6992601695695009 0.7165040353115292	0.124102
H	0.5713521497349728 0.7100420319275967 0.7904837780161271	0.140866
H	0.9255881766885862 0.7148814168398766 0.6167474700137430	0.139223
H	0.8614712904185683 0.6369916050930089 0.7464837751457271	0.142596
H	0.9904574885671890 0.6639392132313051 0.7680335811689192	0.132709
H	0.9795642788511509 0.8761635292659641 0.7685894882962511	0.283017
N	0.8636880392642666 0.0995856388372015 0.8198773306927261	-0.142827
N	0.5977130569501474 0.3871078071484783 0.0614549986552963	-0.243016
N	0.9053804839705469 0.1017955616299258 0.9591993603902381	-0.223659
N	0.5597933317939018 0.3236676699613485 0.1617721223139218	-0.149184
N	0.3641954467052964 0.6004067617159659 0.8196315246817711	-0.141162
N	0.0977547106206473 0.8872852438711272 0.0618081430418202	-0.242264
N	0.4057225698329366 0.6025264005554504 0.9591060317727340	-0.224987
N	0.0595357239988655 0.8237977488593281 0.1618050589780343	-0.149314
N	0.1630694826667298 0.0924479909666727 0.1827258535311025	-0.153243
N	0.3838172466765843 0.4011926461882465 0.9600133508440438	-0.251827
N	0.1224402542894384 0.0873002975553041 0.0425698981496683	-0.230370
N	0.4238749865078070 0.3461350373413790 0.8436895547034829	-0.151288
N	0.6631223370699970 0.5923640169865191 0.1822888187428903	-0.151623
N	0.8841959509485510 0.9010991028210699 0.9604500187276631	-0.251968
N	0.6226924718210035 0.5872461201791989 0.0419977856248023	-0.230450
N	0.9241056053617009 0.8461502924314578 0.8439753435221554	-0.151383
B	0.4640264214399642 0.4794957342138044 0.4206923417261257	1.034846
B	0.9656562986162260 0.9791802485989272 0.4221940513196665	1.037089
Zn	0.5093452148971982 0.4978171911394981 0.9892962257971666	0.719731
Zn	0.0093066060987358 -0.0021685291479052 0.9894547476882746	0.719471
	  	
