#======================================================================

# CRYSTAL DATA

#----------------------------------------------------------------------

data_VESTA_phase_1


_pd_phase_name                         BFFIVE_13_Fe_i
_cell_length_a                         15.37403
_cell_length_b                         15.36586
_cell_length_c                         8.10369
_cell_angle_alpha                      90.84827
_cell_angle_beta                       88.84208
_cell_angle_gamma                      89.73386
_symmetry_space_group_name_H-M         P 1
_symmetry_Int_Tables_number            1

loop_
_symmetry_equiv_pos_as_xyz
   x, y, z

loop_
   _atom_site_label
   _atom_site_fract_x
   _atom_site_fract_y
   _atom_site_fract_z
   _atom_site_charge
C	0.5413193770364650 0.6876360262168415 0.8665009104927427	0.101193
C	0.5452605809192821 0.7779803375756109 0.8698718129833864	-0.159448
C	0.4634467316063337 0.3148452360487543 0.8775859452928519	0.099092
C	0.4605342357928452 0.2245563470571899 0.8791413469566948	-0.148850
C	0.8196834530365402 0.9728665015243325 0.3699732363324892	0.102113
C	0.7293112402276285 0.9710584911867450 0.3632160559944810	-0.138689
C	0.3151371038676565 0.5415528487932216 0.8631877882725323	0.099432
C	0.2247713931982361 0.5458876081788412 0.8657460063856461	-0.160468
C	0.1848567881034908 0.9755381016332436 0.3653300119681066	0.090901
C	0.2753795603206612 0.9730062564191014 0.3590423519703365	-0.138305
C	0.6877463621398971 0.4622347714175328 0.8803651284455568	0.098369
C	0.7779630557709846 0.4595662335923784 0.8802319090236845	-0.148712
C	0.4566187352729058 0.6863270425933007 0.1073486690767119	0.101825
C	0.4538423794160565 0.7765823879261577 0.1157301715070875	-0.145370
C	0.5385506050663613 0.3202083205145561 0.1238806707206439	0.102243
C	0.5421235382903133 0.2299278422904206 0.1307928010215653	-0.158784
C	0.1837097395180708 0.0207463823628536 0.6401096935551861	0.097668
C	0.2740112609760486 0.0220557921171589 0.6431306106263246	-0.139409
C	0.6818490021912065 0.5424950719822601 0.1258895546261707	0.103152
C	0.7721153934515529 0.5465275440207858 0.1309755241071270	-0.157902
C	0.8141579095755161 0.0260769160991345 0.6399254498638519	0.091486
C	0.7237792752435702 0.0281585993487090 0.6422118211124527	-0.141439
C	0.3154077818646114 0.4604676295121076 0.1032936774198649	0.102060
C	0.2251747136975794 0.4580520250192846 0.1106227074452150	-0.147903
C	0.9659416012852717 0.8139164104333279 0.6358728966985041	0.096746
C	0.9654562251628566 0.7234563394991503 0.6376089415084831	-0.137256
C	0.9839743207190766 0.1839433504100999 0.6423534864092076	0.086296
C	0.9813671094904453 0.2742978875464918 0.6430211781260005	-0.139235
C	0.0192063417809240 0.8146259767485721 0.3655120064736699	0.095080
C	0.0226377489965530 0.7241765170884258 0.3584055577937300	-0.138997
C	0.0274459339781585 0.1783253794389533 0.3659480408179685	0.103911
C	0.0288886513777619 0.2687749839885613 0.3577608338580933	-0.137576
C	0.0044806898462066 0.3179375266176165 0.4983076856279239	0.061372
C	0.0022188542343474 0.4137923017321543 0.4959578814475509	0.253584
C	0.4998963867598014 0.8232596932931074 0.9957648740252747	0.055251
C	0.5006407249134841 0.9188779269569980 0.0029606886043132	0.255026
C	0.9954890461823683 0.6773447187841655 0.4971499318732945	0.058371
C	0.9979628870678029 0.5813377664569183 0.4959480045718302	0.247300
C	0.5015979436637389 0.1813499133414310 0.0070358179186395	0.054063
C	0.5014553746943347 0.0856438192805261 0.0094285650822876	0.256317
C	0.6801759973143386 0.9992317361791105 0.5016421984574508	0.060516
C	0.5842638325223357 0.9982991484057278 0.5007359133089784	0.246397
C	0.1790636251478961 0.5024480895795060 0.9904939089196025	0.055056
C	0.0834055004459291 0.5031612285102305 0.9965398377456089	0.255016
C	0.3210813130761016 0.9970245457674385 0.5003494796539144	0.061316
C	0.4169133634274400 0.9970174136658835 0.5001687447591737	0.255445
C	0.8209531970997184 0.5035943414880059 0.0067477498382593	0.053565
C	0.9166668799011890 0.5038594297526584 0.0060320787416097	0.257410
H	0.5724590961069304 0.6493134698703097 0.7674903679747193	0.100110
H	0.5817419182718507 0.8124933799113121 0.7747627255135067	0.120420
H	0.4358203871091446 0.3516841284790295 0.7769367164882770	0.101237
H	0.4297044240906321 0.1877385815094205 0.7805570003788681	0.114864
H	0.8612292392920429 0.9540883323277695 0.2645314020456155	0.112323
H	0.6974495172987702 0.9488727842354530 0.2512776209502967	0.125688
H	0.3539063248087211 0.5715733694512027 0.7653578492268165	0.100753
H	0.1906148351081457 0.5812607254542494 0.7709967887533914	0.121165
H	0.1461775413670422 0.9612107979087882 0.2569724138533517	0.108155
H	0.3095447722827336 0.9540464167118846 0.2447064840909120	0.120556
H	0.6511165803339561 0.4327947917260311 0.7804028179764386	0.100817
H	0.8148710220667555 0.4270143522165964 0.7809375573871580	0.113072
H	0.4267172832465771 0.6458873887165310 0.2022770491716249	0.111126
H	0.4199288807401755 0.8106706306548330 0.2169459817057928	0.113436
H	0.5649919604956375 0.3619112600977547 0.2207661775931634	0.108893
H	0.5744137561963173 0.1981221972574130 0.2322603471064777	0.122283
H	0.1450698033267678 0.0375046060223136 0.7499011859157882	0.100691
H	0.3071396281820440 0.0409006880483531 0.7557517448541723	0.123313
H	0.6400240660673966 0.5705428000379860 0.2234367551309870	0.110130
H	0.8036681726888707 0.5810931222931009 0.2315393823807499	0.120146
H	0.8503259230313756 0.0458672073223069 0.7482275908214590	0.095618
H	0.6880571004601111 0.0507715764089215 0.7523277235507840	0.123377
H	0.3552234008909756 0.4316910018609226 0.1984655697818437	0.109771
H	0.1906690329783955 0.4253962556311113 0.2105650995424566	0.114393
H	0.9446565298930342 0.8518770443154122 0.7440229254851271	0.103091
H	0.9434556235110829 0.6894237896912582 0.7477751727464130	0.123981
H	0.9690046712612898 0.1481910425424119 0.7543470896358877	0.098557
H	0.9625081931868376 0.3100828214785629 0.7553049870391649	0.122872
H	0.0365264752644669 0.8542551168624440 0.2594211956748227	0.108736
H	0.0454822959248243 0.6907482996276728 0.2460506321690661	0.124099
H	0.0421478744082471 0.1366992523737825 0.2587445102512828	0.114873
H	0.0467984698103672 0.3005128681797442 0.2425992848304141	0.125483
N	0.9438895734638122 0.5407219622681583 0.6029049442000185	-0.168106
N	0.4230993694047502 0.0461903254747969 0.0098869417531464	-0.165930
N	0.5421357666359879 0.0530473185378373 0.6071941134281278	-0.175840
N	0.9569897495222917 0.4255226877213016 0.0036431607092261	-0.168243
N	0.0537383507421654 0.5412836760203809 0.3885664581534420	-0.168660
N	0.5792298423322634 0.0447325816479650 0.0113243084096610	-0.166871
N	0.9566982279623244 0.5818057187748844 0.0052130619902618	-0.168861
N	0.5459681250902093 0.9423610105641700 0.3951660523830449	-0.174209
N	0.0563982655873654 0.4543565255703401 0.3896216253587847	-0.162726
N	0.5789052077064635 0.9583345648168369 0.0036345275047866	-0.164514
N	0.4590416997917126 0.9416451176508833 0.3952486394274827	-0.168243
N	0.0430846972391884 0.5813730014797130 0.9964021576136948	-0.167847
N	0.9456568819414001 0.4539422333727198 0.6018537769670735	-0.162915
N	0.4227529857260346 0.9598611867806326 0.0112617409496227	-0.160549
N	0.0433255026665668 0.4251903967243980 0.0029113651338231	-0.164935
N	0.4553580079158281 0.0524733799445823 0.6064882308408612	-0.172498
N	0.0057362106505635 0.1367559947295393 0.5061334130872295	-0.181871
N	0.4986249715858158 0.6426728912906780 0.9838136059057818	-0.220679
N	0.9928609466219537 0.8587377685447444 0.5027525252337157	-0.181734
N	0.5010431708486638 0.3616859319526791 -0.0017293556464797	-0.221316
N	0.8612587348321395 -0.0009848975865697 0.5068843218378808	-0.188014
N	0.3594929088468397 0.5004059708354487 0.9806609916794593	-0.218626
N	0.1398531819997361 0.9979136656748436 0.5041094380673523	-0.188136
N	0.6405392212715514 0.5022752039612320 0.0012923718069758	-0.219730
Fe	0.0000260648311221 0.9976740519219908 0.5044469353591190	0.631240
Fe	0.4996504106162733 0.5025210314148928 0.0030723560127695	0.718769
B	0.9971762396203074 0.9946155660639984 0.9427027292035391	1.053720
B	0.5009127838457691 0.4987636135228371 0.5655528782442372	1.066292
F	0.0030734107536226 0.9965305033111618 0.2792111799160824	-0.440098
F	0.5119127538905717 0.4936473236948465 0.7500953786850126	-0.433342
F	0.9985660374169114 0.9967232683687544 0.7540840246110468	-0.407083
F	0.4887420692851082 0.5093452460941416 0.2310073517034082	-0.533075
F	0.9341600444175014 0.9332922681240724 0.9830893885363879	-0.436089
F	0.4391697323864633 0.4353433311094518 0.5288850760088906	-0.459581
F	0.9744532515949261 0.0794173244627800 0.9897778644634883	-0.435611
F	0.4719703592327978 0.5836787545246426 0.5400819446220926	-0.459261
F	0.0813270918003648 0.9702785575663281 0.9829978070988135	-0.436718
F	0.5841295155491608 0.4807240224474804 0.5013664312512043	-0.461371
	  	
