#======================================================================

# CRYSTAL DATA

#----------------------------------------------------------------------

data_VESTA_phase_1


_pd_phase_name                         BFFIVE_13_Cd_i
_cell_length_a                         15.87508
_cell_length_b                         15.76070
_cell_length_c                         8.31974
_cell_angle_alpha                      94.99700
_cell_angle_beta                       82.00338
_cell_angle_gamma                      91.04869
_symmetry_space_group_name_H-M         P 1
_symmetry_Int_Tables_number            1

loop_
_symmetry_equiv_pos_as_xyz
   x, y, z

loop_
   _atom_site_label
   _atom_site_fract_x
   _atom_site_fract_y
   _atom_site_fract_z
   _atom_site_charge
C	0.5488649384032414 0.6944364432952564 0.8512911919206491	0.109051
C	0.5509699700701223 0.7829546882030157 0.8552440996503249	-0.160258
C	0.4631001393130794 0.3075878410481863 0.8957973609345093	0.101562
C	0.4607701951571092 0.2192450635076936 0.8948414758469326	-0.147426
C	0.8206708616205930 0.9789435275320660 0.3514796678875509	0.102604
C	0.7331916352156878 0.9768352089964383 0.3467554701217192	-0.140812
C	0.3143719029795502 0.5367625875168613 0.8394299247654338	0.107929
C	0.2262501201669209 0.5438498672090806 0.8495618233805559	-0.156764
C	0.2031469694396733 0.9828118357380780 0.3775519206452161	0.094196
C	0.2914145544176083 0.9807203046115233 0.3649153196605635	-0.146418
C	0.6991054371576639 0.4572583761777531 0.9075324489032195	0.096891
C	0.7868628924385198 0.4555633888363012 0.9034200916659474	-0.149761
C	0.4589807726547354 0.6985353016265494 0.0978416451854783	0.097295
C	0.4544910935984908 0.7869512365634289 0.1068283470851119	-0.143986
C	0.5354243151861569 0.3210262262649483 0.1213907066393111	0.104004
C	0.5402161654869689 0.2329410993634314 0.1231562491539830	-0.152611
C	0.1900108656470107 0.0165943081107537 0.6577158526845726	0.098174
C	0.2776960743906252 0.0163048828673113 0.6558743393677503	-0.145290
C	0.6827845083306148 0.5469924299567607 0.1453651592112689	0.109481
C	0.7705591533382810 0.5519100253895964 0.1465160493585406	-0.152702
C	0.8009462785190408 0.0206293658309314 0.6288350487175213	0.092945
C	0.7132064201919118 0.0214012987429640 0.6348638173400832	-0.149048
C	0.3011748328527247 0.4588215832961611 0.0655741962894910	0.105966
C	0.2129127077294693 0.4579569179537941 0.0780638121651197	-0.152572
C	0.9716934637935704 0.8079578957342365 0.6607649210276060	0.106806
C	0.9707224876631678 0.7195615662861181 0.6585686836088759	-0.143537
C	0.9910905776758115 0.1947734381786375 0.6420246558915168	0.095697
C	0.9890751761547656 0.2829585778512532 0.6460269055600492	-0.146771
C	0.0134394797990784 0.8020900098313749 0.3800989881913722	0.096535
C	0.0149888674187247 0.7135653571273832 0.3673646879884233	-0.141493
C	0.0204089364019872 0.1807235560085598 0.3589108370426360	0.103984
C	0.0208504387607575 0.2687299289231631 0.3519400255927005	-0.138956
C	0.0042796268454438 0.3207824538589945 0.4981708269362521	0.040722
C	0.0004418882752864 0.4137308651520711 0.4981049192681636	0.254218
C	0.5023021176665254 0.8300259702073227 0.9846409244190903	0.056815
C	0.5020354332539908 0.9240127138421913 0.9936789966466089	0.250210
C	0.9932564063844025 0.6713723336177578 0.5091799291166407	0.036047
C	0.9942651015826740 0.5780291009632779 0.5026736383624284	0.252235
C	0.5011455175894428 0.1811954113983641 0.0092821775370494	0.057155
C	0.5015701266170878 0.0875151422574252 0.0081900973831224	0.250569
C	0.6783295048460576 0.9983797456902221 0.4913147121524535	0.037361
C	0.5856984583190310 0.9973239846822791 0.4945245660299843	0.250195
C	0.1745548283919794 0.5025434396185251 0.9693904821135740	0.052467
C	0.0809637636857553 0.5045936567367905 0.9839346107098642	0.253242
C	0.3295477597135415 0.9980948001856612 0.5065502187601004	0.037107
C	0.4221969562613441 0.9975221957476075 0.5009267790360145	0.256492
C	0.8237192554208047 0.5051657657629524 0.0233353249789130	0.058230
C	0.9173608791799667 0.5061367073069228 0.0146514580244400	0.249331
H	0.5820396413984970 0.6545637851431020 0.7492433897965455	0.099429
H	0.5888292463950169 0.8146576603238672 0.7581516870914855	0.119172
H	0.4366764747659955 0.3404204955260660 0.8039225354193016	0.101870
H	0.4302853921242957 0.1802195958970675 0.8045760688941929	0.116811
H	0.8657659967780132 0.9637977232826820 0.2416452083250722	0.108942
H	0.7082250542351713 0.9592978820220708 0.2328112284561902	0.124859
H	0.3574316957127575 0.5638543224639229 0.7428939103425151	0.106868
H	0.1987174055635170 0.5795296188515621 0.7634356272565319	0.121203
H	0.1682810236693879 0.9705737562402702 0.2729573713143809	0.112896
H	0.3292636406111549 0.9665249147239175 0.2463858989705368	0.106573
H	0.6679912003239272 0.4231795515158562 0.8121861827331771	0.103197
H	0.8268507145544780 0.4191354936381926 0.8053819322825330	0.110230
H	0.4276066728791034 0.6595605260542767 0.1924017502808861	0.113115
H	0.4171467120561126 0.8221246256216229 0.2101334639780500	0.114009
H	0.5606928306668240 0.3643554934034446 0.2131612217694004	0.106658
H	0.5722960552104687 0.2054092024044488 0.2136709999662685	0.123927
H	0.1470634695216344 0.0277806869361710 0.7712914589033373	0.107978
H	0.3051492164920327 0.0286733917057362 0.7686246105872416	0.119654
H	0.6384194362938056 0.5785398314487791 0.2432024611263281	0.106795
H	0.7965829004167333 0.5903255227249944 0.2435595513221202	0.121997
H	0.8310259578692691 0.0361250862776167 0.7376165104742369	0.104042
H	0.6731802939837040 0.0388202565968558 0.7495702877782296	0.108588
H	0.3340271900433046 0.4312005393195622 0.1551352088018584	0.098977
H	0.1741588416961160 0.4261657354162687 0.1737773163625392	0.110399
H	0.9554641294773981 0.8480173885538457 0.7741736122050193	0.101848
H	0.9536438419032127 0.6888079716167202 0.7709936029322998	0.117910
H	0.9799475539305217 0.1619999619671264 0.7532236656981826	0.103046
H	0.9761310349903645 0.3211884999115857 0.7620105778833506	0.113475
H	0.0292297471055766 0.8402009575393974 0.2756866564831239	0.114252
H	0.0326691045805381 0.6785369474071982 0.2491697386725834	0.114030
H	0.0300620723420185 0.1367877211604434 0.2490322609934286	0.114925
H	0.0320796868435668 0.2962982907895197 0.2350936704757214	0.124618
N	0.9544111146648802 0.5407050967732174 0.6332270172666999	-0.131259
N	0.4258093190412465 0.0468788059627571 0.0104886926414931	-0.146485
N	0.5379754335460236 0.0363973151555333 0.6270760475064916	-0.136654
N	0.9557480121341388 0.4297322490944901 0.0059365256041858	-0.153598
N	0.0330866585655334 0.5340348954643978 0.3661497301757219	-0.130923
N	0.5770833305144095 0.0489805369406861 0.0047967331431392	-0.152622
N	0.9583847930851244 0.5818296766183152 0.0093653074586239	-0.150648
N	0.5530221448783257 0.9576120277439527 0.3661606996463266	-0.131454
N	0.0370005250542769 0.4505741184524284 0.3648923635276834	-0.126054
N	0.5776892752240019 0.9646967770137447 0.9927542273709579	-0.148898
N	0.4698082024040798 0.9575394674196438 0.3696593300648818	-0.132714
N	0.0425979085097765 0.5808967694891686 0.9903625892514983	-0.151089
N	0.9570033040125739 0.4572429952637591 0.6301963022963734	-0.131205
N	0.4259905585980387 0.9628513468329440 0.0063040582189223	-0.146224
N	0.0396619453416202 0.4289607859205851 0.9924488562094740	-0.149236
N	0.4550435672097273 0.0369325560787139 0.6296393548974475	-0.131703
N	0.0059145292347099 0.1449316478337375 0.5015383018579677	-0.217201
N	0.5047664383265206 0.6535023319420755 0.9712179670368307	-0.224878
N	0.9927194502347001 0.8479817154652959 0.5243724679538936	-0.221588
N	0.4987777236117129 0.3571861825496326 0.0081308737784993	-0.222050
N	0.8536947671073387 0.9998595169865222 0.4904321711975096	-0.221213
N	0.3510106224134717 0.4958974017714940 0.9466971563583992	-0.230264
N	0.1535760002819116 0.0002141072970326 0.5215946355513683	-0.223251
N	0.6477934962498545 0.5020181650908829 0.0262830401379678	-0.228319
Cd	0.0045261310405321 0.9953942465257393 0.4950504730152685	0.766859
Cd	0.4968991307589917 0.5068727489595053 0.0084119458167430	0.785400
B	0.9746860553020650 0.0030842643275395 0.9435697662485987	1.048273
B	0.5142917345293044 0.4815307902195446 0.5764501203655843	1.045993
F	0.0442798064811497 0.9653467792692851 0.2424888597138382	-0.585927
F	0.5546297413771717 0.4681512102656976 0.7214226229197422	-0.461670
F	0.9569251918326589 0.0240083281473594 0.7817882941116641	-0.452998
F	0.4323535236438097 0.5389850788277420 0.2471615627049095	-0.606526
F	0.9140750662983995 0.9408334015850828 0.9941892162376429	-0.445013
F	0.4480183592975412 0.4215096263745993 0.5705662276883104	-0.461813
F	0.9643990358722071 0.0794167704984880 0.0440607190575776	-0.457133
F	0.4840388437138748 0.5656939096312978 0.5985412406106044	-0.451881
F	0.0571338234942272 0.9711999046156558 0.9200200444680111	-0.438199
F	0.5775102766725300 0.4691745264993198 0.4404594753538537	-0.465240
	  	
