#======================================================================

# CRYSTAL DATA

#----------------------------------------------------------------------

data_VESTA_phase_1


_pd_phase_name                         BFFIVE_6_Fe_i
_cell_length_a                         17.89813
_cell_length_b                         17.89806
_cell_length_c                         16.29663
_cell_angle_alpha                      89.99860
_cell_angle_beta                       90.00096
_cell_angle_gamma                      89.99178
_symmetry_space_group_name_H-M         P 1
_symmetry_Int_Tables_number            1

loop_
_symmetry_equiv_pos_as_xyz
   x, y, z

loop_
   _atom_site_label
   _atom_site_fract_x
   _atom_site_fract_y
   _atom_site_fract_z
   _atom_site_charge
N	0.2430185552309503 0.1277115021227632 0.1327324916801158	-0.236512
N	0.2574909179532028 0.3721817461925284 0.1319648439417523	-0.236207
N	0.3722036080821866 0.2425365779539101 0.1326616777999751	-0.235834
N	0.1277220297014298 0.2570918965316812 0.1317305397784403	-0.236937
N	0.7574667881070408 0.6278042377256107 0.3673433747128906	-0.235783
N	0.7429085638242579 0.8722833742492597 0.3682680631100666	-0.237009
N	0.6278219814659840 0.7425074586454559 0.3680691070811180	-0.236413
N	0.8722944169951559 0.7569817002218845 0.3672364312059604	-0.236445
N	0.7574880909695977 0.8721795295250779 0.8680427532836129	-0.236590
N	0.7430130400863657 0.6277024906441095 0.8672485346889772	-0.236608
N	0.6277109054179422 0.7570917716243610 0.8682648099292237	-0.237142
N	0.8721981678539559 0.7425367892696436 0.8673445262553290	-0.235881
N	0.2429067131865515 0.3722903706522069 0.6317329464669593	-0.237120
N	0.2574673699640623 0.1278011044151740 0.6326585323024335	-0.235750
N	0.3722890085254728 0.2569802651840786 0.6327609263773356	-0.236534
N	0.1278075482050492 0.2425002398252817 0.6319426500783375	-0.236573
C	0.2025922794522601 0.0903192346822815 0.1888100254450470	0.099934
C	0.1942354192297846 0.0131418467878764 0.1867903146054617	-0.188320
C	0.2312143762574939 0.9718755247249570 0.1259586514538140	0.106136
C	0.2741197070723472 0.0113517823786306 0.0683850025165068	-0.187233
C	0.2774576659328981 0.0888599012567852 0.0729696314564855	0.102962
C	0.2257314304379069 0.8897202492704411 0.1233919489529931	0.064501
C	0.2898266018094308 0.8465194339905523 0.1201344529494520	-0.175026
C	0.2860007783559886 0.7676323757376070 0.1211183589768700	0.084507
C	0.1489653379066133 0.7776422910608979 0.1236878936967290	-0.124006
C	0.1546696672272639 0.8542700582021441 0.1260751240831593	-0.137728
C	0.2974734117519676 0.4093236407709048 0.1887222431506413	0.097047
C	0.3055805315594459 0.4865713842846385 0.1872545429045377	-0.189948
C	0.2688654425993187 0.5280664149395099 0.1263943886060523	0.106795
C	0.2264466538393886 0.4888010111858846 0.0682402376051277	-0.186750
C	0.2233559955158145 0.4112356687091739 0.0721459899660875	0.100930
C	0.2743228461703865 0.6102445128007906 0.1240362210953593	0.065195
C	0.2102254309386758 0.6534350194414955 0.1206142946237935	-0.174619
C	0.2140532551726504 0.7323207462363136 0.1212227889928768	0.083669
C	0.3510766561678244 0.7223321211542449 0.1238703785601896	-0.123409
C	0.3453961746968833 0.6457033180024825 0.1266514212241105	-0.137892
C	0.4094181315434569 0.2021499894719967 0.1889380739906003	0.098162
C	0.4866398871074516 0.1939728567618135 0.1874031288955370	-0.189688
C	0.5280913474225919 0.2310523539100258 0.1267547585667786	0.106876
C	0.4887650083229115 0.2737725908286873 0.0689193587264745	-0.184622
C	0.4112365723244396 0.2769511920084643 0.0730387525240555	0.102498
C	0.6102583323759964 0.2255791580662697 0.1242434440889667	0.064470
C	0.6534206183155088 0.2897080165730317 0.1207729683658528	-0.174355
C	0.7323078621336593 0.2858554157425917 0.1212159054229910	0.083561
C	0.7223394102448204 0.1488258644401952 0.1237935130745155	-0.123381
C	0.6457299367116111 0.1545208132674728 0.1267200391349388	-0.137366
C	0.0903509585972656 0.2971412962381016 0.1882231909292933	0.097899
C	0.0131571395924745 0.3053828907961977 0.1863054475897710	-0.189157
C	0.9718644888220903 0.2686809003983646 0.1252961817031047	0.105404
C	0.0113269199602595 0.2260958542163324 0.0674261719614124	-0.189576
C	0.0888737118690829 0.2228568682133517 0.0717895247338504	0.102437
C	0.8897100105259249 0.2741511903708564 0.1229894096756243	0.065264
C	0.8464910858018228 0.2100477268651867 0.1198225546387797	-0.174754
C	0.7676250842730123 0.2139150759263442 0.1209980937097243	0.084610
C	0.7776264229908127 0.3509506051220215 0.1236548217389856	-0.124527
C	0.8542614615156591 0.3452131395460284 0.1258518786645994	-0.138050
C	0.7978528839044180 0.5905942709907760 0.3110670451892990	0.098208
C	0.8060235968948071 0.5133736559946780 0.3125951342059721	-0.189641
C	0.7689461505502412 0.4719157045934066 0.3732432890608211	0.107083
C	0.7262298554498618 0.5112420797714592 0.4310786341891929	-0.184482
C	0.7230526279086957 0.5887666250643765 0.4269662182511036	0.102352
C	0.7744205258475625 0.3897511777001869 0.3757523664659539	0.064266
C	0.7102926909480024 0.3465853703310481 0.3792272471037615	-0.174409
C	0.7141455986106264 0.2677014600815367 0.3787869244428410	0.083774
C	0.8511713755772140 0.2776718173156646 0.3762077612554510	-0.123415
C	0.8454777306842329 0.3542750934124363 0.3732780903684998	-0.137032
C	0.7028602252358727 0.9096565411337920 0.3117741516595957	0.097927
C	0.6946188180469656 0.9868499680903303 0.3136938532410626	-0.189298
C	0.7313257074873787 0.0281421162070705 0.3747025390715260	0.105618
C	0.7739070330848669 0.9886755312924873 0.4325721426580372	-0.189468
C	0.7771482651012491 0.9111304611438610 0.4282109059107131	0.102385
C	0.7258525862060214 0.1102968916984855 0.3770086884601804	0.065220
C	0.7899546878266812 0.1535162669437036 0.3801763625711014	-0.174786
C	0.7860863893155792 0.2323808561417316 0.3790017548427559	0.084583
C	0.6490519584808946 0.2223781719485975 0.3763482922901445	-0.124601
C	0.6547894686156033 0.1457470979395259 0.3741477452765076	-0.137997
C	0.5906841063485052 0.7025272273443882 0.3113073932282755	0.097241
C	0.5134354013959740 0.6944252295761322 0.3127626781826147	-0.189822
C	0.4719395491938240 0.7311392230942797 0.3736177081229086	0.106775
C	0.5111992346894776 0.7735554407242587 0.4317770794236077	-0.186510
C	0.5887670547963014 0.7766473008544288 0.4278823407671176	0.100945
C	0.3897631904157154 0.7256832596452295 0.3759678241668000	0.065158
C	0.3465707053846210 0.7897808565409894 0.3793912692531110	-0.174625
C	0.2676862722997844 0.7859526946991110 0.3787776196068968	0.083868
C	0.2776757080377869 0.6489262604510814 0.3761288164257749	-0.123489
C	0.3543027213900465 0.6546078117151835 0.3733506619966258	-0.137758
C	0.9096864146939661 0.7974105077202526 0.3111682885980368	0.100121
C	0.9868663749819410 0.8057714856103066 0.3131943266557687	-0.188184
C	0.0281291294282796 0.7687902386758219 0.3740326440908591	0.105973
C	0.9886538320156411 0.7258846552756314 0.4315994006021726	-0.186629
C	0.9111441878233845 0.7225427666857627 0.4270044928328909	0.102437
C	0.1102856439724514 0.7742718385316369 0.3766032682239932	0.064719
C	0.1534856410362907 0.7101781209136360 0.3798642547199186	-0.175048
C	0.2323746746107454 0.7140034710543597 0.3788814762693338	0.084335
C	0.2223652501380607 0.8510396540372165 0.3763141320490169	-0.123930
C	0.1457328911283331 0.8453333454904615 0.3739225695107296	-0.137952
C	0.7974688298079108 0.9093199352291648 0.8112876976461376	0.097083
C	0.8055764847524848 0.9865685421172763 0.8127488500272720	-0.189899
C	0.7688625484344931 0.0280630119115428 0.8736109789777041	0.106811
C	0.7264512043358955 0.9887971802365538 0.9317662730393743	-0.186725
C	0.7233520146364686 0.9112306688312690 0.9278665086033139	0.101082
C	0.7743216155096058 0.1102376405727638 0.8759657191801414	0.065141
C	0.7102180152999867 0.1534318844419506 0.8793886453602773	-0.174700
C	0.7140519816371239 0.2323134663838577 0.8787806888500017	0.083960
C	0.8510765645484750 0.2223234307210376 0.8761321652209140	-0.123544
C	0.8453940049518913 0.1457016705004773 0.8733531810648195	-0.137701
C	0.7025954278512857 0.5903111417279989 0.8111738133929856	0.100065
C	0.6942380342727568 0.5131340464644556 0.8131926716039214	-0.188140
C	0.7312185801808699 0.4718687797266972 0.8740345383595446	0.105940
C	0.7741182055572753 0.5113431095789810 0.9316031611242731	-0.186727
C	0.7774555533426435 0.5888529422348361 0.9270144413763455	0.102493
C	0.7257312549041132 0.3897136935346270 0.8766042737427869	0.064506
C	0.7898271532611947 0.3465133830750312 0.8798638265824539	-0.175020
C	0.7859992852459906 0.2676289135464681 0.8788851815743568	0.084389
C	0.6489650650266491 0.2776372493469460 0.8763181094831735	-0.124063
C	0.6546712972533237 0.3542668258425469 0.8739272198751106	-0.137681
C	0.5903416408237689 0.7971380215428886 0.8117696471229872	0.097800
C	0.5131420085068373 0.8053793701944104 0.8136878030234286	-0.189363
C	0.4718542873282900 0.7686757598282417 0.8747015859374839	0.105546
C	0.5113196262735850 0.7260956399900801 0.9325734261824004	-0.189466
C	0.5888679285828047 0.7228562981621440 0.9282092681611254	0.101917
C	0.3897023973066261 0.7741552235489584 0.8770126940957033	0.065364
C	0.3464837600736659 0.7100463210600685 0.8801809839691728	-0.174757
C	0.2676192922742256 0.7139182829721696 0.8790099156378713	0.084544
C	0.2776223766238126 0.8509558877375640 0.8763531351540104	-0.124629
C	0.3542521437800110 0.8452166060552911 0.8741540799231571	-0.138061
C	0.9094090914668125 0.7021507145352108 0.8110682245644060	0.098013
C	0.9866318039745950 0.6939817769319416 0.8125984227863220	-0.189694
C	0.0280864066980645 0.7310576934678913 0.8732450239610695	0.107018
C	0.9887582548957398 0.7737762719943556 0.9310793148857610	-0.184513
C	0.9112323710212518 0.7769506736537507 0.9269620514751011	0.102360
C	0.1102537387814464 0.7255852460260984 0.8757572139640600	0.064583
C	0.1534141705141356 0.7897124955309004 0.8792312549535310	-0.174481
C	0.2323013348745551 0.7858586894690104 0.8787931359930645	0.083672
C	0.2223367973455933 0.6488294089766405 0.8762152623826350	-0.123292
C	0.1457182749281563 0.6545258747197689 0.8732844286888719	-0.137368
C	0.2028581601170500 0.4096611060078964 0.6882277326596633	0.097753
C	0.1946254649668476 0.4868560993874873 0.6863077123232008	-0.189208
C	0.2313270883930159 0.5281456880789699 0.6252958290025148	0.105475
C	0.2739096051902753 0.4886787791208539 0.5674275807844595	-0.189628
C	0.2771430496286714 0.4111357887140737 0.5717932876441583	0.102538
C	0.2258502831750216 0.6102981131232814 0.6229833119349062	0.065362
C	0.2899549115931236 0.6535170213560603 0.6198167870280813	-0.174850
C	0.2860861734856225 0.7323767996491448 0.6209909037946403	0.084709
C	0.1490498171385449 0.7223776227376336 0.6236459987757085	-0.124670
C	0.1547873095759896 0.6457471260193510 0.6258442416011276	-0.137985
C	0.2978500170759353 0.0905853408228706 0.6889410393067963	0.098010
C	0.3060207553986053 0.0133654347617614 0.6874132467402982	-0.189737
C	0.2689473666322351 0.9719096323597375 0.6267612278403583	0.106933
C	0.2262299633336898 0.0112418178831249 0.5689251375691954	-0.184529
C	0.2230524479597835 0.0887627954886021 0.5730389471377954	0.102374
C	0.2744251560925871 0.8897460973336283 0.6242470989218302	0.064373
C	0.2102930680218058 0.8465826643707688 0.6207719528926188	-0.174412
C	0.2141459792112100 0.7676984565166051 0.6212095857614344	0.083595
C	0.3511741798986919 0.7776662816883472 0.6237857512421123	-0.123386
C	0.3454812297662488 0.8542700431331192 0.6267184275948910	-0.137308
C	0.4096820758421462 0.2974045242813411 0.6888320894879597	0.100086
C	0.4868591844458319 0.3057622827904534 0.6868120389610494	-0.188190
C	0.5281237783146785 0.2687869032537427 0.6259698206302586	0.105859
C	0.4886462304778849 0.2258858780501209 0.5684006938907622	-0.186705
C	0.4111391552087034 0.2225436062792346 0.5729927114021626	0.102485
C	0.6102780786899111 0.2742740354449041 0.6233974095720077	0.064783
C	0.6534760673257844 0.2101774131578330 0.6201356199337504	-0.175103
C	0.7323628291258182 0.2140040414596052 0.6211133010213091	0.084344
C	0.7223548081358994 0.3510414690630226 0.6236814587844485	-0.123898
C	0.6457225962872097 0.3453359466394615 0.6260749397410343	-0.137857
C	0.0906676049451176 0.2025294014126487 0.6887067589978788	0.097230
C	0.0134191081852847 0.1944283321192834 0.6872532660125890	-0.189939
C	0.9719226235455897 0.2311439964862009 0.6263864443864255	0.106565
C	0.0111861537300463 0.2735582553050053 0.5682340841497729	-0.186691
C	0.0887522233097090 0.2766455453138828 0.5721258193674001	0.101063
C	0.8897473321977475 0.2256790855890377 0.6240325609569120	0.065267
C	0.8465560568628775 0.2897832647954450 0.6206090022023124	-0.174702
C	0.7676731606442867 0.2859521683688652 0.6212175789470711	0.083745
C	0.7776608743679717 0.1489252865066114 0.6238641039306647	-0.123493
C	0.8542870634383676 0.1546057628786023 0.6266432555071391	-0.137918
H	0.1771369813264103 0.1240578805849909 0.2370393911393688	0.095673
H	0.1608596037971331 0.9849250021405529 0.2333951790280882	0.110418
H	0.3029741606414456 0.9816179007255085 0.0193431300107455	0.111214
H	0.3066232447319608 0.1225967455409416 0.0272049700497572	0.104280
H	0.3445474486500685 0.8734940573619244 0.1195065759761976	0.106529
H	0.0942761557040878 0.7505942539931044 0.1243920781086530	0.106705
H	0.1045246689331013 0.8889224397979576 0.1284162960782121	0.099400
H	0.3229615652230348 0.3753537573781001 0.2368598141472116	0.096502
H	0.3387115068815539 0.5146455526729070 0.2341773218994551	0.110812
H	0.1978493843556025 0.5187284535872062 0.0191391237617459	0.110911
H	0.1948284725540527 0.3777935661841934 0.0256092372264296	0.106234
H	0.1555049285452757 0.6264542775284045 0.1200264814192686	0.106541
H	0.4057522715038059 0.7494141052154349 0.1244038686839306	0.105374
H	0.3955460819353099 0.6110850263108309 0.1291189435439953	0.099804
H	0.3753806734495711 0.1760250321903284 0.2365538100869769	0.095871
H	0.5147407210992108 0.1605035731961706 0.2340078550076518	0.111070
H	0.5186287711846678 0.3025179765141568 0.0198793212734098	0.110751
H	0.3776893455342465 0.3057345897332435 0.0268116685461064	0.105060
H	0.6264228225125931 0.3444200302384980 0.1202566119051573	0.107003
H	0.7494402338060870 0.0941524309294992 0.1242420298245461	0.105718
H	0.6111358082002731 0.1043439020008175 0.1291712105210577	0.099631
H	0.1240112160329975 0.3220861085175237 0.2368924004501232	0.096760
H	0.9849420935843823 0.3384185879201073 0.2332271861335341	0.110762
H	0.9815537220973064 0.1973413762583061 0.0183387705759577	0.111705
H	0.1225417221121512 0.1939122306092067 0.0257659229959660	0.105059
H	0.8734676866540206 0.1553368176318194 0.1191069337592482	0.106148
H	0.7505699072440865 0.4056315558423191 0.1244765503471178	0.106678
H	0.8889338959505543 0.3953241898063246 0.1281939232876569	0.099420
H	0.8239772938395733 0.6246322568892156 0.2634519052341135	0.095862
H	0.8394912722681995 0.4852713272963313 0.2659924726154786	0.111184
H	0.6974820360438595 0.4813749176510894 0.4801147598719407	0.110785
H	0.6942700894219452 0.6223139622053340 0.4731896740867208	0.105256
H	0.6555808985417216 0.3735819903449094 0.3797454109903555	0.106976
H	0.9058483331095271 0.2505690529799373 0.3757581288369574	0.105680
H	0.8956523790635140 0.3888739410246091 0.3708273897779653	0.099524
H	0.6779139392194623 0.8759978533603884 0.2631093770349823	0.096941
H	0.6615795436933295 0.0150684634907129 0.2667762332161644	0.110907
H	0.8026629358497112 0.0184435407839321 0.4816623587505746	0.111759
H	0.8060893984031643 0.8774593297726960 0.4742325427171565	0.105122
H	0.8446647646996579 0.1265389985086059 0.3808950138160537	0.106185
H	0.5943707134942839 0.2494360168585479 0.3755243740210244	0.106704
H	0.6046801814801158 0.1110714419806711 0.3718076437477713	0.099434
H	0.6246552676402407 0.6770424923822557 0.2631738752299372	0.096466
H	0.4853646421831180 0.6612977373914757 0.2658375009001060	0.110917
H	0.4812717160276356 0.8021511975698807 0.4808716949903370	0.110887
H	0.6222060882778403 0.8051701662872154 0.4744207840131467	0.106384
H	0.3735496460909441 0.8445014372050359 0.3799797763232732	0.106487
H	0.2505925844392809 0.5942528945370683 0.3755969710155520	0.105550
H	0.3889201222064688 0.6044584041597038 0.3708813565315478	0.099751
H	0.8759499080956445 0.8228646127797723 0.2629307399441920	0.095583
H	0.0150810092370757 0.8391497832314426 0.2665951516455821	0.110398
H	0.0183796465532322 0.6970285519549876 0.4806473088186514	0.111241
H	0.8774106260050453 0.6933725337998367 0.4727664071674496	0.104484
H	0.1265128224378270 0.6554572368138248 0.3804878027564272	0.106503
H	0.2494107041143131 0.9057316635574365 0.3756149593031256	0.106799
H	0.1110841126241254 0.8954790669971566 0.3715828799004996	0.099452
H	0.8229533734947898 0.8753505276377080 0.7631502707470641	0.096481
H	0.8387031176649767 0.0146385822691005 0.7658224593318254	0.110876
H	0.6978532810212029 0.0187183178055117 0.9808682218956689	0.110886
H	0.6948290973171266 0.8777909055491733 0.9744048371397755	0.106278
H	0.6555008726640634 0.1264539085366634 0.8799759880813939	0.106595
H	0.9057500860688448 0.2494086088431980 0.8755984097575115	0.105500
H	0.8955430246292223 0.1110815585160299 0.8708823756341938	0.099817
H	0.6771393512225168 0.6240510100806338 0.7629401365671994	0.095581
H	0.6608598274046958 0.4849198238410659 0.7665917866434890	0.110319
H	0.8029741161831940 0.4816177666803679 0.9806550673050108	0.111175
H	0.8066172251912954 0.6225859687820241 0.9727762918647348	0.104385
H	0.8445458441013393 0.3734891975183653 0.8804874902648588	0.106594
H	0.5942712910069954 0.2505912159517283 0.8756160499933050	0.106770
H	0.6045262668774870 0.3889183019815025 0.8715833879362263	0.099413
H	0.6239996261480288 0.8220861007485909 0.7631034646292597	0.096889
H	0.4849325297789547 0.8384220889546937 0.7667707029489990	0.110934
H	0.4815566652499322 0.6973416904616616 0.9816683530486181	0.111700
H	0.6225374708872407 0.6939157963493372 0.9742331575917370	0.105362
H	0.3734597106311938 0.6553388144056943 0.8809009393242557	0.106198
H	0.2505626375501095 0.9056361000640359 0.8755260021464752	0.106750
H	0.3889261118565157 0.8953272082617963 0.8718079579843152	0.099445
H	0.8753747171864310 0.6760281352719064 0.7634566366094470	0.095841
H	0.0147288044625249 0.6605134180224606 0.7659899993525744	0.111098
H	0.0186161727321539 0.8025250395576401 0.9801202961781929	0.110683
H	0.8776865184103748 0.8057358213927662 0.9731844055276742	0.105151
H	0.1264179800509171 0.8444257166963310 0.8797464391450366	0.107072
H	0.2494316636099470 0.5941533958319027 0.8757643753726363	0.105708
H	0.1111296501297916 0.6043516215236514 0.8708310625596308	0.099658
H	0.1779109553311477 0.3760001327488417 0.7368887485831555	0.096891
H	0.1615841050617191 0.5150650487046508 0.7332296327036354	0.110800
H	0.3026669245744788 0.5184488930555518 0.5183363683192035	0.111677
H	0.3060811340070929 0.3774656891815039 0.5257697785071768	0.105062
H	0.3446623821240412 0.6265366977396254 0.6191004888821708	0.106129
H	0.0943660648640716 0.7494344455397773 0.6244733014997347	0.106707
H	0.1046791731358765 0.6110691766424702 0.6281875446468205	0.099340
H	0.3239685334872825 0.1246208317048760 0.7365573726092337	0.095831
H	0.3394902538690874 0.9852691687170838 0.7340232623769787	0.111177
H	0.1974822715319627 0.9813823518412274 0.5198794091518425	0.110684
H	0.1942669560444612 0.1223128862786585 0.5268155832321237	0.105108
H	0.1555821845987880 0.8735785486404133 0.6202574365418893	0.107026
H	0.4058514576577578 0.7505624619958755 0.6242343936107722	0.105638
H	0.3956567980537269 0.8888677337280139 0.6291714054165805	0.099580
H	0.3759434728017466 0.3228579453808941 0.7370649068681917	0.095511
H	0.5150703743628595 0.3391407464164372 0.7334138841937131	0.110296
H	0.5183691235776640 0.1970346826517962 0.5193486338462024	0.111128
H	0.3774048914868316 0.1933812946388551 0.5272273674963942	0.104413
H	0.6265016841198896 0.1554578398307832 0.6195085128248814	0.106541
H	0.7494011334907195 0.4057319246490236 0.6243871023496790	0.106712
H	0.6110765826683384 0.3954804742715204 0.6284202615706015	0.099381
H	0.1246352818678748 0.1770477031054021 0.7368455349122411	0.096514
H	0.9853506496641889 0.1613006691383960 0.7341806780458775	0.110828
H	0.9812649380115656 0.3021593395584499 0.5191262852007826	0.110897
H	0.1221946569945903 0.3051660872602692 0.5255907466313681	0.106350
H	0.8735382954161836 0.3445000219916035 0.6200251986248733	0.106556
H	0.7505783562484825 0.0942491116543049 0.6243959759735549	0.105484
H	0.8889069373046413 0.1044560160858931 0.6291110636755103	0.099808
F	0.2545614045393339 0.1768007564657280 0.3662411839821961	-0.467626
F	0.1825021308128525 0.2865058755963009 0.3674151986003421	-0.465508
F	0.3132260216401700 0.2942274989644032 0.3654524967817678	-0.466796
F	0.7057383469957146 0.6867643123417329 0.1345731518340740	-0.466742
F	0.7134665302184593 0.8174966752248397 0.1325492484955519	-0.465292
F	0.8231521457777073 0.7454040266892449 0.1338714064518660	-0.467409
F	0.6824908380898133 0.7864729426673976 0.6325791807722628	-0.465537
F	0.7546632242491409 0.6768322474868524 0.6336905022655897	-0.467713
F	0.8132332081104294 0.7942681736841534 0.6346101815312074	-0.466813
F	0.2057228928934478 0.1867865012920801 0.8654077364859757	-0.466821
F	0.3231709825219717 0.2453656880650160 0.8660833128187863	-0.467608
F	0.2135047266950299 0.3175159360365735 0.8674429839110703	-0.465324
F	0.2486512367918354 0.2519950039573023 0.2529524515196938	-0.433553
F	0.2511522001066370 0.2496625888073122 0.5116786871036317	-0.538866
F	0.7478318160773327 0.7514345765859533 0.2470885847505421	-0.433448
F	0.7503908858665841 0.7488709942790743 -0.0116846196435204	-0.538993
F	0.7485834115312200 0.7519502635972939 0.7470552537151103	-0.431609
F	0.7511599381672582 0.7496518513656338 0.4883179412676924	-0.538727
F	0.2478144175269548 0.2514491434354844 0.7529029346410990	-0.433433
F	0.2503969362088333 0.2488430903102721 0.0116827364472553	-0.538917
Fe	0.2499586668668958 0.2499404886047059 0.1261511354743017	0.729761
Fe	0.7500464249890392 0.7500460143459280 0.3738622884528050	0.729626
Fe	0.7499518407270025 0.7499474354076997 0.8738521729656893	0.729712
Fe	0.2500558380344930 0.2500437687788311 0.6261327468797503	0.729677
B	0.2498190868041405 0.2523324575695013 0.3449426534748382	1.072828
B	0.7476056156140050 0.7501837703117836 0.1550876752980243	1.072322
B	0.7498285579521989 0.7523388334299072 0.6550482222598898	1.071941
B	0.2476025947041711 0.2501946120170180 0.8448899282211590	1.072566
	  	
