#======================================================================

# CRYSTAL DATA

#----------------------------------------------------------------------

data_VESTA_phase_1


_pd_phase_name                         BFFIVE_6_Co_i
_cell_length_a                         17.41562
_cell_length_b                         17.41600
_cell_length_c                         16.90380
_cell_angle_alpha                      90.15918
_cell_angle_beta                       90.15767
_cell_angle_gamma                      90.03434
_symmetry_space_group_name_H-M         P 1
_symmetry_Int_Tables_number            1

loop_
_symmetry_equiv_pos_as_xyz
   x, y, z

loop_
   _atom_site_label
   _atom_site_fract_x
   _atom_site_fract_y
   _atom_site_fract_z
   _atom_site_charge
N	0.2399177782324977 0.1375857113162630 0.1319974065015874	-0.183357
N	0.2601783967750501 0.3618141918039813 0.1311420963625854	-0.179804
N	0.3619152546456141 0.2397246827021193 0.1325561156097320	-0.182701
N	0.1376319000044028 0.2598931656717435 0.1308542306796167	-0.181472
N	0.7603093906935647 0.6380017525262204 0.3675316142932929	-0.182539
N	0.7401616539731680 0.8621682045143247 0.3691910622368566	-0.181778
N	0.6381275110925284 0.7398883798757203 0.3687688828570192	-0.180851
N	0.8625059444090598 0.7598006089730024 0.3679995845297767	-0.182382
N	0.7601974507713534 0.8618945041450269 0.8688427426566866	-0.183719
N	0.7397173458313678 0.6377677781718301 0.8684343890708190	-0.182595
N	0.6375618962481000 0.7601268554330950 0.8693707998628326	-0.181955
N	0.8618870374017074 0.7397466509776311 0.8675308761728520	-0.182743
N	0.2400129424736079 0.3623308884289833 0.6304761810244688	-0.182495
N	0.2603981375448806 0.1380872254551457 0.6322894800970830	-0.183239
N	0.3624137331721070 0.2601997748459234 0.6317704211830439	-0.182548
N	0.1381202853028147 0.2397879215398613 0.6313193043770077	-0.182224
C	0.2040744556753950 0.0985930057479092 0.1899206342838793	0.086884
C	0.1960652422103465 0.0192487213620896 0.1876290487715488	-0.186270
C	0.2286608924497773 0.9775391383927603 0.1251203181178465	0.106861
C	0.2665465780876881 0.0189346811481378 0.0658300325719804	-0.180940
C	0.2696630458186125 0.0985417313436388 0.0700737608666172	0.091556
C	0.2238419558988879 0.8930053714790998 0.1225245645269626	0.065464
C	0.2901064358454213 0.8492924081877110 0.1187961929074541	-0.177331
C	0.2867625426619301 0.7681846515391150 0.1196077789069345	0.085245
C	0.1458887681411686 0.7771699714353867 0.1224007912781779	-0.126644
C	0.1511016519999795 0.8559782180066271 0.1253313455544719	-0.138086
C	0.2959609186823303 0.4009297536942498 0.1895317786404721	0.084386
C	0.3039060087382652 0.4802762119747541 0.1875622531660275	-0.186138
C	0.2714060144771232 0.5218344142720889 0.1249374016652771	0.105353
C	0.2340381531511229 0.4802627655159129 0.0649994720443190	-0.180700
C	0.2309465311801985 0.4006134347128191 0.0688493130935683	0.090033
C	0.2761031334688105 0.6064092330277364 0.1226845418891145	0.066106
C	0.2098078467674290 0.6500947217936301 0.1188167020195084	-0.177936
C	0.2131207098510473 0.7312218112246707 0.1195387600277000	0.085584
C	0.3539969503482073 0.7222827120268274 0.1227711333269075	-0.126279
C	0.3488377624057205 0.6434931874144892 0.1257506454724644	-0.138171
C	0.4008341969338344 0.2039167756264440 0.1907847877534675	0.085336
C	0.4801698125503816 0.1957484730188569 0.1889214198363559	-0.185829
C	0.5218960170822458 0.2281738318492962 0.1265081238985138	0.106062
C	0.4805411962712981 0.2657860081532167 0.0668339837406091	-0.179193
C	0.4009523407489746 0.2690533970756759 0.0706097577204563	0.092224
C	0.6064225760984409 0.2233105837808071 0.1237652298572654	0.062745
C	0.6501440843397125 0.2895865889634662 0.1194484792677669	-0.176172
C	0.7312718243933468 0.2863660550349607 0.1193708574611382	0.084445
C	0.7222485875572131 0.1454820276178975 0.1223967038322467	-0.125979
C	0.6434756094072203 0.1506071036786683 0.1262824386566336	-0.136841
C	0.0985410037655369 0.2956551236378729 0.1890160243379910	0.083836
C	0.0192170167903224 0.3036205364517798 0.1864959608874489	-0.185014
C	0.9776582436462681 0.2711583187285979 0.1236103172077945	0.104084
C	0.0191842457564722 0.2335861835246478 0.0640360677656920	-0.182202
C	0.0988078959468458 0.2304181547574400 0.0684490571671314	0.091046
C	0.8930899637185414 0.2758271604495278 0.1211521416169953	0.065247
C	0.8493197814975298 0.2095214355603447 0.1175282749305763	-0.176256
C	0.7681896951591570 0.2127438364846161 0.1189741228686095	0.085934
C	0.7772504125474148 0.3536599685397487 0.1218838671230968	-0.125425
C	0.8560781251213366 0.3485417346391337 0.1243245148822274	-0.139418
C	0.7962504657270830 0.5991084177496898 0.3093801889462651	0.085044
C	0.8044171899934062 0.5197665879888846 0.3111879215928305	-0.186096
C	0.7719133665288662 0.4779807761923687 0.3735341802844250	0.106085
C	0.7342331395008895 0.5193227317885567 0.4331948475128882	-0.179414
C	0.7309599167386589 0.5989265588683846 0.4294348155906493	0.092399
C	0.7767673139795519 0.3934503936501508 0.3761681659458764	0.062742
C	0.7104850082807809 0.3497405171122254 0.3803352958274566	-0.175585
C	0.7137000558716204 0.2686136607703417 0.3803703191932361	0.084917
C	0.8545488574736531 0.2776033676715970 0.3773354927414951	-0.124585
C	0.8494547469536982 0.3563808976202169 0.3735820716965494	-0.137603
C	0.7044164815460187 0.9012528350245701 0.3110192631447438	0.084840
C	0.6964356678038526 0.9805796482433184 0.3134970894608531	-0.184302
C	0.7288351854839051 0.0221871608628997 0.3763925059375782	0.102860
C	0.7663999404290955 0.9806692935198699 0.4359831310872520	-0.181508
C	0.7695898588001779 0.9010357260573589 0.4315866443965265	0.090457
C	0.7241888062551428 0.1067595499602038 0.3787425054186293	0.067302
C	0.7905092152293867 0.1505174608927762 0.3822418469354927	-0.177623
C	0.7872986750847389 0.2316438317390158 0.3807639099106920	0.084826
C	0.6463991047943448 0.2226338589420793 0.3778130534484296	-0.126311
C	0.6514950808318882 0.1437959204475031 0.3754999576523373	-0.139339
C	0.5989513272312391 0.7042102735039147 0.3103423172495751	0.084162
C	0.5195907274685395 0.6962912435483279 0.3123749997445256	-0.186367
C	0.4781141452127651 0.7287128068417764 0.3750962360291563	0.105151
C	0.5197136075092390 0.7660163332382998 0.4350360093455266	-0.180462
C	0.5993676106343827 0.7691000643358222 0.4311160995093097	0.090347
C	0.3935890890419091 0.7240016626920273 0.3774616286972093	0.066181
C	0.3499175562155576 0.7902771668257117 0.3814206307017149	-0.176780
C	0.2687975293782106 0.7869446216342716 0.3807231623026953	0.085467
C	0.2778090503802088 0.6460267182386388 0.3775683258925804	-0.124932
C	0.3565900166986766 0.6512464178450714 0.3744437437986210	-0.138333
C	0.9015132948910678 0.7956276405033682 0.3100630901616383	0.087333
C	0.9808556873191676 0.8037494723278826 0.3123844348952379	-0.186545
C	0.0225646921951748 0.7712475096990612 0.3749316096017360	0.107045
C	0.9811951991104109 0.7333768989932110 0.4342219648424245	-0.180387
C	0.9015799382941113 0.7301478024770692 0.4299606876459611	0.090126
C	0.1070592470799468 0.7761304154198096 0.3776018128026503	0.062720
C	0.1507817270507302 0.7098854592008423 0.3814406147566123	-0.175365
C	0.2318814448904268 0.7132587665212486 0.3806678757173292	0.083624
C	0.2228126613852459 0.8541596509471279 0.3779063148197893	-0.126804
C	0.1440031602620254 0.8489020753430701 0.3748411225050441	-0.138179
C	0.7957615081469067 0.9006608261032689 0.8104993045833110	0.086215
C	0.8036785317247206 0.9800137138857845 0.8124871337650937	-0.186497
C	0.7713559725714924 0.0219208635195115 0.8750194591803535	0.106192
C	0.7341474453176626 0.9806618389476767 0.9348305218130920	-0.182191
C	0.7310624777180031 0.9010233802548503 0.9310056519072009	0.092591
C	0.7760485278805361 0.1065040265436562 0.8773479544880632	0.065711
C	0.7098269056695897 0.1503090993873426 0.8811118681936142	-0.177625
C	0.7131447835065445 0.2314344365122999 0.8803004735425616	0.085729
C	0.8539787170728151 0.2223908733775248 0.8771267199748962	-0.126641
C	0.8487573745636108 0.1435805804954140 0.8742884640959004	-0.138168
C	0.7037202736794069 0.5985224609005181 0.8103639475746135	0.086264
C	0.6958293099006957 0.5191975985998061 0.8125194521918713	-0.184692
C	0.7286610436528637 0.4778102819345325 0.8750687954852306	0.107449
C	0.7665873874276662 0.5195068869718048 0.9345266655483381	-0.180118
C	0.7696582814380043 0.5990791904672473 0.9304249167090602	0.090899
C	0.7238946438147071 0.3932669828537598 0.8776164840552007	0.062258
C	0.7901304268329022 0.3494884358192185 0.8812151566444021	-0.176361
C	0.7867804660907729 0.2683633135415298 0.8802336650827132	0.085608
C	0.6459220549567960 0.2774050671050090 0.8775038657539060	-0.125604
C	0.6511562021958381 0.3562065087149772 0.8747323084135306	-0.137478
C	0.5982106089606867 0.7955964761297408 0.8111855927451619	0.083986
C	0.5188957169592692 0.8034783999513349 0.8135246492535176	-0.185853
C	0.4776140166933591 0.7712162439967836 0.8762962554358802	0.105333
C	0.5194002653752021 0.7338755034737713 0.9358360717592785	-0.180659
C	0.5989969329173612 0.7307935061051736 0.9316058199374437	0.091387
C	0.3930628448481914 0.7758640633377065 0.8788092929428791	0.062930
C	0.3492732696218964 0.7096044886185797 0.8824604596713311	-0.176499
C	0.2681385337038703 0.7128091078727836 0.8810254371006931	0.086271
C	0.2772103380809469 0.8537006280604670 0.8780887414736361	-0.126758
C	0.3560232145478546 0.8485439700935418 0.8756383006592318	-0.137120
C	0.9004269020852427 0.7038019723412208 0.8091573006191287	0.086419
C	0.9797685074898864 0.6957043671493276 0.8109069209598554	-0.187591
C	0.0218090926088463 0.7282585992979906 0.8734332814379228	0.106596
C	0.9808222911761419 0.7660106348981688 0.9332494379350091	-0.179548
C	0.9012368175758766 0.7693017903703828 0.9295334943273135	0.093121
C	0.1063365795211201 0.7233772566264051 0.8762683116780040	0.063698
C	0.1501127334678325 0.7896412878155140 0.8805819273648907	-0.176545
C	0.2312328847395112 0.7864205117791376 0.8806289356330373	0.085061
C	0.2221626131949292 0.6455355331521085 0.8777256089330526	-0.125689
C	0.1433753990026742 0.6506795838676145 0.8738338726686130	-0.137549
C	0.2042992715862543 0.4016858156467740 0.6884786248814176	0.085654
C	0.1963916283754640 0.4809780307732266 0.6860221986236279	-0.185697
C	0.2288903444909658 0.5222586960811819 0.6233867176439566	0.103786
C	0.2663238375860492 0.4804324497590602 0.5639452466779015	-0.181003
C	0.2694541715608590 0.4008448702473679 0.5682638818166585	0.091999
C	0.2242735108446911 0.6068126360067814 0.6210535800549556	0.067899
C	0.2905298537250914 0.6506384497507016 0.6176601860866497	-0.178348
C	0.2872654794125967 0.7317613711282455 0.6193524513296337	0.085865
C	0.1463937063070564 0.7226290665061801 0.6223794188587191	-0.127448
C	0.1515811211709801 0.6438174793324728 0.6244173033829842	-0.139076
C	0.2965378934635314 0.0995453525497742 0.6905148432393482	0.086894
C	0.3046495610678350 0.0202182791273576 0.6887258093776102	-0.187639
C	0.2718436061928686 0.9781283648275141 0.6263717154885683	0.106035
C	0.2340173490317328 0.0191431346673886 0.5666264021566666	-0.179053
C	0.2307537561698782 0.0987258943786146 0.5703597863665705	0.093227
C	0.2766440827855137 0.8935763477678407 0.6237212220993011	0.063868
C	0.2103769016528132 0.8497572695502260 0.6197087730145140	-0.177265
C	0.2136450511716431 0.7686360773158563 0.6198184270395866	0.085887
C	0.3545157823040788 0.7777495852448109 0.6227361327508792	-0.124763
C	0.3493452060655822 0.8565346853332277 0.6263284334566996	-0.137759
C	0.4016370756823077 0.2960316613374759 0.6899793350031836	0.086880
C	0.4809637140606944 0.3039877062510299 0.6878505677403414	-0.186552
C	0.5223439112110869 0.2713632000096965 0.6251952813664666	0.107316
C	0.4806945100504331 0.2334490022763132 0.5656963068133614	-0.179360
C	0.4011314493298695 0.2303213738510138 0.5697613701711554	0.090802
C	0.6068655976628674 0.2761897454078486 0.6224493277675899	0.061956
C	0.6506070950299857 0.2099459509631852 0.6185936851782052	-0.175446
C	0.7317359139716045 0.2132315682469795 0.6193400060858725	0.084276
C	0.7227644962402007 0.3541235650928270 0.6220398144505153	-0.125826
C	0.6439584510045752 0.3489166652403971 0.6251540797022047	-0.137257
C	0.0993653665836793 0.2045175137636930 0.6898686894211461	0.085082
C	0.0200030540887368 0.1966255402174539 0.6879337590885054	-0.185874
C	0.9781457845957644 0.2286491668901321 0.6252162352666978	0.105669
C	0.0193813229645004 0.2657175982601334 0.5652952582363959	-0.182027
C	0.0990168900304955 0.2688191061494334 0.5690799008823031	0.091095
C	0.8935772471655236 0.2238609828858825 0.6226665309671657	0.065436
C	0.8498281309062934 0.2900939685204746 0.6186337970830592	-0.177281
C	0.7686976858081176 0.2868595252469300 0.6192780847092624	0.085454
C	0.7776588476323522 0.1459902050953223 0.6223803244623776	-0.125838
C	0.8564707083568488 0.1511608978912222 0.6255864402806725	-0.137929
H	0.1831812792670096 0.1327943255229091 0.2394211429054250	0.103773
H	0.1667563139522012 0.9897258108740720 0.2356880444616849	0.114155
H	0.2918592992396132 0.9891259223203966 0.0154375811920795	0.114037
H	0.2931146650943414 0.1348911627266246 0.0234122739880405	0.118391
H	0.3461735883663045 0.8774201288327835 0.1179330654157581	0.107294
H	0.0899220868067384 0.7489108905324879 0.1232442677197161	0.107060
H	0.0993123283009441 0.8911440512353216 0.1280637994527488	0.101719
H	0.3172310783563975 0.3668159586756888 0.2389577195832164	0.103417
H	0.3332241994173966 0.5099097017047240 0.2358871780701413	0.113947
H	0.2090880033320501 0.5099104863468217 0.0143434166955824	0.115309
H	0.2078074008295841 0.3645010309883303 0.0214546407262131	0.119198
H	0.1537512701472796 0.6219420062184123 0.1178480828041622	0.107381
H	0.4099330629421126 0.7506098877609799 0.1237669044417451	0.105934
H	0.4006471316501611 0.6083852189170208 0.1287159290183680	0.101873
H	0.3664260915872697 0.1825240747551381 0.2397882927082277	0.104098
H	0.5096759860622933 0.1662974143958266 0.2370380750671574	0.114021
H	0.5103884482613594 0.2906602428922014 0.0163932744084942	0.114945
H	0.3648700392571874 0.2920799167065555 0.0233417661677405	0.119048
H	0.6220047350181321 0.3456046628211935 0.1187408311609889	0.107570
H	0.7505326967338314 0.0895582373731582 0.1227858179052163	0.105899
H	0.6083997331380343 0.0987536096407558 0.1294581707078161	0.102367
H	0.1324567348320855 0.3164096803318615 0.2389768068303301	0.104725
H	0.9896245655496239 0.3327001846538485 0.2347964678561118	0.114086
H	0.9894559746014794 0.2084261957318533 0.0133586898323449	0.115148
H	0.1351237966562840 0.2068777535332703 0.0216349046532334	0.118062
H	0.8774611465960365 0.1535115339132590 0.1163893112729684	0.107090
H	0.7489333400172289 0.4095665399791078 0.1228960459021074	0.106063
H	0.8912566981120078 0.4003727153786952 0.1270619091277081	0.101857
H	0.8177430109948448 0.6335606351310464 0.2604518980688936	0.104296
H	0.8338701618257797 0.4903172547795521 0.2630295661343094	0.114210
H	0.7092521616054328 0.4894815270123250 0.4835883732112606	0.115033
H	0.7079431439722902 0.6349967219843364 0.4767195942156038	0.119069
H	0.6544655535570957 0.3778652176549301 0.3809837991563577	0.107342
H	0.9104722607774790 0.2492992729244121 0.3767643389108303	0.105468
H	0.9013544403557640 0.3914015720549737 0.3704159057138965	0.102580
H	0.6836955415669878 0.8673133639160878 0.2610738745145989	0.104353
H	0.6673966823796962 0.0101267179769905 0.2651314945890847	0.113556
H	0.7916071396748711 0.0103780500515614 0.4866593411225952	0.114886
H	0.7930868091723510 0.8647497819233891 0.4784428799468459	0.118549
H	0.8465238948272511 0.1223937573603943 0.3833083154909301	0.107433
H	0.5904994296652569 0.2509573447600235 0.3766395523182683	0.106509
H	0.5996370300550162 0.1086592468598401 0.3727796728251564	0.101546
H	0.6330180389426173 0.6830283861082646 0.2608524887857685	0.103543
H	0.4898505015706971 0.6670889617586158 0.2640414137292554	0.114042
H	0.4900152956764972 0.7909522913420488 0.4856806103934235	0.115395
H	0.6354718573605019 0.7921967636988515 0.4785262268860545	0.119146
H	0.3780867055081085 0.8463132455910435 0.3824148732960952	0.107124
H	0.2494954253877517 0.5900812034330482 0.3767670716345152	0.105469
H	0.3917603479004270 0.5994818825540035 0.3714403694936648	0.101649
H	0.8673056756667782 0.8164456003691316 0.2605492101859992	0.103769
H	0.0104079704829453 0.8330470518144223 0.2643249271085419	0.114211
H	0.0111036883817008 0.7081493822419693 0.4846084685108247	0.114134
H	0.8653148790169120 0.7066457289642659 0.4766509559658172	0.118428
H	0.1226698259813249 0.6538274738663827 0.3822981566410057	0.107326
H	0.2510653118788828 0.9101408753670784 0.3772624626865728	0.107281
H	0.1087987861201541 0.9006545675135631 0.3720549525600385	0.102571
H	0.8168117944598804 0.8662924023277656 0.7610966537547560	0.103427
H	0.8328975681739710 0.0092713250938173 0.7642356228013231	0.114234
H	0.7093289399128189 0.0104723801069788 0.9854385526326593	0.115019
H	0.7080656641086163 0.8651233979330469 0.9782843825397174	0.118862
H	0.6537318297452391 0.1222627229984775 0.8820653332002203	0.107408
H	0.9099227489166134 0.2506785433837387 0.8760836743036091	0.105817
H	0.9005276818742212 0.1084337655398861 0.8713140109431687	0.101676
H	0.6826333029204966 0.6325402282607674 0.7609013085636620	0.103646
H	0.6663813160008076 0.4895196757830471 0.7643660676661604	0.113540
H	0.7919837656893324 0.4900280132180110 0.9850109355278035	0.113914
H	0.7931699265851868 0.6357306756068504 0.9771569124259494	0.118968
H	0.8462322607534642 0.3775183353064969 0.8820687176794625	0.107095
H	0.5899420917356339 0.2491634589777213 0.8765589931210124	0.106449
H	0.5993747361063203 0.3913765829680333 0.8720130497038859	0.101549
H	0.6319348948886006 0.8160887348354394 0.7613092463093273	0.104227
H	0.4891603987837843 0.8324356025534008 0.7652602325941147	0.114664
H	0.4899688593391791 0.7089135947339156 0.9864587643103178	0.114371
H	0.6354766210908701 0.7073882609424150 0.9784107186521280	0.118337
H	0.3773641056453291 0.6535810089631223 0.8835583934928348	0.106809
H	0.2489551583873227 0.9096313284244958 0.8770448706524636	0.106491
H	0.3912275474539638 0.9003260592773329 0.8727732835327661	0.101146
H	0.8657048224403544 0.6823207964601371 0.7601173092333041	0.103473
H	0.0089350430042572 0.6661077013219434 0.7626922482140428	0.115161
H	0.0108854853045714 0.7909443729914349 0.9838036292795734	0.114707
H	0.8652741714183799 0.7924294607665069 0.9767872768890462	0.118616
H	0.1220365269190616 0.8456787542824239 0.8812104622968068	0.107461
H	0.2504011003793598 0.5895862270082255 0.8773677482022005	0.105911
H	0.1082517555883685 0.5988437280330071 0.8705876541549946	0.102348
H	0.1836282956643797 0.3679705430609263 0.7382800519864831	0.103607
H	0.1671982961858348 0.5106865810642536 0.7341304202464346	0.113929
H	0.2913379625853607 0.5097833714335480 0.5133153090929529	0.114284
H	0.2929081363954914 0.3643025644245988 0.5215510209813053	0.118312
H	0.3465718292004844 0.6225886602312146 0.6164948007567417	0.107241
H	0.0904588227669280 0.7508648795311986 0.6237489469818838	0.106807
H	0.0998162379976960 0.6085799412199697 0.6270962309524677	0.101297
H	0.3181655187823975 0.1342533879178664 0.7394990511515216	0.103111
H	0.3344511043930115 0.9911197071929216 0.7368312387590853	0.115330
H	0.2090058642049909 0.9891430606825524 0.5160938225252426	0.114562
H	0.2075431209381673 0.1346818304027711 0.5231576037304617	0.118450
H	0.1543000637481058 0.8777613519254808 0.6190446727818067	0.107947
H	0.4104713710872414 0.7495262480390158 0.6234050348188095	0.105269
H	0.4011717035066248 0.8916811524480941 0.6293843545912919	0.102352
H	0.3676182262548678 0.3169289914660550 0.7395194124438355	0.103944
H	0.5106776598048538 0.3333498849350781 0.7360385597561780	0.114234
H	0.5102533718308224 0.2081590357468559 0.5152140147974511	0.113920
H	0.3645267092953157 0.2067842173378982 0.5230127852985447	0.118478
H	0.6225193547201567 0.1538803606426707 0.6178167241749081	0.106816
H	0.7510239998987719 0.4100980006945914 0.6226567356464157	0.106856
H	0.6088158589673291 0.4007053179590441 0.6280872113625539	0.101787
H	0.1337232016507786 0.1836283090014280 0.7393575423837300	0.103651
H	0.9906757524860140 0.1676139540022281 0.7362699136045530	0.114317
H	0.9895328108575930 0.2903825018359614 0.5146371559056356	0.115260
H	0.1349752106790643 0.2916974255261103 0.5217648596180383	0.119298
H	0.8779511659987838 0.3461396482321524 0.6177142867861763	0.107314
H	0.7493351656244369 0.0900531351512549 0.6231455944766742	0.105531
H	0.8915936531084259 0.0993764829337434 0.6287633443462343	0.101738
F	0.2522948246861447 0.1743630471581938 0.3729441080798379	-0.471402
F	0.1786948788157669 0.2878906550307242 0.3745835692721779	-0.469448
F	0.3133466354491229 0.2951149179549504 0.3729286356194825	-0.471053
F	0.7029076732375843 0.6877789685013050 0.1268044326126853	-0.470823
F	0.7150490860258801 0.8222087596599170 0.1253729390622443	-0.469058
F	0.8257923186985151 0.7445872648518029 0.1271241850982578	-0.471004
F	0.6776770704420624 0.7848145024466697 0.6247416757029535	-0.468645
F	0.7551068467275517 0.6739489823648269 0.6264977786189636	-0.470987
F	0.8121788081782780 0.7966773787199087 0.6288713619736561	-0.469858
F	0.2035754343895445 0.1873338008436456 0.8709532216893953	-0.470838
F	0.3262424009733051 0.2444311898582285 0.8733328345618655	-0.471972
F	0.2153525685604529 0.3218346943193338 0.8752151554818600	-0.469464
F	0.2466496547287897 0.2522660627792971 0.2647149921695466	-0.463828
F	0.2505061772687768 0.2486426038789334 0.5122867629339933	-0.576705
F	0.7477139093567585 0.7529214250225916 0.2352322840283019	-0.464631
F	0.7515455030281609 0.7493922559004123 -0.0122669468447379	-0.576660
F	0.7455392277837983 0.7511403607137374 0.7353990016104369	-0.462952
F	0.7516299363310924 0.7494303076706371 0.4874422349485179	-0.576986
F	0.2489735149305881 0.2542522400478584 0.7645223690347686	-0.463105
F	0.2505467740536336 0.2482562152746573 0.0125361958913263	-0.576720
Co	0.2498293099929654 0.2497418371871231 0.1311188482764049	0.548008
Co	0.7502756408200607 0.7500169244744096 0.3688702442630113	0.548821
Co	0.7498202205745804 0.7498942621333218 0.8691226280776778	0.548207
Co	0.2501946464854669 0.2501373939609969 0.6308794463311197	0.547988
B	0.2478394299025686 0.2523125415167743 0.3518125634508728	1.065334
B	0.7479685538543996 0.7517753281041312 0.1480781262979021	1.064583
B	0.7478068122323592 0.7516248574166695 0.6483761511299629	1.062667
B	0.2485664243886325 0.2517912913375525 0.8515013230576620	1.065698
	  	
