#======================================================================

# CRYSTAL DATA

#----------------------------------------------------------------------

data_VESTA_phase_1


_pd_phase_name                         BFFIVE_5_Ni_i
_cell_length_a                         19.84994
_cell_length_b                         19.84990
_cell_length_c                         16.43733
_cell_angle_alpha                      90.00057
_cell_angle_beta                       90.00024
_cell_angle_gamma                      89.97889
_symmetry_space_group_name_H-M         P 1
_symmetry_Int_Tables_number            1

loop_
_symmetry_equiv_pos_as_xyz
   x, y, z

loop_
   _atom_site_label
   _atom_site_fract_x
   _atom_site_fract_y
   _atom_site_fract_z
   _atom_site_charge
F	0.2785535237772906 0.1875111807201899 0.3600483718050713	-0.457130
F	0.1843662081261464 0.2592767806807282 0.3593384904144219	-0.460687
F	0.2934736210790425 0.3046148246549972 0.3629559799873034	-0.460285
F	0.6953432100735819 0.7065607643285829 0.1370308116424835	-0.460296
F	0.7406778120711360 0.8156819929077601 0.1406336763286922	-0.460641
F	0.8124589111548864 0.7214933171074779 0.1399979587740738	-0.457255
F	0.6843391230759263 0.7594155971547801 0.6405967193200647	-0.460963
F	0.7784204759052095 0.6875345197786752 0.6399816411437959	-0.457696
F	0.7934890521309281 0.8046050763086918 0.6370498534351472	-0.460346
F	0.1953946623204487 0.2066158592365247 0.8630121990829457	-0.460341
F	0.3124749798139810 0.2215652159114093 0.8600315599299937	-0.457120
F	0.2406982392997497 0.3157357581850179 0.8593996553453206	-0.460755
F	0.2497771007225680 0.2486740913017051 0.4734252008610653	-0.453323
F	0.2501628080797830 0.2500452351906255 0.2135921659817166	-0.581763
F	0.7513389972276080 0.7502304849239320 0.0265622219092609	-0.453187
F	0.7499355304140981 0.7498198674289807 0.2864071161742723	-0.581684
F	0.7497805231830277 0.7486939934997014 0.5265549107622108	-0.453898
F	0.7501621531237828 0.7500509129501400 0.7863988639363468	-0.581725
F	0.2513681330194670 0.2502752828098641 0.9734457676316280	-0.453216
F	0.2499538968178733 0.2498446495744253 0.7135931905507844	-0.581633
N	0.3554157432102810 0.2488816586858672 0.5966377478446820	-0.229328
N	0.1445083328613534 0.2513839059063115 0.5973723071613597	-0.230223
N	0.2510226842059645 0.3553242456161594 0.5968232611010045	-0.229259
N	0.2485726152559763 0.1443982665986302 0.5974300699048578	-0.229867
N	0.6446789727056993 0.7489801576991766 0.9031639835146936	-0.229508
N	0.8556041862023110 0.7514306871757128 0.9025862233682056	-0.230153
N	0.7486148744131543 0.8554926213484773 0.9026349534806946	-0.229955
N	0.7511193223912429 0.6445870001826327 0.9033609341561393	-0.229250
N	0.6445061605076408 0.7513812991457044 0.4026317723059675	-0.230157
N	0.8554144981989766 0.7488817356134166 0.4033663216236003	-0.229344
N	0.7485727057938326 0.6443970985037767 0.4025805639308449	-0.230184
N	0.7510195640854822 0.8553216995935770 0.4031684584084606	-0.229253
N	0.3556077149375854 0.2514283634937900 0.0974138894175440	-0.230098
N	0.1446781250821136 0.2489839464737039 0.0968409678974408	-0.229459
N	0.2511180256135371 0.1445862525316848 0.0966350006950270	-0.229372
N	0.2486225454712236 0.3554933667627182 0.0973689278728636	-0.230055
C	0.3870404117832455 0.2231582386766817 0.6621098030930735	0.099988
C	0.4569208205270550 0.2208331204215132 0.6676964311174233	-0.182013
C	0.4964126453780098 0.2476906990008978 0.6047318987231434	0.101942
C	0.4624347314270978 0.2751033711395858 0.5375326985095633	-0.188320
C	0.3924585373978898 0.2742028070517154 0.5353782360860165	0.097340
C	0.5705959122052122 0.2482221104182907 0.6086687295794211	0.057328
C	0.6067270128770553 0.1923164595692053 0.6378673668182779	-0.132463
C	0.6767971461962398 0.1929489127947724 0.6396079353487590	-0.124912
C	0.7129447619189724 0.2499472395233764 0.6138671438913313	0.067757
C	0.6768058821603158 0.3062507563568946 0.5859941677339182	-0.121342
C	0.6068289962497720 0.3051115457422647 0.5827221501845081	-0.127905
C	0.1131274705844332 0.2768764935578165 0.6631251463622054	0.102877
C	0.0432971511913089 0.2791446297400987 0.6691486195006380	-0.183649
C	0.0035992566469155 0.2523892610091337 0.6062857656533508	0.102337
C	0.0373023872050811 0.2253634247804277 0.5387020776210575	-0.184955
C	0.1072420022064938 0.2264514436506312 0.5361496679299740	0.095560
C	0.9294264188433368 0.2518225008785137 0.6102572619877751	0.054508
C	0.8932326887775114 0.3077830689029928 0.6391466410415800	-0.129297
C	0.8231561096852954 0.3072797465927132 0.6402784101027739	-0.127269
C	0.7871043926879355 0.2503237944160069 0.6142218782909931	0.068115
C	0.8233019153922255 0.1939410644120708 0.5867450681590991	-0.120915
C	0.8932785608670069 0.1949532868646771 0.5840642654269018	-0.128036
C	0.2766102535634262 0.3868817264023997 0.6623907045186846	0.102101
C	0.2789616416667568 0.4567454203702139 0.6680626744467588	-0.182951
C	0.2522383652780248 0.4962845040468506 0.6050482630505887	0.103972
C	0.2249020844084458 0.4623889450851971 0.5377543631182312	-0.188206
C	0.2258497038250481 0.3924401013054313 0.5356124967753610	0.098885
C	0.2517371838006156 0.5704689894111740 0.6089752450416663	0.057297
C	0.3076680334360840 0.6065560221590637 0.6381029839303711	-0.132466
C	0.3070746752546057 0.6766297251987723 0.6397120050790053	-0.125410
C	0.2500799117145802 0.7127993315834971 0.6139250887392538	0.068905
C	0.1937573080212387 0.6767116589319454 0.5861273029103635	-0.120765
C	0.1948566991984022 0.6067452652694710 0.5829932813516135	-0.128791
C	0.2229763897393430 0.1130339610898722 0.6631434939245374	0.102452
C	0.2207227043719295 0.0431825730267836 0.6691412115858789	-0.183675
C	0.2475402051889793 0.0034639258418046 0.6063191248391788	0.100993
C	0.2746214876080340 0.0371745194003465 0.5387865972073729	-0.185180
C	0.2736088560066203 0.1071250667170580 0.5361943761236984	0.094856
C	0.2481426568441857 0.9293006775595112 0.6102680966491630	0.055572
C	0.1922081897385676 0.8931252536000247 0.6391781442008639	-0.130380
C	0.1927383119758914 0.8230493525855265 0.6402936165995144	-0.126966
C	0.2496899863385119 0.7869614671745558 0.6142129337789350	0.067646
C	0.3060519440797106 0.8231493097987730 0.5866927264092773	-0.120280
C	0.3050081694037685 0.8931320024330494 0.5840353593222850	-0.128815
C	0.6131209667256491 0.7233914795848556 0.8375974201923572	0.102298
C	0.5432576926392106 0.7210366397551996 0.8319262323056432	-0.183050
C	0.5037160971656541 0.7477587114003577 0.8949393270414209	0.104293
C	0.5376122682339498 0.7750929763142821 0.9622336741189746	-0.188429
C	0.6075602696639880 0.7741502453708721 0.9643763609294959	0.098992
C	0.4295313175465518 0.7482550094883192 0.8910135121782448	0.057196
C	0.3934435888574278 0.6923255498259594 0.8618871291533283	-0.132335
C	0.3233710928152127 0.6929182416162473 0.8602839897230589	-0.125663
C	0.2872003607203378 0.7499124525733817 0.8860715164391747	0.068804
C	0.3232879464574634 0.8062345355338006 0.9138712691401056	-0.121026
C	0.3932565193342541 0.8051368188155658 0.9169984002253864	-0.128605
C	0.8869679868630869 0.7770296916940007 0.8368733845293724	0.102380
C	0.9568174188517933 0.7792769781601728 0.8308693646036862	-0.183677
C	0.9965358252335841 0.7524550443580564 0.8936877117256027	0.101075
C	0.9628286493083665 0.7253740954032084 0.9612226450004900	-0.185285
C	0.8928770579474272 0.7263914427053213 0.9638185752149923	0.095126
C	0.0706986348267952 0.7518501391457114 0.8897350511538118	0.055554
C	0.1068741034339149 0.8077846787607835 0.8608243978470357	-0.130315
C	0.1769502688166426 0.8072540958280553 0.8597079277097976	-0.127004
C	0.2130376518755652 0.7503019288542735 0.8857860323704250	0.067756
C	0.1768506373421420 0.6939392601366040 0.9133041212488171	-0.120085
C	0.1068681945087237 0.6949841248500033 0.9159637579275269	-0.129009
C	0.7231161114856576 0.8868727097944701 0.8368833188692992	0.102772
C	0.7208464503820424 0.9567019816504478 0.8308576253470046	-0.183598
C	0.7476035512901941 0.9964009849731353 0.8937184894554540	0.102438
C	0.7746317705256346 0.9627029010729684 0.9613023409852731	-0.184798
C	0.7735453442058727 0.8927626778972726 0.9638573574060185	0.097825
C	0.7481714872200071 0.0705742491406561 0.8897441099155631	0.054482
C	0.6922122222464959 0.1067686183184666 0.8608534535947472	-0.129225
C	0.6927176555876574 0.1768442640579013 0.8597204662259740	-0.127361
C	0.7496733234592095 0.2128958161244113 0.8857777524040871	0.068166
C	0.8060544724023297 0.1766978440645738 0.9132543562281575	-0.120824
C	0.8050403151704133 0.1067221335213543 0.9159355287084479	-0.128138
C	0.7768410377390507 0.6129614993936525 0.8378891254786098	0.099913
C	0.7791649568166524 0.5430810867563165 0.8323011570850625	-0.181880
C	0.7523050038234946 0.5035890357193714 0.8952638392697683	0.101880
C	0.7248933362904597 0.5375684703575011 0.9624643638159737	-0.188168
C	0.7257971945220937 0.6075453002368432 0.9646212171659236	0.097218
C	0.7517733600416721 0.4294046457631676 0.8913280597212871	0.057318
C	0.8076796423876341 0.3932737291737956 0.8621285785729277	-0.132531
C	0.8070467728144128 0.3232030089374279 0.8603909173548347	-0.124930
C	0.7500486045475351 0.2870550330399584 0.8861312400280749	0.067697
C	0.6937449067490465 0.3231957717616948 0.9140037262673307	-0.121290
C	0.6948849410049975 0.3931721291669357 0.9172759011736948	-0.127865
C	0.6131265305902579 0.7768729646143513 0.3368778106621061	0.102848
C	0.5432978530102602 0.7791406470895360 0.3308503631836439	-0.183661
C	0.5036000715775399 0.7523865025758926 0.3937104055109412	0.102330
C	0.5372992859396510 0.7253608241698938 0.4612954919446960	-0.184885
C	0.6072392970796200 0.7264503808923207 0.4638531576199091	0.095620
C	0.4294266993550873 0.7518201973434199 0.3897362091379820	0.054586
C	0.3932344652512157 0.8077789752493946 0.3608477285633205	-0.129241
C	0.3231580564553682 0.8072779015531187 0.3597172136162288	-0.127366
C	0.2871044187739640 0.7503239450001318 0.3857729084072073	0.068234
C	0.3233021038823959 0.6939407142243149 0.4132487191220751	-0.120905
C	0.3932785984449001 0.6949506368057389 0.4159277782416637	-0.128065
C	0.8870384566271651 0.7231579412238505 0.3378934308768358	0.099955
C	0.9569181350094746 0.7208329851383890 0.3323068037711452	-0.181916
C	0.9964102433032510 0.7476924414275026 0.3952710434400101	0.101804
C	0.9624334711036313 0.7751042715873253 0.4624720918269503	-0.188200
C	0.8924571706207513 0.7742035391720563 0.4646267567388324	0.097207
C	0.0705952642035768 0.7482251088432053 0.3913329592167702	0.057346
C	0.1067261054694417 0.6923174303727284 0.3621315796034164	-0.132519
C	0.1767961847744910 0.6929500104934584 0.3603899732206314	-0.124876
C	0.2129448429063108 0.7499480465499543 0.3861302707336646	0.067733
C	0.1768069893804870 0.8062529135567844 0.4140039255279599	-0.121368
C	0.1068311539206227 0.8051135628805425 0.4172792635399160	-0.127812
C	0.7229736526605871 0.6130292281869956 0.3368681478915340	0.102454
C	0.7207226804484888 0.5431781400335246 0.3308663472819669	-0.183715
C	0.7475413498210394 0.5034625928450903 0.3936874495224397	0.101100
C	0.7746235496425817 0.5371734087643141 0.4612216883756524	-0.185365
C	0.7736083272002677 0.6071255464874190 0.4638159430616975	0.093048
C	0.7481441733336088 0.4293004919493437 0.3897362529409544	0.055721
C	0.6922085047169637 0.3931253934977302 0.3608249709418657	-0.130481
C	0.6927388927245008 0.3230487567915601 0.3597067462159054	-0.127005
C	0.7496908674677596 0.2869602262091793 0.3857840003284707	0.067711
C	0.8060529159528111 0.3231472229259404 0.4133060033294972	-0.120327
C	0.8050085177701888 0.3931297237284873 0.4159669479021484	-0.128882
C	0.7766072229267645 0.8868779726873078 0.3376027468182627	0.102176
C	0.7789618426427428 0.9567403216355594 0.3319310268350671	-0.183068
C	0.7522375610422443 0.9962836623743044 0.3949419432616669	0.104098
C	0.7249012140587824 0.9623893380972084 0.4622357850169245	-0.188262
C	0.7258464870038266 0.8924411286076049 0.4643788408402566	0.098890
C	0.7517398252850565 0.0704683854656393 0.3910142866402150	0.057269
C	0.8076693253461255 0.1065548262227195 0.3618903712263218	-0.132436
C	0.8070765059031344 0.1766270392715063 0.3602833574909338	-0.125410
C	0.7500808816835492 0.2127985545096134 0.3860699056350035	0.068798
C	0.6937589730343521 0.1767097773028480 0.4138674006011086	-0.120874
C	0.6948582677416001 0.1067427986475757 0.4169975232183340	-0.128786
C	0.3869739534231701 0.2770283343171616 0.1631266818701627	0.102631
C	0.4568220635610643 0.2792771732275266 0.1691283338938482	-0.183782
C	0.4965372516043932 0.2524571470085059 0.1063069444179899	0.101291
C	0.4628292662666872 0.2253748164559783 0.0387697679930220	-0.185305
C	0.3928766957729781 0.2263905380357789 0.0361772184213156	0.095142
C	0.5706988632297745 0.2518490021945048 0.1102588190770474	0.055531
C	0.6068732697193795 0.3077847148544167 0.1391699718332072	-0.130500
C	0.6769489046970846 0.3072545404928707 0.1402892761394012	-0.126859
C	0.7130353843919783 0.2503012840761764 0.1142123093291233	0.067659
C	0.6768502162542923 0.1939376996465002 0.0866911111310413	-0.120044
C	0.6068680402069941 0.1949827864928649 0.0840305496041723	-0.128876
C	0.1131218808797299 0.2233938894328835 0.1624087033896192	0.102304
C	0.0432574746280628 0.2210379902624221 0.1680763918226031	-0.183119
C	0.0037127469040079 0.2477593429081840 0.1050644532117554	0.104511
C	0.0376103759481873 0.2750934106646911 0.0377734926433104	-0.188507
C	0.1075576385314937 0.2741526833644247 0.0356304624806389	0.099008
C	0.9295301498323230 0.2482531754034707 0.1089903886083777	0.057050
C	0.8934416289540331 0.1923243541765238 0.1381136773868873	-0.132295
C	0.8233688150504259 0.1929183661969741 0.1397163938919559	-0.125568
C	0.7871971156530524 0.2499125491554796 0.1139288974382176	0.068837
C	0.8232879271762290 0.3062332012336110 0.0861306360974603	-0.120938
C	0.8932560487450246 0.3051343489648901 0.0830032924072491	-0.128609
C	0.2768409689910276 0.1129622404068336 0.1621075973317473	0.100066
C	0.2791644309255479 0.0430814763218134 0.1676941727183703	-0.182069
C	0.2523041654829867 0.0035891395010462 0.1047302464721560	0.101819
C	0.2248908711592774 0.0375672664858888 0.0375307755826715	-0.188096
C	0.2257950449035420 0.1075438024625950 0.0353758025667501	0.097222
C	0.2517726727962324 0.9294054161877315 0.1086682669124137	0.057433
C	0.3076783815497711 0.8932753390311070 0.1378695543753388	-0.132517
C	0.3070468805279561 0.8232047080347626 0.1396092414479115	-0.124896
C	0.2500495885117651 0.7870549919205347 0.1138705172261474	0.067785
C	0.1937448054825658 0.8231944005038960 0.0859957915146254	-0.121392
C	0.1948850214134351 0.8931715737450708 0.0827217324925068	-0.127849
C	0.2231211699640588 0.3868760124043562 0.1631203102791279	0.102664
C	0.2208494461195141 0.4567065664506040 0.1691411735204242	-0.183561
C	0.2476074634213340 0.4964019641710938 0.1062802936914831	0.102363
C	0.2746354719463742 0.4627006607205153 0.0386992055918769	-0.185062
C	0.2735523497379924 0.3927614675646363 0.0361480437299826	0.095668
C	0.2481739228397530 0.5705741003053741 0.1102555830349104	0.054594
C	0.1922156598190460 0.6067684985356968 0.1391456896916861	-0.129249
C	0.1927188748135581 0.6768451161263231 0.1402808964728096	-0.127487
C	0.2496742627525983 0.7128956040680926 0.1142252071489672	0.068146
C	0.3060560720578996 0.6766976004788604 0.0867477784203129	-0.120784
C	0.3050437523275686 0.6067220735293337 0.0840650461005518	-0.128202
H	0.3539128169446001 0.2065197879998948 0.7112534236383496	0.111693
H	0.4804322589403887 0.2000761935403123 0.7221240574860789	0.112448
H	0.4905284948851211 0.2957849723300209 0.4862898261904495	0.110824
H	0.3646297693779798 0.2938551512403224 0.4832227412680615	0.097210
H	0.5794176497340424 0.1475756225543086 0.6579043418970508	0.099947
H	0.7042382840413458 0.1492035032490474 0.6623574733089501	0.100506
H	0.7040981667221616 0.3505090236461308 0.5645123129814067	0.102048
H	0.5795513125809888 0.3492253357836022 0.5607536925411377	0.102666
H	0.1466259689478136 0.2935814813615444 0.7118135824874976	0.110531
H	0.0199172244337102 0.2998555123335059 0.7237018343213198	0.111254
H	0.0090756403723423 0.2050506167944861 0.4873929347241338	0.110373
H	0.1348587912747505 0.2079553886467298 0.4833243552224018	0.100469
H	0.9205304937486934 0.3525158660035707 0.6592879030766379	0.099897
H	0.7956807587640691 0.3511094257040800 0.6627157150434880	0.101773
H	0.7960786782025002 0.1497470364612621 0.5650237605076659	0.102013
H	0.9206366497716759 0.1508212554152205 0.5623370606667132	0.103390
H	0.2930334809322785 0.3535964891223361 0.7114680090524642	0.111762
H	0.2996022014914930 0.4802192611919837 0.7225520954509325	0.112511
H	0.2043306473819419 0.4905349295327655 0.4864849608414555	0.111293
H	0.2064033474729950 0.3645736382693376 0.4834686444243416	0.096746
H	0.3524109027458014 0.5792212922732268 0.6581429239234191	0.099893
H	0.3508447411132197 0.7040400342152749 0.6623784585499111	0.100746
H	0.1495140593255856 0.7040204569660513 0.5646149359795730	0.102211
H	0.1507346296431581 0.5794837428798345 0.5610904156843657	0.102764
H	0.2061270075842795 0.1464393348813263 0.7119180352755384	0.110389
H	0.1999118701165229 0.0198561204319789 0.7236632966944494	0.110843
H	0.2949942428437910 0.0089270322206707 0.4874987632627801	0.110352
H	0.2923209144747889 0.1346339889064562 0.4833532012703977	0.098097
H	0.1474930174799504 0.9204346665043538 0.6593698724257293	0.100113
H	0.1489328996141640 0.7955829734397095 0.6627651703979989	0.101347
H	0.3502474559223747 0.7958944933750646 0.5649378021906676	0.101781
H	0.3491309417475790 0.9204655395261632 0.5622764003801546	0.103404
H	0.6464062381801633 0.7069704007942298 0.7885173400722090	0.111688
H	0.5197861607915021 0.7003949477339393 0.7774358704015596	0.112470
H	0.5094639839562011 0.7956600104894106 0.0135050861955759	0.111322
H	0.6354236806047655 0.7935970340895125 0.0165195839883813	0.096825
H	0.4207787891394564 0.6475844970495431 0.8418463899564872	0.099903
H	0.2959609197110504 0.6491492709188622 0.8376179347671049	0.100860
H	0.2959792853914229 0.8504793046062331 0.9353837021042892	0.102307
H	0.4205162092356164 0.8492589127724044 0.9389022612919150	0.102737
H	0.8535586285789882 0.7938779150160931 0.7881024196922840	0.110512
H	0.9801409971710471 0.8000852980873205 0.7763472298741569	0.110893
H	0.9910775778951585 0.7049954482851583 0.0125071135949958	0.110294
H	0.8653670239760445 0.7076765509641501 0.0166634887965102	0.098069
H	0.0795650226152866 0.8525030150259036 0.8406332123305198	0.100078
H	0.2044173575526794 0.8510605328920826 0.8372353219308990	0.101339
H	0.2041031551563476 0.6497454213744144 0.9350575096615157	0.101768
H	0.0795327415443300 0.6508626901846130 0.9377202249828805	0.103501
H	0.7064149990732367 0.8533714110741629 0.7881968629464089	0.110591
H	0.7001356798796344 0.9800783087824093 0.7763034633335778	0.111220
H	0.7949451205290573 0.9909333373689139 0.0126108256917898	0.110344
H	0.7920429226976705 0.8651490585404282 0.0166858101273455	0.097398
H	0.6474787799184307 0.0794702229937760 0.8407139987168304	0.099855
H	0.6488894400421481 0.2043184202525688 0.8372848920876973	0.101828
H	0.8502489276948435 0.2039209626194903 0.9349747437116332	0.101971
H	0.8491714215470938 0.0793631561762864 0.9376636006618535	0.103381
H	0.7934793448818889 0.6460894150944561 0.7887468390404054	0.111677
H	0.7999225340391140 0.5195696870236967 0.7778738670420274	0.112457
H	0.7042108399704666 0.5094743069191942 0.0137088137011818	0.110798
H	0.7061416831897119 0.6353732334978739 0.0167778341088470	0.097199
H	0.8524206539941962 0.4205817792663073 0.8420915408777635	0.099951
H	0.8507930898645695 0.2957609415261219 0.8376412082208052	0.100552
H	0.6494871533019702 0.2959038106512900 0.9354883438643967	0.101993
H	0.6507715659953691 0.4204496641323751 0.9392457273678914	0.102655
H	0.6466270821306457 0.7935756087307885 0.2881921738839264	0.110567
H	0.5199195243517701 0.7998502403917713 0.2762966007046449	0.111262
H	0.5090688596687732 0.7050486916447185 0.5126047366018881	0.110284
H	0.6348535550035879 0.7079546073936727 0.5166815722101804	0.100457
H	0.4205322286591544 0.8525117420885028 0.3407080497437726	0.099818
H	0.2956820138567671 0.8511083849456320 0.3372829876491453	0.101735
H	0.2960782842146216 0.6497469175358532 0.4349711209276543	0.101947
H	0.4206366297305622 0.6508204418368422 0.4376556076168340	0.103350
H	0.8539086178211129 0.7065170388854876 0.2887533907196136	0.111708
H	0.9804269674608789 0.7000742759229389 0.2778805402443273	0.112486
H	0.9905289887020978 0.7957863907864675 0.5137176937487131	0.110761
H	0.8646303531607682 0.7938565032286846 0.5167851897850586	0.097282
H	0.0794161992782708 0.6475762260025985 0.3420942835447217	0.099946
H	0.2042365114229409 0.6492034615286901 0.3376386923587993	0.100509
H	0.2040991459416247 0.8505097925656744 0.4354851635134580	0.102041
H	0.0795543355542955 0.8492278209413086 0.4392485272876990	0.102620
H	0.7061243700655391 0.6464383707782212 0.2880952218057663	0.110418
H	0.6999123874639058 0.5198542033598429 0.2763463375465856	0.110852
H	0.7949986519665484 0.5089272964008060 0.5125118920071566	0.110300
H	0.7923225548304506 0.6346376563620788 0.5166594284831711	0.100836
H	0.6474914808615196 0.4204330007626817 0.3406331558352971	0.100143
H	0.6489329950591282 0.2955814064483693 0.3372329234007022	0.101343
H	0.8502489955776078 0.2958937317496846 0.4350584321345710	0.101837
H	0.8491317046690923 0.4204646654624071 0.4377265161455007	0.103435
H	0.7930312904299761 0.8535924687150347 0.2885228754592618	0.111729
H	0.7996047067267164 0.9802131367796725 0.2774396746222355	0.112493
H	0.7043310403354076 0.9905387670888862 0.5135016980788281	0.111270
H	0.7063977677274319 0.8645799236573998 0.5165202499383706	0.096794
H	0.8524117256731794 0.0792186336060190 0.3418510840283077	0.099926
H	0.8508455609599118 0.2040376319218819 0.3376182300153613	0.100743
H	0.6495153563635002 0.2040189357971481 0.4353791661213954	0.102274
H	0.6507353907550213 0.0794818114953073 0.4388990501987879	0.102800
H	0.3535647490438035 0.2938775204573050 0.2118973834131526	0.110340
H	0.4801482254914124 0.3000827411406718 0.2236499855648819	0.110806
H	0.4910770842997027 0.2049961243612461 0.9874835986837379	0.110239
H	0.3653665556545712 0.2076805022975391 0.9833315305696029	0.098050
H	0.5795632691696585 0.3525032292947257 0.1593593554428759	0.100121
H	0.7044164357460897 0.3510612517719524 0.1627614863907041	0.101350
H	0.7041022129761954 0.1497438620636705 0.0649382485056150	0.101707
H	0.5795313651391022 0.1508625937411993 0.0622709844947041	0.103431
H	0.1464050708630895 0.2069712255473506 0.2114888529732641	0.111651
H	0.0197866732521888 0.2003934167739836 0.2225690542274256	0.112478
H	0.0094631116175225 0.2956589074448204 0.9865046999907570	0.111237
H	0.1354207756854613 0.2935985709115160 0.9834916878297744	0.096870
H	0.9207758824635923 0.1475836376815797 0.1581564254584201	0.099925
H	0.7959571877803581 0.1491496794767052 0.1623806853585956	0.100801
H	0.7959771154745958 0.3504777764774369 0.0646172747565020	0.102278
H	0.9205143640581624 0.3492583663961339 0.0611027108826750	0.102650
H	0.2934807706150309 0.1460913998803637 0.2112509736141639	0.111699
H	0.2999221014514396 0.0195713656367454 0.2221228315261777	0.112511
H	0.2042059331279328 0.0094720126516719 0.9862888805143432	0.110753
H	0.2061418510226176 0.1353722557336774 0.9832210905682108	0.097248
H	0.3524190403237041 0.9205837908439171 0.1579063769118515	0.099927
H	0.3507926571743256 0.7957647748059365 0.1623613806191987	0.100538
H	0.1494874798074685 0.7958998620731718 0.0645120119528965	0.101988
H	0.1507692712827791 0.9204460329922212 0.0607510701295548	0.102637
H	0.2064134941485402 0.3533777907695749 0.2118056279844997	0.110595
H	0.2001353805750830 0.4800840213491296 0.2236938898229371	0.111195
H	0.2949459246906029 0.4909284426790738 0.9873891339251365	0.110364
H	0.2920459708514160 0.3651473609555458 0.9833211600453727	0.100464
H	0.1474818489725792 0.5794698363712544 0.1592855532134583	0.099882
H	0.1488888742631024 0.7043196107546806 0.1627161730680451	0.101871
H	0.3502503728661694 0.7039216281287071 0.0650287552058566	0.101952
H	0.3491746036509987 0.5793636944044882 0.0623374245324692	0.103407
Ni	0.2499813266104695 0.2498354242118286 0.5989625718552398	0.716821
Ni	0.7501675762359753 0.7500236400783921 0.9010428736384098	0.716806
Ni	0.7499761863310336 0.7498322335913403 0.4010461915048593	0.716838
Ni	0.2501750120190495 0.2500257537719395 0.0989270100430200	0.716687
B	0.2516370499071983 0.2501272261681650 0.3828473680413675	1.068197
B	0.7498437473473477 0.7483963216812035 0.1171502613101561	1.068640
B	0.7516100960152273 0.7501667280911656 0.6171557164134631	1.069195
B	0.2498849538550309 0.2484531876172127 0.8828667917377613	1.068342
	  	
