#======================================================================

# CRYSTAL DATA

#----------------------------------------------------------------------

data_VESTA_phase_1


_pd_phase_name                         BFFIVE_18_Ni
_cell_length_a                         13.48989
_cell_length_b                         14.46171
_cell_length_c                         8.42784
_cell_angle_alpha                      91.91313
_cell_angle_beta                       87.62584
_cell_angle_gamma                      89.69601
_symmetry_space_group_name_H-M         P 1
_symmetry_Int_Tables_number            1

loop_
_symmetry_equiv_pos_as_xyz
   x, y, z

loop_
   _atom_site_label
   _atom_site_fract_x
   _atom_site_fract_y
   _atom_site_fract_z
   _atom_site_charge
F	0.4601492821386294 0.3849497570583998 0.4368030201421181	-0.437687
F	0.5282697020193931 0.4795593809970962 0.7749214364513505	-0.565581
F	0.4032466170272412 0.5318756105561951 0.5146083866961606	-0.422772
F	0.9603514463532459 0.8848486453051213 0.4378791928384515	-0.438638
F	0.0283976483399073 0.9795677034994777 0.7750506534289897	-0.565686
F	0.9030549915346134 0.0316784796834575 0.5146998888616466	-0.422886
F	0.5718224810074614 0.5071408984937112 0.4472522486885420	-0.418896
F	0.4548601276797890 0.5025229938057322 0.2559965066801251	-0.426920
F	0.0717471536903040 0.0069344929331661 0.4475964654518149	-0.420119
F	0.9548966445572956 0.0015338060980870 0.2563645668297234	-0.428144
C	0.7206289789306412 0.1557516556582982 0.6709644844062312	-0.421139
C	0.7808851626482023 0.1509891573690483 0.8147129012219105	0.202027
C	0.7695629553931018 0.1975023275357184 0.9630307125345392	-0.155609
C	0.6911449446322847 0.2617590557102081 0.0194882258728130	-0.144962
C	0.6738686955238907 0.3538715803348377 0.9740077152050498	0.220010
C	0.7317192541437664 0.4083535783429261 0.8554092270916497	-0.433806
C	0.8745098235737276 0.1973412223662521 0.2167202209888021	-0.422043
C	0.8493046305858462 0.1666091640301864 0.0527699367123019	0.207229
C	0.6180234001533954 0.2444732943376713 0.1374296393122886	0.204750
C	0.5969890698190429 0.1600462220823044 0.2291389746494057	-0.421201
C	0.2203762766301048 0.6555789995105208 0.6709880405590463	-0.420741
C	0.2808611827339519 0.6509579528715398 0.8146619935584030	0.201142
C	0.2696696710694902 0.6976030289526300 0.9628886051558043	-0.155404
C	0.1911095119472662 0.7617891569340814 0.0190107150465794	-0.145291
C	0.1738079876275427 0.8539574273038905 0.9738290501844489	0.220193
C	0.2318677359476690 0.9084129975254833 0.8554768947652972	-0.434195
C	0.3746181378678836 0.6976293891234209 0.2164295090534892	-0.422224
C	0.3494486243170908 0.6667967449224381 0.0526066953021088	0.207643
C	0.1180731171072573 0.7443631326461607 0.1369557324683900	0.205255
C	0.0969729417640074 0.6598456520799754 0.2284517699923072	-0.422935
C	0.2978460881347290 0.1721276485110762 0.3284071471763984	-0.421730
C	0.2363587996941511 0.1553183372999547 0.1876429384132881	0.192816
C	0.2404573325437978 0.1934843061465562 0.0369699238301515	-0.148279
C	0.3089137675422144 0.2642357201600025 0.9817071623673730	-0.149220
C	0.3173943280748871 0.3551459093999867 0.0483739557217722	0.205195
C	0.2527236617163025 0.4006430710236834 0.1763975264005390	-0.419191
C	0.1293268418555994 0.1711839499626432 0.7915011990269784	-0.438658
C	0.1618554322449552 0.1518198108955268 0.9539524061226606	0.219092
C	0.3798674472409832 0.2581638249263933 0.8548225678742341	0.202185
C	0.4099214881585116 0.1800980627192202 0.7426923237848948	-0.425344
C	0.7979437889556548 0.6721323494599262 0.3279905410674763	-0.423247
C	0.7364466173615493 0.6552037933650204 0.1872078762897083	0.192123
C	0.7405112730043635 0.6934901062667745 0.0365725633553552	-0.147905
C	0.8090712775509974 0.7641547852730005 0.9812158798262445	-0.148094
C	0.8175026313780912 0.8550401352388426 0.0479191948395091	0.203531
C	0.7527192722528953 0.9006427710664410 0.1757336379221282	-0.418463
C	0.6293846370156431 0.6709270557612097 0.7909202279824584	-0.437689
C	0.6618096633845044 0.6518978490706893 0.9535915333511837	0.219160
C	0.8799517064129103 0.7581465033133504 0.8541867633660392	0.201946
C	0.9100585471172454 0.6800236047700796 0.7422367063015609	-0.425141
H	0.7648165753252906 0.1795927187993750 0.5677880516802979	0.140626
H	0.6585218980240248 0.2041559539281914 0.6951121009813701	0.136256
H	0.6905383862599631 0.0877062021605244 0.6370609364718354	0.137330
H	0.6822635253006483 0.4359996962911840 0.7677422269469230	0.158227
H	0.7895640668099790 0.3646314923095099 0.7957524156442604	0.128708
H	0.7676400804942793 0.4676298561348136 0.9142252907708761	0.132900
H	0.8971218817659899 0.0548912597909905 0.7367002136437375	0.283553
H	0.8399610297723656 0.1539277242891653 0.3079852829928117	0.129126
H	0.8487009447802993 0.2688165973514774 0.2405309666413651	0.130357
H	0.9548716391521069 0.1940318874637846 0.2310409364047036	0.143487
H	0.5703397995815842 0.1776030145619572 0.3513418205720671	0.138736
H	0.6644277493994549 0.1178549763431238 0.2341432148451583	0.142562
H	0.5402494025415083 0.1171111893715505 0.1728705054222453	0.136525
H	0.5087153670040092 0.3373452677863751 0.2411248858158705	0.266947
H	0.2647045445244275 0.6791526284336443 0.5676753150947332	0.140619
H	0.1581999855410777 0.7039781464736576 0.6951581861307464	0.136584
H	0.1902917631448371 0.5874685164144583 0.6372194068181281	0.136816
H	0.1826436104699470 0.9360610311538556 0.7675596301178760	0.158098
H	0.2897284544443541 0.8645687834228899 0.7961160498269132	0.128825
H	0.2677664394548369 0.9677145349666185 0.9141334261157251	0.133197
H	0.3970040569227769 0.5543647587502737 0.7370187346139719	0.283754
H	0.3398320096015205 0.6544532632586660 0.3077786762265973	0.129201
H	0.3492141266924593 0.7691942894814147 0.2401914788128841	0.130961
H	0.4548592960662178 0.6937080664520479 0.2309577519661036	0.143145
H	0.0701293804867188 0.6775864407496244 0.3505174503540548	0.139559
H	0.1643533422128001 0.6175217659618866 0.2336059184641208	0.143192
H	0.0402301734794190 0.6169680578092569 0.1719222913872792	0.136534
H	0.0086679499799133 0.8372873358476028 0.2408104678353473	0.266673
H	0.2515916476141297 0.1886289111452456 0.4362091249794025	0.141875
H	0.3478881505611506 0.2304129487251003 0.3082501946732889	0.140074
H	0.3430554001716189 0.1110336264856013 0.3525096207735269	0.133040
H	0.2957301749626495 0.4349319099273556 0.2685052782471974	0.138988
H	0.2041338282749706 0.3493130107745284 0.2319046667387700	0.130506
H	0.2052575785472923 0.4533532538321514 0.1257501153154480	0.132949
H	0.1328828143054368 0.0566744294478639 0.2799137954278954	0.274328
H	0.1055296509772828 0.1076115382460175 0.7297053735072010	0.160887
H	0.1895466274147656 0.2039423133427371 0.7225633788297019	0.119915
H	0.0658935278786592 0.2195551620571369 0.7982086851224547	0.139801
H	0.4283053733871104 0.2051641377908082 0.6235013523586874	0.139809
H	0.3499901766028967 0.1295260258740591 0.7336369787170643	0.143969
H	0.4756877362858162 0.1435557212842052 0.7830655822205951	0.133223
H	0.4782224839195115 0.3711788319139309 0.7779642822991643	0.283969
H	0.7516833679721558 0.6885475958911231 0.4358749434168449	0.142462
H	0.8477444202929213 0.7305720286309554 0.3075647722565498	0.140628
H	0.8434893648499197 0.6112371045394288 0.3521479948031777	0.133159
H	0.7954964379712676 0.9353034625008153 0.2677604518806663	0.138698
H	0.7041945324280113 0.8493062033043548 0.2313453826268710	0.130385
H	0.7051463016047599 0.9531001089100345 0.1246155694526885	0.132606
H	0.6329114945090772 0.5568083759943079 0.2799189677203977	0.274362
H	0.6056372372507075 0.6072404795296569 0.7293612985858738	0.160741
H	0.6895897981363449 0.7036137756542321 0.7218906173220146	0.119492
H	0.5660389267770062 0.7193533127148658 0.7969717472508628	0.139543
H	0.9285185013004118 0.7050991943293530 0.6231176453809976	0.139855
H	0.8503163880152460 0.6292387590264189 0.7329984067855408	0.143682
H	0.9758857570587033 0.6436730092012146 0.7828249629562301	0.133165
H	0.9780910672101446 0.8714641325054806 0.7773930718120416	0.284577
N	0.8620715983167985 0.0964825617860036 0.8228789692442940	-0.138739
N	0.5947297313412921 0.3896091193676187 0.0578664192213626	-0.258443
N	0.9040416693650498 0.1044348198607337 0.9651663540675633	-0.238274
N	0.5622261608203791 0.3221495765702935 0.1546085069992822	-0.152489
N	0.3622321289680338 0.5966215663718593 0.8226438447846958	-0.138573
N	0.0947100326234444 0.8896074481843349 0.0578689419265555	-0.258615
N	0.4042605905627240 0.6047320358848249 0.9648983343568363	-0.238687
N	0.0621869036079858 0.8220150513762350 0.1543520902856051	-0.151607
N	0.1604537229931116 0.0945854880623845 0.1874757448023718	-0.153329
N	0.3895880249181750 0.4003245347722013 0.9688511270332837	-0.255033
N	0.1144832874735209 0.0914255196516191 0.0477143670463151	-0.241470
N	0.4249036910992940 0.3410818803171826 0.8521230762794247	-0.150380
N	0.6604507977834425 0.5945672379912911 0.1871686193516716	-0.153640
N	0.8897300381243953 0.9002256720377082 0.9685503746008178	-0.253837
N	0.6144150386520254 0.5915312178281120 0.0474100094068191	-0.241403
N	0.9249349539500308 0.8411165378991395 0.8515723516593178	-0.150932
B	0.4732700538202220 0.4816724230757792 0.4193854128508968	1.036283
B	0.9731823339210949 0.9813844337187958 0.4199179894542278	1.038577
Ni	0.5021623404785086 0.4998947826877184 0.0049403846524334	0.753331
Ni	0.0021781802636997 -0.0001796004791416 0.0047542747473081	0.753614
	  	
