#======================================================================

# CRYSTAL DATA

#----------------------------------------------------------------------

data_VESTA_phase_1


_pd_phase_name                         BFFIVE_4_Co_i
_cell_length_a                         23.18514
_cell_length_b                         20.29504
_cell_length_c                         11.23714
_cell_angle_alpha                      89.99063
_cell_angle_beta                       89.99814
_cell_angle_gamma                      90.00078
_symmetry_space_group_name_H-M         P 1
_symmetry_Int_Tables_number            1

loop_
_symmetry_equiv_pos_as_xyz
   x, y, z

loop_
   _atom_site_label
   _atom_site_fract_x
   _atom_site_fract_y
   _atom_site_fract_z
   _atom_site_charge
C	0.4178387206719261 0.5959594330234106 0.6472688844262946	0.071461
C	0.3741207164980377 0.5497254082444825 0.6446292267171029	-0.178890
C	0.2785168741428231 0.4509491712566224 0.6436908702644502	-0.124273
C	0.2323518358248556 0.4077768248974616 0.6432884392738202	-0.124143
C	0.1309667116897465 0.3182579396587653 0.6438721513750432	-0.184347
C	0.0842949698404567 0.2758634872099096 0.6468455984952920	0.069067
C	0.9178915801690524 0.0958873752391842 0.6469984111907977	0.071421
C	0.8741639269461423 0.0496339423685189 0.6443771747935021	-0.178668
C	0.7785343965280850 0.9508710202308160 0.6435911724274688	-0.124915
C	0.7323599697844231 0.9077081940386368 0.6432386836737553	-0.123287
C	0.6309157937455212 0.8182092538592668 0.6439902841130074	-0.183990
C	0.5842444604972845 0.7758410659068680 0.6470264352441421	0.068228
C	0.5821393005174313 0.4039147700150321 0.1476197589243514	0.071592
C	0.6258613129104875 0.4501349334827733 0.1448194546193814	-0.181106
C	0.7215624753572052 0.5488575028150625 0.1437021154002978	-0.122557
C	0.7677650784106254 0.5919618020323336 0.1432599294310413	-0.123817
C	0.8691921347432475 0.6815202507682002 0.1438260679787590	-0.183958
C	0.9158498635152942 0.7239234009085823 0.1467627678123164	0.070507
C	0.0821669375978525 0.9039840949603626 0.1469224769337713	0.072164
C	0.1258954645985828 0.9502079328892407 0.1443430203159742	-0.180831
C	0.2216098300410126 0.0489058113172615 0.1436086167599555	-0.123156
C	0.2678141107282653 0.0920115045238499 0.1433408845241136	-0.123719
C	0.3692800468759289 0.1815078513693534 0.1443077355520806	-0.183472
C	0.4159125947064733 0.2239372413359582 0.1474658388973498	0.068918
C	0.5821433142678477 0.5958276542839989 0.8532401015879983	0.070174
C	0.6258842787028864 0.5496161384016913 0.8558023050790144	-0.179970
C	0.7215233293808050 0.4508660297435625 0.8565406466243234	-0.124074
C	0.7677303030819659 0.4077485776041960 0.8568582679269215	-0.122813
C	0.8692445436520290 0.3184159323750537 0.8561469406356766	-0.183671
C	0.9158891683408431 0.2759812399137663 0.8531295658478385	0.068596
C	0.0821753373074633 0.0958795000782317 0.8529049103809921	0.071129
C	0.1259153221199593 0.0496548572854609 0.8555299115287029	-0.179651
C	0.2215387327410906 0.9509303310304785 0.8563938222510705	-0.124253
C	0.2677409719427972 0.9078165364546532 0.8568109285154343	-0.123327
C	0.3692263384264677 0.8184228654242133 0.8562523450905775	-0.183699
C	0.4158704577018628 0.7760146041638879 0.8533322460798475	0.069605
C	0.4179079988531911 0.4040615712012903 0.3535309490887460	0.070486
C	0.3741877287816597 0.4502947556050736 0.3559706519528436	-0.179478
C	0.2785033481908286 0.5489413375517969 0.3565375236932177	-0.123213
C	0.2323204903870008 0.5920723882403037 0.3568501999285990	-0.124982
C	0.1309371964147391 0.6816448949555064 0.3561037685231960	-0.184458
C	0.0842836552677655 0.7240240411247416 0.3530957515213674	0.070251
C	0.9179293581200235 0.9039743596503576 0.3528578116744164	0.071878
C	0.8742109733664176 0.9501897291887982 0.3554863191354123	-0.179028
C	0.7785460206761750 0.0488647326704777 0.3564337476418215	-0.123240
C	0.7323708899303627 0.0920054995536780 0.3568930962290424	-0.125057
C	0.6310034485331188 0.1815549815247789 0.3565479164517107	-0.183755
C	0.5843418870950079 0.2239554513151036 0.3537328604520590	0.069972
C	0.5821970727777329 0.4040187583434276 0.3535313866765008	0.070222
C	0.6259196700295067 0.4502507733442798 0.3559871107978632	-0.180539
C	0.7215620100165151 0.5489515327499035 0.3565541405640085	-0.122898
C	0.7677629531615664 0.5920598202413228 0.3568568449700633	-0.123939
C	0.8692171271536263 0.6815317803690421 0.3561063643659897	-0.183861
C	0.9158635271404406 0.7239265088488793 0.3530949350950128	0.069874
C	0.0821441984470396 0.9039582524734345 0.3528687858505741	0.071497
C	0.1258616244467753 0.9501728172405847 0.3555135275211471	-0.180219
C	0.2215298719410750 0.0488562723041607 0.3564507083866815	-0.122709
C	0.2677312330476029 0.0919569800243120 0.3569017725007997	-0.124761
C	0.3691411264255345 0.1814372549895996 0.3565583281474988	-0.183868
C	0.4157958129327304 0.2238559266670256 0.3537343427780251	0.070144
C	0.4178937964546456 0.5958292606339795 0.8532045476701623	0.070426
C	0.3741651452718422 0.5496042014348648 0.8557822134230062	-0.179082
C	0.2785469690041824 0.4508345419177940 0.8565131051209023	-0.124699
C	0.2323783053736766 0.4076660709399436 0.8568419616818722	-0.123352
C	0.1309282568981732 0.3182365214703323 0.8561590833900553	-0.183850
C	0.0842616956291180 0.2758431541770819 0.8531217813425350	0.068920
C	0.9178678830001895 0.0959045228995977 0.8529059199672731	0.071480
C	0.8741381744178366 0.0496585661703265 0.8555355844637650	-0.178701
C	0.7785312536604244 0.9508988536217258 0.8564015609152821	-0.125089
C	0.7323576087720634 0.9077371465601818 0.8568164778757482	-0.123526
C	0.6309364810049599 0.8182313556659865 0.8562717306856255	-0.183323
C	0.5842705392105012 0.7758574335181869 0.8533418831444060	0.068831
C	0.4179306107211209 0.4039149074251775 0.1476118170743018	0.071640
C	0.3742192218725805 0.4501449656949194 0.1448238513812492	-0.180001
C	0.2785058587882973 0.5488420847700952 0.1437011807456637	-0.123022
C	0.2323251595191580 0.5919748599955545 0.1432491092058289	-0.124615
C	0.1309553187336438 0.6816213590288619 0.1438226282213989	-0.183854
C	0.0842908582823254 0.7240069804858609 0.1467694161724676	0.070269
C	0.9179053938877406 0.9039856966686002 0.1468936717488159	0.071777
C	0.8741836991943318 0.9502188598468464 0.1443337574595734	-0.179365
C	0.7784685344011584 0.0489140795600899 0.1435886094498909	-0.122950
C	0.7322829726410952 0.0920537722913046 0.1433076523046042	-0.125317
C	0.6308862171567337 0.1816583622937535 0.1442899735456384	-0.182910
C	0.5842362945058032 0.2240557466730775 0.1474472531383980	0.068507
C	0.5821809819622838 0.5959285003122812 0.6472722642371197	0.070757
C	0.6259081669460917 0.5497061644106183 0.6446390563715050	-0.179588
C	0.7215486593993192 0.4509736874806123 0.6437068528788508	-0.124124
C	0.7677571488706841 0.4078602325501242 0.6432947485436513	-0.123471
C	0.8692174973835839 0.3184381554619714 0.6438711629165713	-0.183760
C	0.9158654425148323 0.2760014865888474 0.6468274914329551	0.068794
C	0.0821492978415571 0.0958573858727066 0.6469775379831079	0.070768
C	0.1258908236634161 0.0496244980899584 0.6443646671622317	-0.179421
C	0.2215382040478481 0.9509012690609945 0.6435765880575153	-0.124147
C	0.2677427046191574 0.9077889455705432 0.6432221607934957	-0.123020
C	0.3692553536194181 0.8183929441435772 0.6439820815950824	-0.183566
C	0.4158977564423849 0.7759824289949626 0.6470063672076910	0.068052
C	0.3498485962617959 0.5237319079897961 0.7501858625582636	0.098028
C	0.3030538075537988 0.4754835975844254 0.7501294948839455	0.044082
C	0.2067727210395083 0.3851288508565570 0.7500506477585046	0.042372
C	0.1569898593825612 0.3411005763639566 0.7500355042520709	0.100170
C	0.8498594813858605 0.0237171187880411 0.7499638039987192	0.097338
C	0.8030475614515949 0.9754660234251169 0.7499783964253769	0.045601
C	0.7067492692290316 0.8851223138258184 0.7500456037750777	0.041239
C	0.6569734953776180 0.8410935538368185 0.7501032230814417	0.100424
C	0.6502056925316653 0.4761101792392868 0.2503140259672155	0.098258
C	0.6970264003514307 0.5243377053384379 0.2501752949136230	0.045224
C	0.7933685911686292 0.6146084692854333 0.2500229811454814	0.043343
C	0.8431457282908462 0.6586450409555613 0.2499987815645930	0.100021
C	0.1502009917322724 0.9761076583540422 0.2499558901208061	0.097489
C	0.1970287347725385 0.0243155368409916 0.2499885148012576	0.045933
C	0.2933631631392836 0.1145716448968558 0.2501801031906737	0.044270
C	0.3431552506311002 0.1586126765219873 0.2503365644624808	0.099505
C	0.6502031497817972 0.5237423526881191 0.7502012013175363	0.097270
C	0.6970106544995309 0.4755101935918071 0.7501517246333614	0.044013
C	0.7933567781874863 0.3852512560159313 0.7500574896490690	0.042073
C	0.8431733540826251 0.3412627515186334 0.7500284404251915	0.100641
C	0.1502064759057531 0.0237312352626925 0.7499551304225195	0.096772
C	0.1970268107587559 0.9754924360675216 0.7499724992038240	0.044842
C	0.2933680850513924 0.8852430575329867 0.7500329867522716	0.041549
C	0.3431773914592186 0.8412553153202997 0.7500840955067373	0.100928
C	0.3498830621090585 0.4761198456251388 0.2503055237223053	0.098706
C	0.3030419059778239 0.5243308748832319 0.2501660567010219	0.046167
C	0.2067255370487956 0.6146378926725335 0.2500120344390366	0.044025
C	0.1569761405289819 0.6587100327761376 0.2499915927523377	0.099500
C	0.8498781685507124 0.9761139896558303 0.2499375976418406	0.098166
C	0.8030452802651958 0.0243218324931633 0.2499678570546873	0.046420
C	0.7067497312392486 0.1146397167157914 0.2501608014359876	0.044363
C	0.6569778228422219 0.1587101785204339 0.2503213312664184	0.098836
H	0.4365544377361716 0.6162715880569520 0.5663595814335786	0.099031
H	0.3590664607381774 0.5348154431695296 0.5573477872192814	0.094711
H	0.2957029076630810 0.4657811351698706 0.5579328029892170	0.080720
H	0.2158774095345075 0.3915343027300059 0.5573679689122312	0.098911
H	0.1469248247909555 0.3330789454841785 0.5567976881393288	0.111301
H	0.0639927893906058 0.2571851142522510 0.5662826754362742	0.097438
H	0.9366643373396205 0.1161797992824133 0.5661160383927381	0.099436
H	0.8591166660620341 0.0346750043104662 0.5571074432765482	0.094586
H	0.7957268354328095 0.9656740724583649 0.5578142618400841	0.081025
H	0.7159013583440330 0.8914231574885023 0.5573295251735516	0.098324
H	0.6468470350382841 0.8330328519235589 0.5568805700655503	0.111550
H	0.5639630250457958 0.7571903449866706 0.5664461013808367	0.097548
H	0.5633665480311375 0.3835697472103860 0.0668071921776044	0.100092
H	0.6408853556182633 0.4650421887006294 0.0574946116207208	0.095110
H	0.7043897052634260 0.5340056080638231 0.0579595111129599	0.080486
H	0.7842538388897189 0.6081934501458491 0.0573209721835995	0.098809
H	0.8532733062512738 0.6666928199693352 0.0567129789747927	0.111378
H	0.9360854950344036 0.7425411104542479 0.0660599418117413	0.097417
H	0.0634476126720927 0.8837220926795634 0.0659924705705007	0.099911
H	0.1409532816271044 0.9651769293255054 0.0570599334500374	0.094720
H	0.2044628929119667 0.0341165946170317 0.0577968566249076	0.080796
H	0.2843341218819297 0.1082934376591690 0.0574542359079469	0.098741
H	0.3534109251680831 0.1667260613791355 0.0571479965853701	0.111823
H	0.4362166328877624 0.2426028321163529 0.0668641999592007	0.097904
H	0.5634167178195872 0.6160947141436083 0.9341495301805324	0.099515
H	0.6409646140972504 0.5346577973353478 0.9430562674346125	0.095021
H	0.7043266304876573 0.4656215036085427 0.9423321315737161	0.080402
H	0.7841899767312109 0.3914098964234117 0.9427496669738347	0.098290
H	0.8533426479856686 0.3332624120782325 0.9432461806319327	0.111230
H	0.9362217804668874 0.2573240852720224 0.9336851105759456	0.097333
H	0.0634293455534032 0.1162190250236056 0.9337449764175672	0.099860
H	0.1410199587276293 0.0347488862101036 0.9428035379700693	0.094580
H	0.2043528582768876 0.9657515031985637 0.9421558186846036	0.080879
H	0.2842114976084798 0.8915491159344611 0.9427340786983562	0.098355
H	0.3533097388514520 0.8333042623378807 0.9433277600431195	0.111482
H	0.4361546736532088 0.7574200913724957 0.9339641691132302	0.096544
H	0.4366727358599577 0.3838688437518321 0.4344907623836448	0.098725
H	0.3591532463384337 0.4653596922183493 0.4431826049379240	0.095014
H	0.2956789635787160 0.5341547149416859 0.4423470134831554	0.080454
H	0.2158374329101423 0.6083626185388744 0.4427521203086671	0.099196
H	0.1468731314786449 0.6668453072626120 0.4431885770259462	0.111525
H	0.0640589599526404 0.7426791176855720 0.4337254341611300	0.097538
H	0.9366908650765446 0.8837532986919954 0.4337471075887083	0.099879
H	0.8592085029373523 0.9651832230595424 0.4427481275189581	0.094128
H	0.7957560192449767 0.0340582740306707 0.4421887931009267	0.080869
H	0.7159128969609135 0.1082644880267851 0.4428309931070382	0.099070
H	0.6469994149344924 0.1667449187514309 0.4435900384994557	0.111490
H	0.5641301966717946 0.2426105608623003 0.4344132626359183	0.097122
H	0.5634760524069148 0.3837440413745608 0.4344687049154427	0.099424
H	0.6410090124685872 0.4652349725465367 0.4431976203259507	0.094852
H	0.7043810480554596 0.5341739562957082 0.4423574410922627	0.080246
H	0.7842365433560814 0.6083574894717493 0.4427609068119766	0.098833
H	0.8533077843158889 0.6667013922631118 0.4431938678945790	0.111324
H	0.9361044445733749 0.7425374427598105 0.4337378625556911	0.097271
H	0.0634153469554035 0.8836706384736336 0.4337468443182663	0.100382
H	0.1409049450648032 0.9651158016480123 0.4427723718981713	0.094404
H	0.2043191485817624 0.0340588693110501 0.4422034465713519	0.080785
H	0.2841863768265723 0.1082159442833538 0.4428397776555861	0.098977
H	0.3531628197735676 0.1665957434366369 0.4435954250358843	0.111724
H	0.4360190699687735 0.2424704143600810 0.4344492480120197	0.096804
H	0.4366512725525081 0.6160363540734877 0.9341376202446283	0.099043
H	0.3591365941674495 0.5345959546303941 0.9430420205666187	0.095102
H	0.2957408653588739 0.4656069335551509 0.9422995524733773	0.080580
H	0.2159266334984293 0.3913301931249515 0.9427439408931607	0.098449
H	0.1468606091515247 0.3330491994141745 0.9432436477552281	0.111206
H	0.0639415688040826 0.2571501941079810 0.9336585055163118	0.097351
H	0.9366274333368372 0.1161991696798040 0.9337753917696563	0.099485
H	0.8590700546853169 0.0347187719800260 0.9428076971126895	0.094598
H	0.7957221785936838 0.9657195024790844 0.9421602890516595	0.081098
H	0.7158996443173857 0.8914681604503676 0.9427451715357916	0.098367
H	0.6468851959687043 0.8330716407220128 0.9433364516924507	0.111178
H	0.5640026644881589 0.7572145993427970 0.9339522198178913	0.097423
H	0.4367086990100453 0.3836046872423431 0.0667775088398030	0.099712
H	0.3592157641926997 0.4650759327452155 0.0575024405761426	0.094960
H	0.2956758719312460 0.5339840370236382 0.0579530760623378	0.080550
H	0.2158282404952560 0.6081964986543802 0.0573124232297113	0.098869
H	0.1468964984300115 0.6668247294867922 0.0567034668424272	0.111004
H	0.0640580555592442 0.7426590314914577 0.0660945639919041	0.097516
H	0.9366516928120863 0.8837740808931562 0.0659494828607313	0.099718
H	0.8591617218232811 0.9652270155513613 0.0570484945747377	0.094528
H	0.7956074335790787 0.0341165019740680 0.0577720747793716	0.080898
H	0.7157572360509395 0.1083378199555583 0.0574300368345425	0.099029
H	0.6467997910293489 0.1669217165724929 0.0571304507599474	0.111178
H	0.5639513798872328 0.2427685269447926 0.0668820793559752	0.098219
H	0.5634780082666798 0.6162743939673401 0.5663923371273366	0.099554
H	0.6409995107200375 0.5348305791316607 0.5573527247226175	0.094684
H	0.7043720158662905 0.4658070988992015 0.5579463889714632	0.080732
H	0.7842494614378223 0.3916267615527222 0.5573743767276784	0.098745
H	0.8532919005902470 0.3332939146291268 0.5567860831492926	0.111232
H	0.9361822744358053 0.2573610639513845 0.5662438798761030	0.097277
H	0.0633956773112778 0.1161928257367245 0.5661229247020538	0.099901
H	0.1409766240058148 0.0346995093707228 0.5570881985275437	0.094821
H	0.2043518807522274 0.9656990516326974 0.5577963090762249	0.080706
H	0.2842150021934879 0.8914993987152826 0.5573233437949605	0.098419
H	0.3533571921073397 0.8332532932775255 0.5568651194248988	0.111443
H	0.4361953483341193 0.7573686129864788 0.5664039125893938	0.097321
Co	0.5000141344252286 0.6871631938306935 0.7502056292678190	0.734524
Co	0.0000294347098010 0.1871719087538761 0.7499513845902255	0.728986
Co	0.5000334601793145 0.3126768479702699 0.2507815431207064	0.728951
Co	0.0000329273668870 0.8126962475198354 0.2498966236264326	0.724950
F	0.5000301470591910 0.6871281315705219 0.5835149211170955	-0.495664
F	0.0000365801955634 0.1872043691025666 0.5829826145413520	-0.500806
F	0.5000339199857760 0.3127374916670517 0.0841233235031499	-0.499983
F	0.0000503405223605 0.8127524258821571 0.0831931607883096	-0.506078
F	0.5000011802345355 0.6871961838917222 0.9169349746317373	-0.496661
F	0.0000214699746408 0.1871753013483238 0.9169190887230935	-0.500579
F	0.5000489635463340 0.3126984224518279 0.4174987342630644	-0.502160
F	0.0000263997000339 0.8127607212363267 0.4164963416379029	-0.505380
F	0.4823956567363021 0.7507063782650146 0.2489883822733705	-0.363243
F	0.5543333820407920 0.6724613722183649 0.2472467025812972	-0.359037
F	0.9819323191397570 0.2509899266528479 0.2504289033821822	-0.363414
F	0.0554058835830217 0.1746936647903846 0.2503474811370754	-0.358869
F	0.5548819313196675 0.2966394701212510 0.7432249983233661	-0.361530
F	0.4853673454113365 0.3777281673655129 0.7441189185308961	-0.358352
F	0.0542821627680654 0.7960083574260639 0.7495412233432949	-0.361891
F	0.9851781388023217 0.8775355641102491 0.7500467718198197	-0.358560
F	0.4590255539375246 0.6404766797051307 0.2490843998102934	-0.358487
F	0.9607193723653357 0.1402122367596146 0.2495236423344688	-0.358074
F	0.4587633380199267 0.2684036959296941 0.7438449288928173	-0.363373
F	0.9579808676536309 0.7684387182747825 0.7506751535089585	-0.363514
N	0.4400327570874739 0.6193548899935499 0.7502495674630221	-0.187997
N	0.5609457630661745 0.7540393965155039 0.7502065713794840	-0.189148
N	0.9400462508267590 0.1193618639062573 0.7499483496557393	-0.187937
N	0.0609656946626161 0.2540386222111769 0.7499709078310391	-0.187847
N	0.5599948883818298 0.3805052952904829 0.2506483230100630	-0.187315
N	0.4391432644787748 0.2457596270583723 0.2506723026271128	-0.188961
N	0.0599728131344544 0.8805099411329749 0.2498924524181509	-0.187326
N	0.9391737290402304 0.7457475429100422 0.2499214722155551	-0.188119
N	0.5599823626305521 0.6193189409190587 0.7502680173142647	-0.187576
N	0.4391524641169629 0.7541308282498108 0.7501947415478006	-0.189143
N	0.0599848940466023 0.1193200370953801 0.7499396560131477	-0.187486
N	0.9391502552233353 0.2541252850102089 0.7499675169053115	-0.187670
N	0.4400755458557288 0.3805087708464626 0.2506400886706446	-0.187308
N	0.5609692184850412 0.2458204899503429 0.2506649170566864	-0.188749
N	0.9400883640943919 0.8805086378117639 0.2498747218656689	-0.187252
N	0.0609378510428705 0.7457950952779809 0.2499289661624175	-0.188102
B	0.4986126371643120 0.6878215553241659 0.2483621155311840	1.086114
B	0.9993628782061156 0.1885314941372986 0.2501695956489191	1.084582
B	0.4996730470202047 0.3143474972743998 0.7435173719586102	1.088492
B	0.9991576666657312 0.8140713276626558 0.7500944790040838	1.089172
	  	
