#======================================================================

# CRYSTAL DATA

#----------------------------------------------------------------------

data_VESTA_phase_1


_pd_phase_name                         BFFIVE_7_Cu
_cell_length_a                         18.94523
_cell_length_b                         18.94304
_cell_length_c                         9.04235
_cell_angle_alpha                      90.23473
_cell_angle_beta                       89.76614
_cell_angle_gamma                      90.01373
_symmetry_space_group_name_H-M         P 1
_symmetry_Int_Tables_number            1

loop_
_symmetry_equiv_pos_as_xyz
   x, y, z

loop_
   _atom_site_label
   _atom_site_fract_x
   _atom_site_fract_y
   _atom_site_fract_z
   _atom_site_charge
C	0.6597540256028983 0.8626011383767798 0.6817611613338939	0.094945
C	0.6094163452262579 0.9160354606773615 0.6846125376635445	-0.177504
C	0.5853183644685866 0.8917376670383113 0.4287827322334830	-0.172161
C	0.6367214445384891 0.8397334648770821 0.4333519444073924	0.089279
C	0.8396143658284601 0.6383124160302714 0.6811123399575492	0.096475
C	0.8899611944720873 0.5849037756081300 0.6842658800066668	-0.176879
C	0.9154246439680495 0.6086185932620709 0.4288705945637760	-0.172666
C	0.8639620343277520 0.6606104197834249 0.4330044788054919	0.089329
C	0.6381711662855202 0.6594704587131515 0.6829618382386989	0.093529
C	0.5847775363651072 0.6090674584629214 0.6862074260903843	-0.176003
C	0.6074808152817626 0.5854281395665381 0.4292291361140527	-0.172811
C	0.6594133419352913 0.6369600547379057 0.4333163104633428	0.088354
C	0.8626260168670692 0.8391219673734353 0.6801327542632261	0.096050
C	0.9161164489242352 0.8894183288472496 0.6829030879430195	-0.175306
C	0.8902814181001366 0.9158906915413336 0.4292266009734914	-0.172227
C	0.8381928572429421 0.8645277504164923 0.4337882908668527	0.091120
C	0.3391352249637757 0.3626287701487634 0.3198420025794678	0.096015
C	0.3894199413416199 0.4161271904565582 0.3170860632525338	-0.175300
C	0.4158631770862390 0.3903202662455331 0.5707893309128199	-0.172295
C	0.3645165468044897 0.3382174130874168 0.5662012013108949	0.091158
C	0.1594850182666765 0.1381440389446162 0.3169778819516947	0.093530
C	0.1090904022612370 0.0847387569828550 0.3137447271583714	-0.175599
C	0.0854575811458308 0.1074557793035328 0.5706930100826471	-0.173105
C	0.1369767967529363 0.1593971390985504 0.5666075738031748	0.088694
C	0.3626105102587849 0.1597520921515019 0.3182318888600120	0.094828
C	0.4160494775175803 0.1094245612753118 0.3154081371949710	-0.177515
C	0.3917470225372334 0.0853093650772276 0.5712229481423586	-0.172343
C	0.3397276036755553 0.1366988670286125 0.5666316706579146	0.089604
C	0.1383010786336395 0.3396021163672172 0.3188441123978279	0.096351
C	0.0848948334801111 0.3899501485594680 0.3157104972143274	-0.176814
C	0.1085871992256812 0.4153968047675120 0.5711117540566601	-0.172693
C	0.1605780344025048 0.3639327348472096 0.5669787681014684	0.089152
C	0.4321319427310647 0.0708887399799079 0.4437446297442904	0.140964
C	0.4875944832120481 0.0176282327316271 0.4402151622323447	-0.121409
C	0.0683677677268372 0.4291033077687241 0.4438696188595026	0.139329
C	0.0128602279796098 0.4823436282322603 0.4401616479377618	-0.120690
C	0.4289760385759156 0.4316232713652254 0.4446120969625264	0.138807
C	0.4820403789406548 0.4873002474065236 0.4413420555609723	-0.120573
C	0.0707297173167306 0.0678494819394810 0.4424894490878419	0.139106
C	0.0173182372096360 0.0124721007472959 0.4388613525705251	-0.120545
C	0.5678715768337133 0.5707162865018868 0.5574465821329398	0.139237
C	0.5124829589374480 0.5173128448462696 0.5611461587410678	-0.120470
C	0.9316160034035312 0.9289851103223049 0.5553838527163344	0.138787
C	0.9873075618599080 0.9820423555796325 0.5586757829912747	-0.120411
C	0.5708814425949875 0.9321238788035325 0.5562743130131652	0.140854
C	0.5176156199291024 0.9875915455551998 0.5598608327631817	-0.121335
C	0.9291140348366701 0.5683677049912865 0.5561175389473005	0.139452
C	0.9823489404805769 0.5128487209426622 0.5598732726901444	-0.120786
H	0.6903257866152291 0.8458685924005991 0.7780382792400874	0.119027
H	0.6004581955448779 0.9454983826336029 0.7869118432120392	0.116222
H	0.5563511470571566 0.8996735750393916 0.3262945679226829	0.116387
H	0.6501411041933044 0.8081568875898841 0.3362788940520158	0.104044
H	0.8086784469378223 0.6554638513519634 0.7774188242951111	0.117541
H	0.8983872319825545 0.5559365287617788 0.7866744889125503	0.116005
H	0.9452686975779026 0.6006115353136315 0.3268482329667411	0.116442
H	0.8515199743881473 0.6921000511129337 0.3357986300220477	0.103628
H	0.6554566919792005 0.6899125711112565 0.7795375108291066	0.119307
H	0.5560451705859669 0.5999605608268731 0.7891518857898778	0.116323
H	0.5990274535350357 0.5565250069150610 0.3263095986996130	0.116927
H	0.6900953198877668 0.6504874451454832 0.3351972970651075	0.103309
H	0.8462122128844478 0.8078936109643302 0.7760683062439173	0.118578
H	0.9459863014299283 0.8975088160136488 0.7844986688980836	0.115724
H	0.8975194174988449 0.9460435338546167 0.3279004497592215	0.116228
H	0.8055881677377096 0.8524483077627217 0.3378672237444479	0.103611
H	0.3079602809821060 0.3462328178121471 0.2238216543151274	0.118575
H	0.3975184014564736 0.4460114551894239 0.2155094078326908	0.115674
H	0.4460314004064573 0.3976015631912426 0.6720940376327434	0.116272
H	0.3525118585473054 0.3056290875997363 0.6621908334946701	0.103454
H	0.1898816131893046 0.1553995575834244 0.2203219390975426	0.119120
H	0.0999705395613150 0.0560050182143859 0.2108040728238748	0.116266
H	0.0565144389066975 0.0989848143293918 0.6735583113583316	0.116842
H	0.1504478764734009 0.1900656009781059 0.6647954870010229	0.103356
H	0.3459012001363868 0.1902874609240421 0.2218811179665918	0.119151
H	0.4455242402505148 0.1004565294933676 0.2131227078712471	0.116194
H	0.3997120756699002 0.0563234599541492 0.6736988489278865	0.116462
H	0.3081638666402761 0.1500669281020891 0.6637513203848542	0.103987
H	0.1554245362752119 0.3087071792384689 0.2224613512392200	0.117580
H	0.0559295482044695 0.3983798038583085 0.2133041756718477	0.115962
H	0.1005378135687788 0.4452503692978121 0.6731182838488956	0.116494
H	0.1920343493246125 0.3515590655843358 0.6642621905597276	0.103609
H	0.5059380369387985 0.0026124181393997 0.3296222577782890	0.101823
H	0.9949053829610303 0.4969309886696165 0.3295452429893193	0.101560
H	0.4964512825224008 0.5058465950824048 0.3308617141301787	0.101469
H	0.0020945553600218 0.9945829378358974 0.3282943951550191	0.101064
H	0.4945914996953829 0.5020980599052909 0.6717294818029559	0.101043
H	0.0058760302939311 0.9964479321500499 0.6691549418929233	0.101463
H	0.5025972032286525 0.0059451254641727 0.6704553976190070	0.101785
H	0.9969405788149355 0.4948752872864125 0.6704854275337249	0.101606
Cu	0.2500591841227682 0.2496619347357776 0.4297902901079882	0.685622
Cu	0.7496544928072254 0.7500607026002486 0.5701886490564586	0.685085
B	0.2496793836721584 0.2508428498051429 0.8677941346067795	1.057559
B	0.7506405407623571 0.7495682779628311 0.1325247431024008	1.057315
F	0.2510745760528510 0.2492170368119861 0.2051681165701473	-0.631401
F	0.2490247543516680 0.2507946195386764 0.7042860121549920	-0.486230
F	0.7491893192738199 0.7510588926495115 0.7947377657132387	-0.630950
F	0.7508258423116292 0.7489553438619692 0.2957946679212251	-0.485373
F	0.1988533770281806 0.2009374844696850 0.9118040720943958	-0.467460
F	0.2322132792286097 0.3200154286517948 0.9115790152243115	-0.468276
F	0.3184769765906702 0.2315917152691730 0.9086067772473024	-0.470036
F	0.7311531464124754 0.8183306853653596 0.0915947025778537	-0.470051
F	0.8198045919035211 0.7322133777384594 0.0882692517889801	-0.468653
F	0.7008432700394286 0.6985789521483982 0.0886783951351146	-0.467807
N	0.3255761938696273 0.1731926612382919 0.4427050934937835	-0.214975
N	0.1748558131433164 0.3265836112380080 0.4432655137096639	-0.216503
N	0.3267317282106881 0.3249619464408119 0.4433017466508473	-0.215929
N	0.1733047188650433 0.1743069359598008 0.4421584308876864	-0.215916
N	0.6743094022069508 0.6732856389896779 0.5577676830462351	-0.215882
N	0.8249570080287386 0.8267414895606683 0.5566759927845436	-0.216202
N	0.6731906104933847 0.8255798697781978 0.5572817317611388	-0.214769
N	0.8266121940236700 0.6748696451359365 0.5566944912313876	-0.216793
	  	
