#======================================================================

# CRYSTAL DATA

#----------------------------------------------------------------------

data_VESTA_phase_1


_pd_phase_name                         BFFIVE_15_Ni_i
_cell_length_a                         30.22292
_cell_length_b                         28.34687
_cell_length_c                         8.44520
_cell_angle_alpha                      89.08827
_cell_angle_beta                       90.90385
_cell_angle_gamma                      90.00238
_symmetry_space_group_name_H-M         P 1
_symmetry_Int_Tables_number            1

loop_
_symmetry_equiv_pos_as_xyz
   x, y, z

loop_
   _atom_site_label
   _atom_site_fract_x
   _atom_site_fract_y
   _atom_site_fract_z
   _atom_site_charge
C	0.9360233808373573 0.1043507408338128 0.8775496719973648	0.094017
C	0.9032317857955514 0.0702633639002196 0.8924844487059859	-0.168891
C	0.7700451536126698 0.9355847838872594 0.9072451995699949	-0.116968
C	0.7361147432867290 0.9027325746893241 0.9073564027054467	-0.117083
C	0.5651202576963318 0.7388071740278599 0.8779566313407156	0.093088
C	0.5990179453082944 0.7716433006441351 0.8928520542489251	-0.172402
C	0.4356950169163623 0.6043005128886403 0.8723252391385186	0.096356
C	0.4029300000031398 0.5701983035759287 0.8862254771459799	-0.168750
C	0.2700582813003318 0.4355730236131426 0.9052043113856535	-0.116186
C	0.2361013426737229 0.4027286402752811 0.9051833547455760	-0.117089
C	0.0650722810961015 0.2392901253651577 0.8723556579826890	0.094865
C	0.0990132714543208 0.2720494702401632 0.8864475300538044	-0.171924
C	0.0639232018445669 0.8961618227446688 0.3718093234621379	0.096316
C	0.0966053024157229 0.9303527394695443 0.3858331371096696	-0.168464
C	0.2296624371750385 0.0649382438087764 0.4047703819286382	-0.117390
C	0.2636502552399909 0.0977478376613296 0.4047066424237000	-0.116669
C	0.4345506125965417 0.2612414195302052 0.3718811958233723	0.093875
C	0.4005777724721276 0.2285291189008911 0.3858766437709182	-0.171358
C	0.5640233047671114 0.3956940318320301 0.3765122548403733	0.095456
C	0.5966655337283218 0.4299586281358166 0.3912775795704337	-0.169388
C	0.7296001823244677 0.5650119545441551 0.4068956743130391	-0.118025
C	0.7636190430394981 0.5977598939841834 0.4069880389972322	-0.116618
C	0.9349497409412996 0.7612153685593985 0.3772906844666034	0.093250
C	0.9010650765456184 0.7283722340667363 0.3919764188927972	-0.171516
C	0.0671453498370004 0.1025139760951748 0.5977461246022568	0.095093
C	0.0998920207990774 0.0681569984751632 0.6008653315408442	-0.170627
C	0.2294208960182736 0.9355074380127431 0.6168182822084335	-0.116563
C	0.2634008557676159 0.9027162460514824 0.6184191859454085	-0.116820
C	0.4306506036785078 0.7424449840515112 0.6023517890203517	0.089034
C	0.3967010315574430 0.7753543505989522 0.6065008633922538	-0.172615
C	0.5655185917174492 0.6007090561647481 0.5980492730394936	0.094695
C	0.5983859451093452 0.5664805240172279 0.6010497880868076	-0.170688
C	0.7293512483139200 0.4354727404746504 0.6169476557668135	-0.116774
C	0.7633226277971571 0.4026755125766490 0.6184908665725762	-0.116765
C	0.9314843968771831 0.2434594337031818 0.6019982014355956	0.088844
C	0.8974022455724899 0.2762128427963155 0.6061732930032409	-0.174474
C	0.9326740996819124 0.9003854014872492 0.1018826273131441	0.091610
C	0.8997965952924751 0.9345151593810417 0.1056517904975645	-0.170043
C	0.7696515374747480 0.0651456370085363 0.1173541877917182	-0.116208
C	0.7356889320813295 0.0979562598977893 0.1166047345179565	-0.116113
C	0.5666567658849239 0.2575010614607247 0.0977238025080393	0.093591
C	0.6007403795307149 0.2246691382546167 0.1010862935132720	-0.174009
C	0.4318416692302225 0.3992669337867616 0.1011570796451078	0.092577
C	0.3991645832109668 0.4336220189478882 0.1048532249813464	-0.170402
C	0.2697466419305750 0.5652583642252833 0.1175692059158971	-0.118031
C	0.2357346450399560 0.5980099477430529 0.1170373100546723	-0.115097
C	0.0683081066510959 0.7594366792123250 0.0979879944085610	0.093018
C	0.1022641220907748 0.7264441362051667 0.1014562519181899	-0.173608
C	0.0677683903155452 0.8981890391988094 0.0973984996613114	0.095539
C	0.1005465728386443 0.9324924819699338 0.1003187064892804	-0.170995
C	0.2296762482266915 0.0649468163504925 0.1158770041152593	-0.116785
C	0.2636507611901697 0.0977222569097591 0.1162566669977273	-0.115416
C	0.4326340692326172 0.2568105439215057 0.0978049264625182	0.092495
C	0.3985473458650183 0.2239965197983547 0.1011127108465723	-0.175356
C	0.5676046789392187 0.3986308006850259 0.1020240125413933	0.092082
C	0.6002995767680165 0.4329911769416896 0.1058732211359726	-0.170325
C	0.7296423328503746 0.5650718963072403 0.1180400195590125	-0.117600
C	0.7636627055345723 0.5978229674741798 0.1185581274993989	-0.116815
C	0.9321352555684567 0.7571982884131125 0.1030691749439435	0.089349
C	0.8981647295377386 0.7242914231066477 0.1072732813278420	-0.173296
C	0.9332284692150524 0.1004264887909498 0.6030706824744203	0.092156
C	0.9003593115082126 0.0662739765691785 0.6070912782746919	-0.170250
C	0.7699982496431274 0.9353070875732032 0.6183938061838921	-0.117312
C	0.7360464020371297 0.9024730375665050 0.6189262957201270	-0.116756
C	0.5687440390432573 0.7418219632966673 0.6037202606671601	0.088802
C	0.6026927570543572 0.7747587492475700 0.6080752464851488	-0.173224
C	0.4338851178917238 0.6000894435076595 0.5979225332568902	0.096031
C	0.4010106785150754 0.5658801330063243 0.6007534821265531	-0.169943
C	0.2700514868835139 0.4352798776347664 0.6163224780278824	-0.116096
C	0.2361028215577294 0.4024787180697963 0.6167538651309287	-0.116196
C	0.0689431453883667 0.2413019992412716 0.5982159444689350	0.092034
C	0.1029738888205368 0.2741808096072177 0.6016033157352929	-0.173921
C	0.9366007281296005 0.8952769210662737 0.3765117229055621	0.094055
C	0.9038959669276212 0.9293140374725057 0.3911955727937940	-0.168443
C	0.7706320161773993 0.0642010501581031 0.4063096159768737	-0.116729
C	0.7366787713553391 0.0970363359134383 0.4051072637580833	-0.116436
C	0.5659710127822847 0.2606612741797227 0.3719983740676051	0.092980
C	0.5999802346523216 0.2278625192161119 0.3860945018117378	-0.172375
C	0.4366460804664555 0.3951655162399643 0.3757771717425805	0.093829
C	0.4040738048926719 0.4293588232500545 0.3904001631840360	-0.168722
C	0.2708690935164276 0.5642886026834260 0.4064585342013118	-0.116968
C	0.2368346651528292 0.5970416468735208 0.4054674752048861	-0.116508
C	0.0655219605872502 0.7601898691297513 0.3722732841326324	0.093318
C	0.0994453986186176 0.7272780952328123 0.3864435979886648	-0.171227
C	0.0645126743533097 0.1034042814877443 0.8723047294878306	0.096501
C	0.0972460564164737 0.0691477680888308 0.8865381557246408	-0.170296
C	0.2303871925314948 0.9348901708221919 0.9057638273975259	-0.118745
C	0.2643752352327023 0.9020776954874981 0.9069445929171460	-0.117303
C	0.4354845896790751 0.7382690072035801 0.8767455790840997	0.093193
C	0.4016548272208820 0.7710325658320911 0.8913694624685685	-0.169405
C	0.5649045920323722 0.6037533263284512 0.8726157786947633	0.095827
C	0.5976999664146241 0.5695679989520633 0.8867417466617881	-0.170692
C	0.7303342593471093 0.4347874679884135 0.9059131789818199	-0.119767
C	0.7642941063816751 0.4019501185248260 0.9069750135553089	-0.116582
C	0.9354885243473198 0.2383182032517156 0.8763527931681919	0.091195
C	0.9015747569504079 0.2709765857053159 0.8910554685044159	-0.169075
C	0.6535097900006224 0.8237386429348770 0.7629395299387608	-0.104114
C	0.8845225211474451 0.0505536277520969 0.7547588558960040	0.161036
C	0.8215306932630956 0.9864271344750704 0.7623541467361090	-0.101307
C	0.6187508748657405 0.7904616126389800 0.7556273624847768	0.167085
C	0.7874004114109303 0.9524607246976337 0.7627211202684225	0.128052
C	0.7184359421229741 0.8856739145500643 0.7633244212556087	0.138308
C	0.6836634547308706 0.8524013454233501 0.7633922224268753	-0.103895
C	0.8508176656154587 0.0161063869286059 0.7618111068451269	-0.106595
C	0.1536296583635533 0.3236851030966721 0.7565655010726717	-0.106242
C	0.3846889405998247 0.5503339333611004 0.7479902844070081	0.160671
C	0.3216356030801627 0.4863232494273639 0.7592984882225503	-0.100586
C	0.1188856981588708 0.2903928904609618 0.7487724269524305	0.168362
C	0.2874504317062679 0.4524214425806929 0.7606775539982412	0.127748
C	0.2184758945023902 0.3856812416103493 0.7610849569380359	0.136886
C	0.1837352676352152 0.3523839990757890 0.7601339933432467	-0.101109
C	0.3509703668032109 0.5159144581147805 0.7555471724536416	-0.106113
C	0.3465457233961792 0.1761523166761870 0.2557938644327352	-0.104858
C	0.1156483578282443 0.9493492699487299 0.2476350188227021	0.161561
C	0.1782041598779623 0.0139127256803190 0.2590311828641281	-0.101316
C	0.3815092851053563 0.2091810697192851 0.2481314958813249	0.168843
C	0.2122985037572315 0.0479223495668863 0.2602762525011953	0.127838
C	0.2813305272360159 0.1146013929227046 0.2606094564188533	0.137792
C	0.3162354772411181 0.1477155639189475 0.2596806400041456	-0.102321
C	0.1490949064837264 0.9840711108612273 0.2551581030387715	-0.107450
C	0.8466820275494505 0.6760890315633690 0.2618252695767985	-0.103414
C	0.6155536606995818 0.4494201819057314 0.2534973332034337	0.161667
C	0.6781005096936054 0.5140425539460730 0.2619210999406963	-0.102170
C	0.8816101678707439 0.7091761433472630 0.2546317189361341	0.167230
C	0.7122188412772623 0.5480355424880309 0.2623876912714798	0.127824
C	0.7813550136637409 0.6146335041009343 0.2630090188386427	0.139607
C	0.8163186696049335 0.6476824920142128 0.2631078901241644	-0.105042
C	0.6489839243560819 0.4841827280767693 0.2606345997623800	-0.107302
C	0.3465490047262748 0.8236600080132048 0.7616247740855833	-0.101549
C	0.1156741600805599 0.0507013861365064 0.7483613597734069	0.163109
C	0.1783786040903935 0.9861963160138728 0.7586304966508415	-0.101625
C	0.3812965135534061 0.7904217989320220 0.7539807199736901	0.164813
C	0.2125129404874371 0.9522084056977876 0.7606009096709897	0.127422
C	0.2815567990272156 0.8854941757922750 0.7634339807786286	0.139885
C	0.3163718876817535 0.8522621891932886 0.7637726376632619	-0.105881
C	0.1491992051468911 0.0159855086152746 0.7558824787041789	-0.107908
C	0.8465697221710434 0.3237197526372433 0.7614083275227266	-0.103079
C	0.6153159541474640 0.5502732011795608 0.7485153115358794	0.162485
C	0.6782933274999206 0.4860858405271295 0.7588579839807911	-0.100241
C	0.8814686749862373 0.2906757610166434 0.7536471307484960	0.167107
C	0.7124566987914744 0.4521422434875510 0.7607858869234344	0.128083
C	0.7814700234648525 0.3854132207211707 0.7634339851823950	0.138968
C	0.8163205177582330 0.3522241945050332 0.7637429186082767	-0.104990
C	0.6490233971969643 0.5157764439479093 0.7559381125469767	-0.107162
C	0.6533778830282099 0.1760674856638177 0.2557556313377775	-0.105093
C	0.8846132477291017 0.9496152832687206 0.2533378472506306	0.161266
C	0.8216909189856477 0.0137161568923283 0.2625962979890951	-0.103723
C	0.6184111115487321 0.2091445754904082 0.2482960658022524	0.168349
C	0.7875292479349197 0.0476509437060966 0.2623938325585727	0.128569
C	0.7185284941345663 0.1143976425321606 0.2603940884614832	0.136982
C	0.6836704992275970 0.1475668645106362 0.2588307902228344	-0.102288
C	0.8509549783822709 0.9840500503722522 0.2607426985839025	-0.104275
C	0.1535190169500754 0.6761982448861350 0.2562767796171288	-0.105012
C	0.3845431038235332 0.4493876771528463 0.2524936206615542	0.160241
C	0.3219049140396217 0.5138252565770831 0.2623174359519574	-0.104073
C	0.1187428481808815 0.7095253795348826 0.2487083224816282	0.167934
C	0.2877293260097257 0.5477678860740096 0.2624505439121871	0.128672
C	0.2185831819038989 0.6144017078895220 0.2609036923325877	0.137297
C	0.1837075421404246 0.6475668616809857 0.2594515567467957	-0.102313
C	0.3510833715010075 0.4840556339628334 0.2599137431974134	-0.104848
H	0.9519201956919888 0.1209059919486902 -0.0203216153853072	0.113705
H	0.8922168225666145 0.0590265582361580 0.0093637346160738	0.120188
H	0.7837009758604178 0.9487602634831706 0.0182916437066983	0.107060
H	0.7226742347199000 0.8897206164320222 0.0186917791463080	0.114523
H	0.5488545101809773 0.7227322050842450 -0.0198660702830559	0.112943
H	0.6101980124827280 0.7825234469833866 0.0098394337214200	0.122975
H	0.4514176346722267 0.6210712582777330 -0.0255494919047533	0.114571
H	0.3915321098597502 0.5589883596516271 0.0026361282071902	0.120051
H	0.2836426253726064 0.4487064963869027 0.0164624168675325	0.107078
H	0.2226216823552748 0.3897136962736126 0.0164627717063358	0.114606
H	0.0486051359485796 0.2233907765619682 -0.0255544839193405	0.113632
H	0.1101484827269317 0.2832852716660391 0.0030942126895357	0.122406
H	0.0479291191539757 0.8796944382994291 0.4739348749111931	0.115224
H	0.1073751802392317 0.9422483999916265 0.5022609529133246	0.119724
H	0.2160349184613232 0.0519182934805414 0.5159615875384210	0.107162
H	0.2771332088294280 0.1108432319939811 0.5160067687821303	0.114669
H	0.4507612522904809 0.2775085985928070 0.4740043352666143	0.113781
H	0.3888317956001153 0.2180622922459362 0.5023963129625956	0.122399
H	0.5482754752592204 0.3790284363554431 0.4787573741471658	0.113648
H	0.6074704346702186 0.4414585023541348 0.5081140951847103	0.119978
H	0.7159441971275784 0.5519730365909110 0.5179756197321481	0.107559
H	0.7771212446672596 0.6108222430006071 0.5182728973080414	0.114563
H	0.9512342445577696 0.7773112035464947 0.4795449077074842	0.112332
H	0.8897229974141122 0.7177472618338692 0.5089096826401494	0.122560
H	0.0545275641080119 0.1171039976263624 0.4857442142570375	0.096279
H	0.1132195978343848 0.0550076914371628 0.4908869649254381	0.116535
H	0.2153852451052542 0.9487716422621408 0.5050280405224288	0.106680
H	0.2765340889827969 0.8898739685701540 0.5077340034647869	0.115029
H	0.4429284244962129 0.7299013795745847 0.4899428026999912	0.096503
H	0.3820642398915119 0.7892914549023641 0.4968752659362262	0.120774
H	0.5514272211042895 0.6137465506378140 0.4861699177574519	0.096914
H	0.6109135310429548 0.5523768525882091 0.4912017321303055	0.117480
H	0.7153359159716780 0.4487551617038991 0.5051426905522615	0.107151
H	0.7764595701363008 0.3898380150510617 0.5078115244997704	0.115090
H	0.9444642246965851 0.2317458615400136 0.4895444950128421	0.096495
H	0.8831647679109222 0.2905167069378103 0.4964076916616871	0.121056
H	0.9452531369426914 0.8881426485285366 0.9894905869576138	0.097940
H	0.8859557245310968 0.9493765398124452 0.9959209841574288	0.114708
H	0.7829063211397478 0.0524702263784060 0.0064873012611048	0.107069
H	0.7218032731070549 0.1114312073603078 0.0049971421829444	0.114342
H	0.5522006701155346 0.2699310569415223 0.9856798763620491	0.095028
H	0.6136945420889242 0.2111190608928420 0.9912360225237091	0.122460
H	0.4436099587017313 0.3861455827248571 0.9887460191421222	0.097378
H	0.3850128270883986 0.4481115013179452 0.9950847131448834	0.114522
H	0.2829735044263044 0.5526343850403086 0.0065572486888128	0.107609
H	0.2217918130099917 0.6114670211249176 0.0055025548950752	0.114116
H	0.0553635794863560 0.7735615720274964 0.9858186806893835	0.095112
H	0.1160923208377005 0.7139685615862915 0.9915102572298957	0.121963
H	0.0556050588781059 0.8840720745173806 0.9856029613930006	0.097286
H	0.1144054516473916 0.9460963740600870 0.9904176349552749	0.116077
H	0.2160183353951371 0.0519415497410357 0.0045584763485832	0.107282
H	0.2771600228324490 0.1108217714768179 0.0051096919054357	0.114427
H	0.4466331783222504 0.2686916263890285 0.9859082261337340	0.095594
H	0.3851155697158132 0.2099239889709326 0.9912828617117627	0.122074
H	0.5554173228357948 0.3850078835201940 0.9895718172144086	0.097479
H	0.6140046783064277 0.4469961261907475 0.9962496660116381	0.115527
H	0.7160171288374345 0.5520953515273251 0.0066182027863799	0.107189
H	0.7771959694703399 0.6109154348821267 0.0074496148431729	0.114571
H	0.9455080851506728 0.7693823254361071 0.9905553457154364	0.095932
H	0.8844271715053996 0.7103987695757613 0.9976159373066797	0.120974
H	0.9462700135183102 0.1131182528269090 0.4906608870232073	0.097413
H	0.8870451385972358 0.0518367069960177 0.4974619140115050	0.116145
H	0.7835900735198683 0.9482355146386642 0.5070302132072844	0.107142
H	0.7225358096425890 0.8892711981307710 0.5077951319019997	0.114598
H	0.5560045439578815 0.7288136770227204 0.4911932454166945	0.096203
H	0.6168626179898249 0.7881783394932391 0.4985755123291731	0.121648
H	0.4474982052233899 0.6126946141848834 0.4862437425895954	0.096641
H	0.3880294977319306 0.5512706937176479 0.4909317151061121	0.115763
H	0.2836834890698189 0.4482076451220978 0.5050089617110375	0.107626
H	0.2225931548032686 0.3892713943411958 0.5056546050892641	0.114294
H	0.0563615580724473 0.2276828002700291 0.4862893634745351	0.095698
H	0.1172621628401831 0.2871285827795683 0.4917194727572701	0.121759
H	0.9528193305766914 0.8782600774888358 0.4789190044584803	0.113411
H	0.8933683446737972 0.9400324122644368 0.5080640366128246	0.121066
H	0.7846121565362698 0.0508233879967277 0.5180128379899196	0.106717
H	0.7235477345377462 0.1097785212165515 0.5159497289378918	0.114086
H	0.5502932709317409 0.2766099980670443 0.4739851098443258	0.114522
H	0.6122789285813989 0.2168751319438979 0.5027407152510034	0.121909
H	0.4528832126050658 0.3781766279917194 0.4782038211547107	0.113367
H	0.3938257604258560 0.4403473242861319 0.5072653590446631	0.121374
H	0.2849349918778233 0.5509518499620697 0.5180730577899835	0.106444
H	0.2237437480530095 0.6097310342039658 0.5164177354367120	0.114432
H	0.0494097415938342 0.7756172650566204 0.4743034300669393	0.113869
H	0.1110295245761125 0.7154907878270103 0.5031639422374732	0.121471
H	0.0488666918374725 0.1194151962302236 -0.0257456900659663	0.114977
H	0.1085183599747147 0.0568037678871804 0.0031580915300576	0.119125
H	0.2171247170717533 0.9477047511448511 0.0164633794833664	0.108040
H	0.2782193590779265 0.8887422117359887 0.0187789479927760	0.115217
H	0.4522029940906158 0.7218371806114267 -0.0208325764597034	0.112535
H	0.3910081126728063 0.7814330281430634 0.0082855362042988	0.122842
H	0.5496709890788614 0.6202106348069958 -0.0254197278176870	0.114696
H	0.6096212555695634 0.5578883636172066 0.0032856248160065	0.119392
H	0.7171166504115103 0.4475552041741214 0.0167351544167077	0.108999
H	0.7781571094058014 0.3885455178029882 0.0186859030067580	0.114666
H	0.9521722486320774 0.2218303607749070 -0.0212577896199674	0.113452
H	0.8907121963446046 0.2810910999219202 0.0080292823345401	0.122405
Ni	0.4999936779263486 0.6721388571640206 0.7351272838926672	0.718872
Ni	0.0000049211872578 0.1722290218787354 0.7348093642293242	0.719008
Ni	0.4999955541034414 0.3277051364235610 0.2345102254074946	0.718893
Ni	-0.0000523874001765 0.8278787489995030 0.2345505956058128	0.718588
B	0.4992486859347411 0.6737896566935759 0.3079734756030928	1.052657
B	-0.0014274423994936 0.1727743322783776 0.3076241313900969	1.051265
B	0.4992278853222689 0.3290333575541821 0.8073331648481906	1.053577
B	-0.0016464763212675 0.8287881188189666 0.8070024637924347	1.054078
F	0.4991402691910104 0.6258053183555642 0.2709763465219853	-0.448289
F	0.9752912648367068 0.2129973164969424 0.2556093183891808	-0.446164
F	0.9782630357042138 0.1305664530875673 0.2625589734173205	-0.443446
F	0.4980531554351414 0.2810819078495373 0.7701007676000554	-0.450778
F	0.9751251369573141 0.7883620346255938 0.7609995030764879	-0.445061
F	0.9778003151375527 0.8708075140842430 0.7562866166676571	-0.445806
F	0.5380546234273699 0.6969398338275923 0.2620020394589778	-0.445370
F	0.0436398260319059 0.1744623730613322 0.2707363133330030	-0.450156
F	0.4612461719667890 0.3534896669764667 0.7555563769026700	-0.446085
F	0.4606625875466908 0.6972563112253601 0.2569461680230780	-0.446529
F	0.5385802579621394 0.3512760897082168 0.7619435645341666	-0.445059
F	0.0433735594095290 0.8271510755405604 0.7698669357644150	-0.450198
F	0.4990761186303725 0.6754306537788693 0.4844092096587141	-0.446927
F	-0.0029799490519997 0.1733437446180077 0.4841062006113754	-0.445770
F	0.4988809179987250 0.3306502989276849 -0.0162420527340188	-0.445910
F	-0.0029856894554447 0.8289425857631098 -0.0165397652966917	-0.447352
F	0.5008056534630694 0.6701245128210080 0.9611082219363372	-0.569165
F	0.0019277827409284 0.1714326047238116 0.9607648534459788	-0.569205
F	0.5008929986040276 0.3257076182178947 0.4605108747028682	-0.569225
F	0.0017794978981140 0.8269034646488481 0.4606212765003297	-0.569509
N	0.5501312108078714 0.7240316610700640 0.7357336107458521	-0.227227
N	0.9507318937511260 0.1193681328693602 0.7352986366148002	-0.225554
N	0.0501462030049749 0.2240937197584450 0.7305814075365162	-0.227127
N	0.4508421777528425 0.6192240172500139 0.7305904178989792	-0.226080
N	0.4502754470574435 0.2754317277514793 0.2302025117112088	-0.225902
N	0.0496208187320183 0.8803226358218708 0.2300410046584108	-0.225393
N	0.9502132065874270 0.7756321109495499 0.2351579008151118	-0.226575
N	0.5496292621477078 0.3802525257474342 0.2343476699632643	-0.226814
N	0.4498333479038253 0.7240845764324348 0.7346079063555686	-0.226902
N	0.0496124335882102 0.1198591647717969 0.7303777420502937	-0.224684
N	0.9502017160492191 0.2245570353601880 0.7342213236171361	-0.226470
N	0.5491244679814685 0.6192643879595205 0.7307092790919033	-0.224966
N	0.5496006693516650 0.2754856524681317 0.2301647150592193	-0.226893
N	0.9507337821959612 0.8808784905748839 0.2343080545194820	-0.224734
N	0.0500806574859953 0.7760996007627490 0.2303943940758928	-0.226687
N	0.4503754975628479 0.3802996079375706 0.2336283293365866	-0.224610
	  	
