#======================================================================

# CRYSTAL DATA

#----------------------------------------------------------------------

data_VESTA_phase_1


_pd_phase_name                         BFFIVE_14_Fe_i
_cell_length_a                         13.34838
_cell_length_b                         13.34466
_cell_length_c                         8.42880
_cell_angle_alpha                      89.37698
_cell_angle_beta                       89.30726
_cell_angle_gamma                      89.17610
_symmetry_space_group_name_H-M         P 1
_symmetry_Int_Tables_number            1

loop_
_symmetry_equiv_pos_as_xyz
   x, y, z

loop_
   _atom_site_label
   _atom_site_fract_x
   _atom_site_fract_y
   _atom_site_fract_z
   _atom_site_charge
C	0.5718798141412118 0.2642395438598106 0.3583714284610512	-0.190430
C	0.4680404159561005 0.2674737145822467 0.3581849299239219	0.103283
C	0.9423664808633748 0.2836220063898050 0.4142282394220702	-0.181101
C	0.0456779301872361 0.2765369920863170 0.3958426242119613	0.101807
C	0.2627976668700453 0.5717537960443460 0.3602304200654154	-0.191433
C	0.2658608980937711 0.4678534697239888 0.3603451784554953	0.103767
C	0.2911984808167908 0.9420683700208832 0.4103005446291380	-0.182007
C	0.2832000328291365 0.0454011003146978 0.3929242981928950	0.103533
C	0.9277014633185565 0.2381732987598268 0.1387050527759961	-0.191755
C	0.0313733784551386 0.2345497554488957 0.1300266834466733	0.102139
C	0.5661292389395520 0.2100689163313713 0.0860337021282148	-0.179228
C	0.4625263009582605 0.2176177244743988 0.0950664129667794	0.099120
C	0.2112428621524143 0.5657060641704332 0.0866736029609007	-0.181568
C	0.2188544781311123 0.4621353705450174 0.0959125542742294	0.098813
C	0.2353630015973128 0.9274709446399118 0.1398377565891159	-0.192857
C	0.2312852465860841 0.0311769226143460 0.1317932999819978	0.102751
C	0.4275594668409352 0.7394060965113964 0.6403984847364405	-0.189714
C	0.5311603558310445 0.7364464605916544 0.6311800192881494	0.093144
C	0.0659561236617813 0.7288975479318304 0.5782129673158242	-0.175405
C	0.9623057360350377 0.7332064310678701 0.5886996234317091	0.090732
C	0.7396493263755745 0.4273782431926392 0.6394932459556540	-0.187782
C	0.7370414279223887 0.5310316659118252 0.6303459545482175	0.095440
C	0.7172778770360385 0.0658053013094998 0.5819796240446347	-0.173193
C	0.7233280347610702 0.9621493135403816 0.5915452555639538	0.089305
C	0.0712211681387762 0.7597057315303894 0.8598647168283275	-0.187890
C	0.9673781936304998 0.7611138816699630 0.8603610245205567	0.097185
C	0.4426409350895781 0.7755133123526197 0.9193907749841667	-0.175499
C	0.5459994712697731 0.7704328979568000 0.8999367131121714	0.096847
C	0.7763503224897155 0.4424068277942731 0.9182753450960802	-0.176554
C	0.7711507656579483 0.5457700044631708 0.8990342553771318	0.096891
C	0.7628075227175429 0.0713061315367211 0.8582809453549728	-0.186423
C	0.7653587512407954 0.9674399178542342 0.8582634259347010	0.096783
C	0.6227776278447887 0.2357197284405798 0.2182690830439872	0.194165
C	0.8815001206657604 0.2627961730947146 0.2844319447543233	0.195718
C	0.2357215282951893 0.6224464650486091 0.2194278849064883	0.196559
C	0.2655729066928885 0.8812593925097243 0.2826909397436858	0.196003
C	0.3814975416707583 0.7594147110749682 0.7881692150974374	0.199510
C	0.1224247481532582 0.7434049138927079 0.7150352104583808	0.198798
C	0.7596595620694740 0.3813270101580746 0.7870774016870418	0.198776
C	0.7386725005093914 0.1223570546341115 0.7162923600930855	0.197540
H	0.6131830447691635 0.2801599397082967 0.4656644146527820	0.107677
H	0.4242359747496973 0.2859744256754178 0.4642588342266989	0.105356
H	0.9086560884261822 0.3036257715262806 0.5280126788057292	0.124662
H	0.0965943583540741 0.2893700998752130 0.4936193077746927	0.108550
H	0.2775417484170582 0.6134129680228414 0.4676715942577246	0.110087
H	0.2831500638242825 0.4241434562196523 0.4669417322197590	0.105882
H	0.3157017322109956 0.9082133685297129 0.5215912774297941	0.124953
H	0.2993797600114493 0.0963011309401925 0.4894302889455984	0.107272
H	0.8826849896103910 0.2255820994978950 0.0339847451385920	0.102960
H	0.0699405996343728 0.2165960142828136 0.0188580814882577	0.092786
H	0.6033994812468666 0.1857200662092846 0.9772971286503821	0.121137
H	0.4167248216170341 0.2005605412627190 0.9930035735276730	0.095742
H	0.1881242478066361 0.6029022786572846 0.9773110217964812	0.122377
H	0.2031915008961103 0.4162451211346983 0.9933308459182426	0.095753
H	0.2189573134504161 0.8823557190744520 0.0366818049587092	0.105422
H	0.2092078376181163 0.0698686930818864 0.0227462633328454	0.093097
H	0.3825992036747618 0.7289901197506280 0.5349430677392611	0.103303
H	0.5696171606759871 0.7213230509428903 0.5189501627694217	0.098337
H	0.1036119216675362 0.7152628338911339 0.4652033536534129	0.126222
H	0.9166986568535233 0.7232931244839610 0.4839810405384866	0.100644
H	0.7294932299173931 0.3822315468349375 0.5340953594502286	0.104023
H	0.7221957905322187 0.5695378304900069 0.5181587134482231	0.098008
H	0.6970249883699294 0.1034052950016972 0.4715886828512814	0.126571
H	0.7088634155205137 0.9163695909573115 0.4883868325699403	0.101273
H	0.1121928034840903 0.7683436705647965 0.9698195033811197	0.108536
H	0.9234588614864374 0.7710046320377649 0.9692909677813727	0.111980
H	0.4091434768683029 0.7911206140573193 0.0350199694875132	0.129422
H	0.5970471962492497 0.7810158841866941 -0.0016842567466733	0.113967
H	0.7921412787576072 0.4088650843412363 0.0337268077042645	0.130535
H	0.7816412954785623 0.5968215745774669 -0.0024784369131781	0.113202
H	0.7763025271355486 0.1124424003665678 0.9667110023293632	0.109803
H	0.7809746990710156 0.9235558600462700 0.9653857233930314	0.112544
N	0.7771941167991391 0.2714625054490702 0.3063260977883391	-0.132243
N	0.2753577945049938 0.7768413215467368 0.3032967603475548	-0.132852
N	0.7271809342436396 0.2269674504723913 0.2008909433663361	-0.133837
N	0.2266858871898147 0.7268668437196437 0.2026901968933633	-0.131699
N	0.2266866318386681 0.7369613425271151 0.6951674930625130	-0.127269
N	0.7308137693368766 0.2267354828297587 0.6977433150725221	-0.126434
N	0.2772626138878433 0.7667528619664939 0.8125847375299973	-0.127290
N	0.7673105274106082 0.2770503662838472 0.8104499536967852	-0.124879
N	0.4135223803832386 0.2462913506104122 0.2284747129320453	-0.257995
N	0.0901268835591484 0.2528004486076020 0.2558691376152523	-0.256970
N	0.2460562990409466 0.4132508108889527 0.2300736545322916	-0.256754
N	0.2542033865469732 0.0898457912862823 0.2556640039408842	-0.254176
N	0.5901950678396284 0.7517697864819177 0.7578715087923472	-0.189328
N	0.9129905216447608 0.7490425160248243 0.7271661142455131	-0.191850
N	0.7524209479963004 0.5900062160119780 0.7571079393734911	-0.190757
N	0.7471350962470343 0.9129981473731419 0.7270682853541219	-0.189954
F	0.3382560731557222 0.2091679137493916 0.7711214762057693	-0.438140
F	0.2192430135260670 0.3397099417585708 0.7707969431182022	-0.438384
F	0.1680821405734984 0.1737442224341235 0.7811605289567142	-0.450011
F	0.7125207143212433 0.8379910121483957 0.2698337176115215	-0.437617
F	0.8376453869453745 0.7133752963572856 0.2694156410031220	-0.435692
F	0.6696845845992995 0.6696714999170950 0.2798068236021458	-0.449074
F	0.2608754893462955 0.2597635429998476 0.4700173815750529	-0.518683
F	0.2446121160522670 0.2439796628446392 -0.0018311852314568	-0.441257
F	0.7431670122695073 0.7435297123284937 0.4971790244355556	-0.435609
F	0.7605983001996796 0.7604033718642663 -0.0310247994009116	-0.529609
B	0.2427973813751209 0.2418067194397645 0.8178952603290511	1.053990
B	0.7408388866620877 0.7413001158297767 0.3165533713632903	1.049493
Fe	0.2518415847192288 0.2515754572092215 0.2498085277758706	0.890391
Fe	0.7516450859033607 0.7515901297345595 0.7486171301887083	0.686637
	  	
