#======================================================================

# CRYSTAL DATA

#----------------------------------------------------------------------

data_VESTA_phase_1


_pd_phase_name                         BFFIVE_2_Cu_i
_cell_length_a                         13.70540
_cell_length_b                         13.70543
_cell_length_c                         8.78837
_cell_angle_alpha                      90.27498
_cell_angle_beta                       90.27483
_cell_angle_gamma                      89.69577
_symmetry_space_group_name_H-M         P 1
_symmetry_Int_Tables_number            1

loop_
_symmetry_equiv_pos_as_xyz
   x, y, z

loop_
   _atom_site_label
   _atom_site_fract_x
   _atom_site_fract_y
   _atom_site_fract_z
   _atom_site_charge
C	-0.0001185946563618 0.2960502092636583 0.3616631256044124	-0.160086
C	-0.0004470249372133 0.1949144747479147 0.3720290751101694	0.091729
C	0.4997979297883178 0.7961954910649449 0.8615671396334978	-0.159917
C	0.4995248461016644 0.6950642227100516 0.8719181880846018	0.091302
C	0.0002489952003794 0.7035133982855127 0.3618816134991387	-0.158921
C	0.0001431910262109 0.8046660728775117 0.3728407086708480	0.092954
C	0.5002526877331414 0.2035422719186341 0.8620768314510596	-0.159366
C	0.5001852717300640 0.3047009228304171 0.8729912446919578	0.092860
C	0.7035182565853063 0.0002452187872576 0.3618904163281392	-0.159209
C	0.8046745587273935 0.0001411312228906 0.3728487127373511	0.093020
C	0.2035377542786460 0.5002512325780016 0.8620708890442357	-0.159327
C	0.3046960473724032 0.5001852336338687 0.8729900370365830	0.092950
C	0.2960510843771851 -0.0001276703990171 0.3616481193049763	-0.160156
C	0.1949160748140207 -0.0004549491163747 0.3720207884819375	0.091727
C	0.7961859037371029 0.4997970943140684 0.8615809451416433	-0.159741
C	0.6950554665279680 0.4995285693366999 0.8719384613679311	0.091047
C	-0.0007550614499721 0.3033675538704272 0.6366204687233525	-0.160587
C	-0.0011851778099033 0.2021375246553650 0.6374415940262201	0.091662
C	0.4992624373013047 0.8034680521687947 0.1365759393751197	-0.160107
C	0.4988511086758763 0.7022228731098068 0.1373695906246626	0.091397
C	-0.0005355554257560 0.6973105362308798 0.6368311038103910	-0.162992
C	-0.0008839691922876 0.7985702193943427 0.6380987596006344	0.094347
C	0.4994526155773715 0.1974258743316795 0.1370857156708793	-0.163562
C	0.4991356092630526 0.2987088092456727 0.1382765472894727	0.095565
C	0.3033802394133387 -0.0007598791988744 0.6366045355971325	-0.160437
C	0.2021489931359725 -0.0011918478268555 0.6374305220230160	0.091676
C	0.8034623139432820 0.4992549495241804 0.1365725637646170	-0.160200
C	0.7022158419563304 0.4988481310010303 0.1373774005474325	0.091334
C	0.6973165513727756 -0.0005423184399779 0.6368412784279730	-0.163152
C	0.7985801757792635 -0.0008926087156466 0.6381122553828040	0.094496
C	0.1974219492322067 0.4994442061460727 0.1370698191657081	-0.163606
C	0.2987067277923193 0.4991338788107022 0.1382598102145540	0.095563
C	0.0003412710339137 0.4555363033156958 0.4918602815821442	-0.092817
C	-0.0000846753428892 0.3524507958839777 0.4961139282409876	0.161025
C	0.5002869857378217 0.9556530417059976 -0.0081055608605487	-0.092581
C	0.4998729124557696 0.8525429047214615 -0.0039472979213596	0.160924
C	0.0003973351963364 0.5445487176709041 0.4915372933137842	-0.099609
C	0.0001459207630119 0.6476657358103100 0.4960430189424476	0.162683
C	0.5003531685299752 0.0446436010244163 -0.0082363002045669	-0.100091
C	0.5001325728153556 0.1477858294655079 -0.0037034542086639	0.162961
C	0.5445527598109384 0.0003922503686529 0.4915418516907241	-0.099976
C	0.6476721125259478 0.0001433736738571 0.4960516518587316	0.162978
C	0.0446404552962649 0.5003478978521866 -0.0082433718696285	-0.100558
C	0.1477750168911021 0.5001264137745638 -0.0037105323811824	0.163194
C	0.4555436378644160 0.0003328826875290 0.4918327032095537	-0.092380
C	0.3524560023316063 -0.0000926544425462 0.4960924496176256	0.160879
C	0.9556417616091935 0.5002830757054542 -0.0081038354888493	-0.092323
C	0.8525430995248282 0.4998656136516741 -0.0039425923299700	0.161132
H	0.0000740483621657 0.3309606076412808 0.2505497724547893	0.121375
H	-0.0005932093130370 0.1459651996897740 0.2729117175286038	0.122667
H	0.4999874204969643 0.8310954834208788 0.7503999266984022	0.121193
H	0.4994163494828614 0.6461691859927573 0.7727409989027987	0.122629
H	0.0003503657443547 0.6681278422300228 0.2506349447490688	0.120064
H	0.0000617753575290 0.8536789625437819 0.2744533883909679	0.122199
H	0.5003077649271036 0.1681488771655313 0.7508463975204382	0.120684
H	0.5001322806600833 0.3536938934796205 0.7745452790493504	0.122201
H	0.6681367992833593 0.0003558990586513 0.2506359712578922	0.120162
H	0.8536830670596224 0.0000643411103760 0.2744554709732595	0.122205
H	0.1681433686793045 0.5003059892428596 0.7508344766963961	0.120612
H	0.3536825436981884 0.5001345092842551 0.7745421097692792	0.122139
H	0.3309583901987230 0.0000644996486043 0.2505290362303856	0.121368
H	0.1459680331360954 -0.0006023238175243 0.2729060147242133	0.122655
H	0.8310831992577571 0.4999908328184226 0.7504059373220471	0.121067
H	0.6461587468359690 0.4994217837119380 0.7727510761567337	0.122618
H	-0.0009371992991395 0.3438898428674537 0.7435942936072286	0.117970
H	-0.0021987318632528 0.1614649901288747 0.7437028946376886	0.105078
H	0.4990729830765854 0.8440676805715377 0.2434963495106309	0.117737
H	0.4978753126426007 0.6614848759085830 0.2436188489139919	0.105190
H	-0.0009568093760960 0.6570585629691634 0.7433855252668791	0.118405
H	-0.0021583932142305 0.8400211365164930 0.7441979290107222	0.105525
H	0.4989945331401842 0.1571095084752799 0.2436391894922366	0.118939
H	0.4978890432877679 0.3402391428853421 0.2443129138886788	0.104803
H	0.3439073362599216 -0.0009394589670297 0.7435708777366462	0.117939
H	0.1614800285720536 -0.0021950644130924 0.7437023185793534	0.104894
H	0.8440639150308169 0.4990615146275572 0.2435036443027643	0.117721
H	0.6614830286305615 0.4978693458440994 0.2436297634691062	0.105204
H	0.6570669355050016 -0.0009664772278280 0.7433959446220790	0.118383
H	0.8400273387163719 -0.0021658374342451 0.7442224873724625	0.105484
H	0.1571031223070782 0.4989871972191555 0.2436313836227617	0.118877
H	0.3402297728491107 0.4978860005641063 0.2442970245382489	0.104716
Cu	-0.0000145559031747 -0.0000161721762137 0.5008809727025647	0.685746
Cu	0.5000846237963341 0.5000866839158102 0.0004687162609746	0.684671
B	0.0015875348422475 0.0016128827493344 -0.0590154372296564	1.057496
B	0.5014830561097900 0.5014856817692691 0.4404326307318894	1.057078
N	-0.0007796191306977 0.1492653795921636 0.5078275507511485	-0.212995
N	0.4992537370904332 0.6494054227221301 0.0076865359539664	-0.212330
N	-0.0002181451638453 0.8509070954795427 0.5088367017925959	-0.213640
N	0.4998337076264626 0.3509706585914136 0.0089595737265194	-0.213751
N	0.8509121849229663 -0.0002188729704842 0.5088449676466255	-0.213603
N	0.3509586335682323 0.4998365400084209 0.0089495666764090	-0.213622
N	0.1492713575683844 -0.0007878772787741 0.5078249898345633	-0.212965
N	0.6493977018947740 0.4992552400618570 0.0076997912975784	-0.211986
F	0.0022628979356798 0.0022878481100336 0.7727654596886792	-0.485306
F	0.5024301680388354 0.5024043676302427 0.2724379867766040	-0.484057
F	-0.0008050701535982 -0.0008118847107173 0.2676202925534272	-0.614951
F	0.4992768436435359 0.4992960792043503 0.7675665377667665	-0.614685
F	0.5966814521753927 0.4754257764087853 0.4851622227390767	-0.457145
F	0.4753915667294332 0.5966691043435246 0.4851939730268664	-0.457138
F	0.4315214893186859 0.4314876550040116 0.4804118925823744	-0.461563
F	0.9316596374942652 0.9316671197061023 -0.0188018014743456	-0.461806
F	0.9756465398390823 0.0969174208173646 -0.0147304653088654	-0.456963
F	0.0969035096094179 0.9757606090318782 -0.0146709241155218	-0.456894
	  	
