#======================================================================

# CRYSTAL DATA

#----------------------------------------------------------------------

data_VESTA_phase_1


_pd_phase_name                         BFFIVE_18_Fe
_cell_length_a                         13.84781
_cell_length_b                         14.70513
_cell_length_c                         8.41566
_cell_angle_alpha                      90.42352
_cell_angle_beta                       85.72428
_cell_angle_gamma                      89.55218
_symmetry_space_group_name_H-M         P 1
_symmetry_Int_Tables_number            1

loop_
_symmetry_equiv_pos_as_xyz
   x, y, z

loop_
   _atom_site_label
   _atom_site_fract_x
   _atom_site_fract_y
   _atom_site_fract_z
   _atom_site_charge
F	0.4607359691546764 0.3813697663740364 0.4431745490373615	-0.440614
F	0.5349519186910279 0.4781529775381787 0.7693560976146467	-0.542227
F	0.4020354883830663 0.5248002671360359 0.5177715577487517	-0.427768
F	0.9610499526502094 0.8813132843258578 0.4436110895123041	-0.440751
F	0.0350612365159279 0.9781866255983332 0.7696308281585236	-0.542173
F	0.9021085345650134 0.0246560853296577 0.5181535740315146	-0.427382
F	0.5666668961698770 0.5036661763590000 0.4408774499419260	-0.422528
F	0.4522294043184752 0.4956558665468041 0.2563988680173548	-0.419776
F	0.0667466790933735 0.0038485807717742 0.4411829031020333	-0.422421
F	0.9522905135857462 0.9954857389983188 0.2567428601166671	-0.419247
C	0.7219142680626507 0.1593568542282076 0.6767456447631769	-0.420214
C	0.7808185324123966 0.1541620808062158 0.8175013595081772	0.196918
C	0.7705746878680007 0.1990609037096273 0.9652483036939578	-0.156105
C	0.6939698383469752 0.2621534282065651 0.0239743713744371	-0.144685
C	0.6776661924528994 0.3533607569475143 0.9781314737132115	0.217325
C	0.7356569855885662 0.4085322596690646 0.8580975556184589	-0.432483
C	0.8737076753162140 0.1947030001971766 0.2131768376837706	-0.424113
C	0.8486285833916645 0.1672352654523275 0.0506282063876948	0.205883
C	0.6208912296278198 0.2438696547832266 0.1434116454727820	0.200526
C	0.5989664075005847 0.1597682935462229 0.2364329222281628	-0.421268
C	0.2217953403305409 0.6592939362992759 0.6767070716280841	-0.420297
C	0.2807525765039053 0.6541296619731057 0.8174007916808678	0.197257
C	0.2705651186546273 0.6990539565761097 0.9651224773058714	-0.156436
C	0.1939752441676017 0.7621493486624414 0.0239100276572007	-0.144458
C	0.1777000687775317 0.8533824886049208 0.9781888422775130	0.217023
C	0.2356997477913785 0.9085871559395057 0.8582036515248870	-0.432070
C	0.3737804208311652 0.6947560992573404 0.2129283400052574	-0.424225
C	0.3486509818246011 0.6672531471190425 0.0504361274605648	0.206162
C	0.1209051989724899 0.7438367030399515 0.1433400485831985	0.200764
C	0.0989580030542575 0.6596996932485060 0.2362386014065023	-0.421488
C	0.2949741892463265 0.1690931279026567 0.3222577499712892	-0.420779
C	0.2339054899730297 0.1555747869865588 0.1856901293743094	0.192554
C	0.2376493241471135 0.1961906839911433 0.0351547367641261	-0.148938
C	0.3065257777617391 0.2651006445921948 0.9770279214834086	-0.149867
C	0.3170281715446720 0.3536668963914445 0.0418747655368914	0.204524
C	0.2540249029412102 0.4004444734959579 0.1695928210760500	-0.419990
C	0.1274449947991224 0.1783308149576844 0.7963854651768069	-0.433014
C	0.1602788085234095 0.1574102432570204 0.9568858864130931	0.213644
C	0.3782210800103438 0.2576312819995997 0.8503969723001813	0.197334
C	0.4063292189963120 0.1805817528374212 0.7398449243708062	-0.423964
C	0.7949697044941169 0.6690385327633699 0.3220969416805153	-0.421058
C	0.7339068314528306 0.6555286012015602 0.1855136839055203	0.193057
C	0.7376561743936793 0.6961814025843436 0.0349957263439159	-0.149755
C	0.8065299787797808 0.7651136645113692 0.9769643657077284	-0.149884
C	0.8170550687577917 0.8536456895017523 0.0419526106078453	0.204672
C	0.7540790184685513 0.9003849244091090 0.1697658075915565	-0.420504
C	0.6274787958544493 0.6783318312449289 0.7961840395293773	-0.432555
C	0.6603068588648364 0.6574038051168277 0.9566863639655739	0.213948
C	0.8782184438806337 0.7577018841030262 0.8503070801816481	0.197441
C	0.9063184171658171 0.6807173389709077 0.7396224615987261	-0.424570
H	0.7648618508818474 0.1832708397945872 0.5702041921214417	0.139890
H	0.6609001575463859 0.2065388856261659 0.7023333740717151	0.137295
H	0.6931671967515259 0.0923640279539038 0.6469335246746557	0.136426
H	0.6888786691014065 0.4378018381891104 0.7713030526175420	0.154580
H	0.7920209869878099 0.3658391374583523 0.7959489057280356	0.129230
H	0.7709814855342957 0.4653451395380631 0.9162803352629412	0.132611
H	0.8914214286738132 0.0589019424070117 0.7332005791696128	0.283335
H	0.8410562405258479 0.1496537190707609 0.3057290260909867	0.129085
H	0.8475695686300978 0.2642740933552716 0.2395978871287626	0.130794
H	0.9523289139244768 0.1918584462699708 0.2219715334187831	0.143190
H	0.5724833234927497 0.1756056963798298 0.3599742003682690	0.137993
H	0.6643764468536723 0.1174340531377068 0.2385477858942096	0.143297
H	0.5434862200557675 0.1188921434494213 0.1824396726297733	0.135419
H	0.5128765177081449 0.3344732246879591 0.2478580910771450	0.266312
H	0.2647345357161056 0.6831051877968829 0.5700833443403727	0.139879
H	0.1608335682524196 0.7065405592283804 0.7022476935964448	0.137242
H	0.1929683270217796 0.5923089997192098 0.6470536643561394	0.136409
H	0.1889220881154696 0.9378573803326785 0.7714099940748523	0.154586
H	0.2920761466200320 0.8659178308038963 0.7960408110691493	0.129151
H	0.2709915149503359 0.9653993400415335 0.9164408164315295	0.132545
H	0.3913534910276075 0.5588696664283139 0.7330409666397641	0.283478
H	0.3411209660612928 0.6497563485102051 0.3055523949976271	0.129180
H	0.3477101879542797 0.7643569817569571 0.2392799981099730	0.130814
H	0.4524039531906041 0.6918643820086647 0.2217125945166830	0.143127
H	0.0722925019934367 0.6754789829954843 0.3597135623883325	0.138030
H	0.1643993762287822 0.6174217297988892 0.2385409439987110	0.143557
H	0.0436102583289321 0.6187909293878245 0.1819844510171583	0.135269
H	0.0129411706849422 0.8344319958071980 0.2479470302697905	0.266568
H	0.2510430495547069 0.1873031323738999 0.4323375143053685	0.140914
H	0.3463508044128871 0.2242020439510902 0.2954209589712596	0.139915
H	0.3365040162060981 0.1072470549192888 0.3464118714623934	0.132945
H	0.2961350260209439 0.4314899254373677 0.2606833831331268	0.139342
H	0.2027749841258404 0.3521794722188795 0.2269510216716718	0.129977
H	0.2118855184787559 0.4551387450958485 0.1177850788857575	0.132927
H	0.1324018833607304 0.0574204821147456 0.2828650262521020	0.276319
H	0.1079894594078082 0.1160467534189386 0.7336776701471572	0.154253
H	0.1843583315901358 0.2144997784405034 0.7250645874749717	0.122519
H	0.0625337046733609 0.2223276225007093 0.8075132932026275	0.139879
H	0.4247722381036776 0.2046037837282117 0.6180409752366470	0.138519
H	0.3468437250547921 0.1319529240177003 0.7365598680575967	0.143550
H	0.4696593895093972 0.1434560589821342 0.7789869583075502	0.132397
H	0.4797320318951806 0.3636832396944367 0.7701939699848501	0.281832
H	0.7510448893708476 0.6873210759735362 0.4321407572056865	0.141157
H	0.8464112808636902 0.7240902536731268 0.2952168538058427	0.139792
H	0.8364243274006571 0.6071574257069509 0.3463316264956791	0.133046
H	0.7962256983619330 0.9314355714212492 0.2608002947175531	0.139576
H	0.7028761122932993 0.8520970487636715 0.2271776383321957	0.129980
H	0.7118922670069223 0.9550698926480431 0.1180381046338512	0.133125
H	0.6324065291752211 0.5573443137419314 0.2826070995416425	0.276043
H	0.6079923607069122 0.6160632263811043 0.7334785169733997	0.154330
H	0.6844076235432807 0.7144853749939798 0.7248653150061463	0.122245
H	0.5625840771657290 0.7223463865896136 0.8073042412324976	0.139987
H	0.9246742635213154 0.7048025990631566 0.6178288940548268	0.138780
H	0.8468656226137933 0.6320478636729496 0.7363825383134529	0.143783
H	0.9697135977368607 0.6436239749764902 0.7786074894372701	0.132472
H	0.9797580725856401 0.8637720873565493 0.7702830267179320	0.282254
N	0.8598942482671798 0.0998392922514053 0.8217781898417891	-0.143180
N	0.5993141674948559 0.3878017655885992 0.0629161694810765	-0.262539
N	0.9017147038826089 0.1064521278839244 0.9613877277835353	-0.237437
N	0.5662631393443585 0.3202349589582013 0.1606710599966671	-0.147020
N	0.3598375814277333 0.5998120616242493 0.8216280137159431	-0.142725
N	0.0993673520011408 0.8878165712495273 0.0630483636029051	-0.262575
N	0.4017140524777614 0.6064672872474919 0.9611821922855751	-0.238215
N	0.0663046869578022 0.8202127274596694 0.1607111722051923	-0.147325
N	0.1595648970823156 0.0964293931433056 0.1895117740237028	-0.149569
N	0.3908354409664440 0.3962819790668020 0.9620612694812453	-0.252963
N	0.1139020902439455 0.0965693522271729 0.0528501671033240	-0.247860
N	0.4257139595099535 0.3375612261150094 0.8469005178767838	-0.144500
N	0.6595778916143255 0.5963695777071349 0.1892802051115064	-0.149117
N	0.8908686207865570 0.8962880192489326 0.9621977658862063	-0.253127
N	0.6139217915020057 0.5965344159684957 0.0525982595645285	-0.248448
N	0.9257223503527882 0.8376252337723242 0.8469304706323745	-0.144875
B	0.4711042084171317 0.4764695007349118 0.4198992158229532	1.041386
B	0.9712484079318768 0.9764529829041404 0.4203005992563108	1.040766
Fe	0.5060327190315370 0.4999194610564091 -0.0045460814346981	0.758601
Fe	0.0060450914944308 -0.0000817570612574 -0.0042660106925692	0.758148
	  	
