#======================================================================

# CRYSTAL DATA

#----------------------------------------------------------------------

data_VESTA_phase_1


_pd_phase_name                         BFFIVE_3_Cd
_cell_length_a                         15.01602
_cell_length_b                         15.01509
_cell_length_c                         8.54182
_cell_angle_alpha                      90.11352
_cell_angle_beta                       90.01112
_cell_angle_gamma                      90.26216
_symmetry_space_group_name_H-M         P 1
_symmetry_Int_Tables_number            1

loop_
_symmetry_equiv_pos_as_xyz
   x, y, z

loop_
   _atom_site_label
   _atom_site_fract_x
   _atom_site_fract_y
   _atom_site_fract_z
   _atom_site_charge
C	0.2435385086220887 0.4629928597328209 0.6198142857728193	0.054854
C	0.2454886587197233 0.0327720311064247 0.6715770509873750	0.056307
C	0.2442157298150403 0.4402465639764998 0.3521511804458366	0.049935
C	0.2449365741715848 0.0544278306791116 0.4035904625886710	0.043563
C	0.0547047105030413 0.2449274789281941 0.4034017142782163	0.042938
C	0.4404284673241239 0.2441549513574711 0.3521944219562327	0.050408
C	0.4628861826476391 0.2436054063768057 0.6199345301150673	0.055586
C	0.0327676945009662 0.2455429391942287 0.6714074160678659	0.056507
C	0.9405810876832823 0.2443457141678227 0.6483235245057776	0.050950
C	0.5546102070076573 0.2449476500164686 0.5970493879640613	0.041749
C	0.5326019645797172 0.2454116528762939 0.3290910939830551	0.056478
C	0.9629661110276519 0.2436037854432076 0.3805574899021624	0.053347
C	0.7454960681709677 0.0327184185235365 0.3290093134008316	0.057306
C	0.7436243257072607 0.4626722779749983 0.3800347828575176	0.055323
C	0.7449679607879477 0.0547771854225526 0.5970204664682280	0.042389
C	0.7442511108414952 0.4407840261011817 0.6478293288179596	0.050579
C	0.4406344083573787 0.7442101658561453 0.6477618420623923	0.049962
C	0.0545874100693108 0.7449605582639064 0.5968416750892754	0.041885
C	0.0327691402572173 0.7453841027585365 0.3288315974276081	0.056870
C	0.4628408077689936 0.7435382229225171 0.3799623574151662	0.055279
C	0.2454706135175904 0.5323792276461914 0.3289744765964507	0.056266
C	0.2435649260790308 0.9626592254184148 0.3807329257880507	0.052604
C	0.2449257847383966 0.5547051572793305 0.5968738618438409	0.041889
C	0.2442393865997540 0.9405557619453011 0.6484875464762538	0.050157
C	0.7436477132992998 0.9630424813388161 0.6196941426779071	0.054468
C	0.7455213115878526 0.5329976093590280 0.6706684869530611	0.057855
C	0.7442777654436989 0.9405353272759555 0.3519109042286598	0.050278
C	0.7449652789226439 0.5544560715086174 0.4026637016093035	0.041686
C	0.5546049056529455 0.7449337687631584 0.4026222388790116	0.041687
C	0.9405751707602883 0.7442148102276194 0.3517510221416833	0.050642
C	0.9628459053103468 0.7436920648943098 0.6195292215650893	0.054311
C	0.5328394954342713 0.7455272299485147 0.6706396124603019	0.057467
H	0.2432818805682180 0.4341471604918047 0.7369043185976074	0.111528
H	0.2455289453753252 0.0621908124049025 0.7886037690883665	0.116427
H	0.2436881560708749 0.3925511694513565 0.2551697628450205	0.121969
H	0.2446152124521092 0.1028062828997623 0.3075390607567445	0.121666
H	0.1031783803631415 0.2445470508323749 0.3073562841781163	0.121813
H	0.3928540836874164 0.2435938122615344 0.2552264720989648	0.121710
H	0.4338976640831381 0.2434024384859749 0.7370099285920266	0.111297
H	0.0620837986129743 0.2456003144582174 0.7884404991479806	0.116135
H	0.8930680898410155 0.2438249617284616 0.7453317358213981	0.121978
H	0.6031151841689550 0.2447024190249467 0.6931037707206658	0.121552
H	0.5618637231434815 0.2454859447978291 0.2120068448837381	0.116627
H	0.9339547143752627 0.2432815350882568 0.2635124072600953	0.112286
H	0.7455312202389007 0.0619519942071010 0.2120253751852629	0.116473
H	0.7433699947499403 0.4334363420886708 0.2630163305393397	0.111486
H	0.7446474280246757 0.1033084450139867 0.6931904022255854	0.121387
H	0.7436841826843766 0.3934066104772287 0.7449505395380954	0.121873
H	0.3931841241983912 0.7436706135425768 0.7448937710338582	0.122169
H	0.1030397462515561 0.7447092446262333 0.6929605400406874	0.121793
H	0.0621353932662961 0.7453697990608331 0.2118105558175413	0.116557
H	0.4337401489628911 0.7432624886958283 0.2629823587518896	0.111264
H	0.2455814863694602 0.5615089510041754 0.2118746360643919	0.116365
H	0.2432263980370989 0.9335668069094794 0.2636815526438596	0.112230
H	0.2446499875431988 0.6033052889103797 0.6929812322507821	0.121484
H	0.2436558619553885 0.8931072607182015 0.7454808808603945	0.122165
H	0.7434040788553824 0.9340937553932326 0.7366738263118597	0.112056
H	0.7455736766800032 0.5625406060132535 0.7876387556606057	0.116276
H	0.7437362199980383 0.8929487965453672 0.2547811585978350	0.122227
H	0.7446657957710178 0.6027502527677220 0.3064600451681458	0.121476
H	0.6030237094390227 0.7446442980690806 0.3064831843278734	0.121610
H	0.8930869588526252 0.7436718271691304 0.2546647909044416	0.121781
H	0.9338022148879304 0.7435291161299381 0.7365798502388948	0.112130
H	0.5622551869995212 0.7456255676169877 0.7875724746353623	0.116328
Cd	0.2478914198741291 0.2477723974686845 0.5314724870374197	0.776406
Cd	0.7478680893136586 0.2478835802832189 0.4692912923068727	0.777425
Cd	0.2478628242695020 0.7477834430216390 0.4691947670750268	0.776839
Cd	0.7479283998234516 0.7479524312295038 0.5301781412249421	0.776850
B	0.2678883909789626 0.2681025073183230 0.9389400130609715	1.048962
B	0.7682122941511496 0.2678314438718807 0.0610810748766963	1.051308
B	0.2675551017188036 0.7679205792801366 0.0615479842676344	1.050122
B	0.7681817211458247 0.7682737460491000 0.9379375035924387	1.049697
F	0.2936170585834632 0.2941752385696336 0.7772127142696386	-0.444778
F	0.2343804702853154 0.2338745766219117 0.2824788445217765	-0.584333
F	0.2023026669579530 0.2013674736205010 0.9229533563027300	-0.459659
F	0.2347870135894903 0.3457790947646844 0.0079839686557876	-0.448204
F	0.3461669233012646 0.2362182877880954 0.0074921978649669	-0.448581
F	0.7342021932900487 0.2345388383292084 0.7179611265156257	-0.583880
F	0.7937957434550936 0.2928030107938116 0.2235549516171282	-0.445265
F	0.7020455042795022 0.2017170245789722 0.0753544180958784	-0.460612
F	0.7358111593106664 0.3460348406081007 -0.0065641755566870	-0.449244
F	0.8461786988514312 0.2354243977906573 -0.0078892599221159	-0.449156
F	0.2340490718388705 0.7344910404983549 0.7179876440574395	-0.584212
F	0.2933440070654402 0.7934599413740170 0.2235784307284742	-0.444828
F	0.2012803905728922 0.7019943963497727 0.0767369522358749	-0.459538
F	0.2351961877163616 0.8459794434182561 -0.0067331288365625	-0.449104
F	0.3454084664368428 0.7354111163402400 -0.0075574126535732	-0.449007
F	0.7936521997878363 0.7940195576846196 0.7760811547412488	-0.444893
F	0.7343139743932572 0.7342619038771939 0.2815318542614551	-0.584039
F	0.7020483256992401 0.7021055044932932 0.9223947772057315	-0.460216
F	0.7355237612764323 0.8461583087939438 0.0069347470373119	-0.449078
F	0.8460859652745644 0.7358571904018376 0.0065160097516629	-0.448617
N	0.4064213194500813 0.2435457814989248 0.4979577694885907	-0.194436
N	0.0889912412684443 0.2461192468389613 0.5490683910508150	-0.201535
N	0.2435398053307723 0.4063839035587575 0.4979299972979402	-0.193833
N	0.2461337534206857 0.0888571275374944 0.5492351431795154	-0.201427
N	0.9065348714636733 0.2436733687328888 0.5025681158010410	-0.194571
N	0.5888597837266004 0.2460632777695983 0.4513880410430688	-0.201372
N	0.7436086283535795 0.4064774350805430 0.5021654667488293	-0.194651
N	0.7461073755021443 0.0889745049436482 0.4514431068591258	-0.201532
N	0.4064925071027213 0.7435176461442095 0.5020735711737724	-0.194356
N	0.0889295295075517 0.7460189474320277 0.4512615844946420	-0.201454
N	0.2435942451450945 0.9063588820496520 0.5027248603155317	-0.193650
N	0.2460968435775431 0.5887919535567651 0.4512452396847942	-0.200887
N	0.9064683405417326 0.7436517639043423 0.4974259148651159	-0.194531
N	0.5889684963441788 0.7461471428862205 0.5482182644027227	-0.201304
N	0.7436437454150375 0.9065628688479253 0.4975771151106252	-0.194846
N	0.7461328511919617 0.5890006518296651 0.5482059340350061	-0.201622
	  	
