#======================================================================

# CRYSTAL DATA

#----------------------------------------------------------------------

data_VESTA_phase_1


_pd_phase_name                         BFFIVE_1_Fe
_cell_length_a                         11.08128
_cell_length_b                         11.29823
_cell_length_c                         8.69156
_cell_angle_alpha                      89.26926
_cell_angle_beta                       89.81136
_cell_angle_gamma                      90.40845
_symmetry_space_group_name_H-M         P 1
_symmetry_Int_Tables_number            1

loop_
_symmetry_equiv_pos_as_xyz
   x, y, z

loop_
   _atom_site_label
   _atom_site_fract_x
   _atom_site_fract_y
   _atom_site_fract_z
   _atom_site_charge
C	0.2557969281996176 0.4583299907695360 0.3765569806558677	0.088521
C	0.1304319567317460 0.4583964648448254 0.3759292788734327	-0.178231
C	0.7454803889672654 0.5402032311660688 0.3761557107520558	0.087211
C	0.8707574572082094 0.5401465228949464 0.3746417877936684	-0.177288
C	0.5377388006522450 0.2519059008811948 0.3636348981090564	0.091865
C	0.5383727776539974 0.1289233543247087 0.3637924538069601	-0.176333
C	0.4643554144612236 0.7509149040675985 0.3639527313784985	0.085453
C	0.4630188349165783 0.8738897550873671 0.3637192522698198	-0.177443
C	0.7400769410897606 0.4690667778457488 0.6280484789484322	0.095040
C	0.8654849624044728 0.4662728106473141 0.6341903894651866	-0.176440
C	0.2605705185930632 0.5325850829587107 0.6246394381822964	0.095494
C	0.1352013360595962 0.5353902588678338 0.6315179387963624	-0.176155
C	0.4689175375422048 0.2545402588654062 0.6160116241006766	0.093985
C	0.4663539187174365 0.1314869012877312 0.6241898323875790	-0.175356
C	0.5282869155775040 0.7442931795827472 0.6179703261805721	0.093128
C	0.5303352490705769 0.8672721075095581 0.6254836680278830	-0.173952
C	0.0671317652201467 0.4984516477051883 0.5049574315148507	0.095157
C	0.9338134972209097 0.5016953636656900 0.5053782335128689	0.096678
C	0.5009583211587525 0.0657969000005206 0.4956884904500686	0.098404
C	0.4979087568162507 0.9349824994347048 0.4959696557554155	0.096145
H	0.3073971626980500 0.4294463305302615 0.2770282483599528	0.100961
H	0.0828074866623613 0.4260047059387114 0.2752742322260611	0.119638
H	0.6938565500763376 0.5666709273917572 0.2752621287603402	0.101194
H	0.9184609031577947 0.5711062101548054 0.2718672237558337	0.118234
H	0.5647697720611498 0.3035382259540663 0.2623806182096528	0.098501
H	0.5691379882762668 0.0828408932730401 0.2617254152029217	0.116918
H	0.4404253206853410 0.7011877338919581 0.2616156888972089	0.103519
H	0.4336237237678942 0.9213640432804450 0.2607929636574662	0.117796
H	0.6820292796432572 0.4455358212283165 0.7258528528636187	0.115944
H	0.9092170323071893 0.4348668148008352 0.7390145088277970	0.119300
H	0.3186560716592273 0.5570740320528861 0.7206623206446811	0.115042
H	0.0912364281225116 0.5679120410647225 0.7349139509552326	0.119209
H	0.4451748591727143 0.3104986055550587 0.7131204920329496	0.114018
H	0.4354733708272776 0.0876201142405839 0.7297003907773373	0.118361
H	0.5500008941120924 0.6869795012257212 0.7161341077283311	0.113841
H	0.5591268797108678 0.9094753626464644 0.7313997098530244	0.117981
Fe	0.5002838042804866 0.5001847789328132 0.4995178847398033	0.567928
B	0.4995483683829939 0.4990331953142144 0.0683626005086867	1.053294
F	0.4989782902334826 0.4960128007911302 0.7250632957783563	-0.550661
F	0.5007369403365420 0.5055319720762355 0.2395985045771013	-0.439283
F	0.4133208819699073 0.4122404051525914 0.0322747713521230	-0.463694
F	0.6168506348310732 0.4671968137960986 0.0252962112750611	-0.464174
F	0.4672702497759321 0.6124646855472836 0.0163737607884325	-0.461553
N	0.3200333777804458 0.4956198871999816 0.4984229028925389	-0.189040
N	0.6808205517163382 0.5046470242828989 0.5001921581233748	-0.188281
N	0.5031194069315807 0.3137048256284126 0.4871589785283427	-0.190032
N	0.4970615105593060 0.6871083966412990 0.4885656377222211	-0.190845
	  	
