#======================================================================

# CRYSTAL DATA

#----------------------------------------------------------------------

data_VESTA_phase_1


_pd_phase_name                         BFFIVE_3_Ni
_cell_length_a                         13.98308
_cell_length_b                         13.98221
_cell_length_c                         8.39692
_cell_angle_alpha                      90.01826
_cell_angle_beta                       90.00212
_cell_angle_gamma                      91.24900
_symmetry_space_group_name_H-M         P 1
_symmetry_Int_Tables_number            1

loop_
_symmetry_equiv_pos_as_xyz
   x, y, z

loop_
   _atom_site_label
   _atom_site_fract_x
   _atom_site_fract_y
   _atom_site_fract_z
   _atom_site_charge
C	0.2531361094652246 0.4449127685157102 0.6324060908131286	0.049920
C	0.2455782535814957 0.0562230075349952 0.6293950535915908	0.052424
C	0.2462986779892190 0.4568230779582791 0.3585583494704933	0.050716
C	0.2520410636906957 0.0442212763017029 0.3558601970361749	0.055902
C	0.0442249734602721 0.2520941570557879 0.3557432528761652	0.055156
C	0.4568539617552343 0.2463164482371081 0.3586663351896809	0.050158
C	0.4448954962070306 0.2531491653805386 0.6325108192528039	0.050591
C	0.0561959555325000 0.2455948504790084 0.6293254676670401	0.051963
C	0.9568435632000103 0.2463206699992002 0.6413677761516293	0.050495
C	0.5442555388853280 0.2520768934793381 0.6442576276013429	0.055260
C	0.5562081712708405 0.2455807240619727 0.3707093274648799	0.052254
C	0.9448620616743652 0.2531444072739625 0.3675038876472306	0.050557
C	0.7455583478523429 0.0561892019523058 0.3707037668069979	0.051850
C	0.7531235840337218 0.4448516760404059 0.3674917428702077	0.050386
C	0.7520414113709364 0.0442774840470353 0.6442140822135172	0.055629
C	0.7462967790234092 0.4568709855606523 0.6413354012177415	0.049812
C	0.4568466537546422 0.7463140303947616 0.6413429007889409	0.050324
C	0.0442390220316271 0.7520748317868665 0.6442105713810536	0.055466
C	0.0561841536912595 0.7455853171576843 0.3706302868721779	0.052054
C	0.4448657329481939 0.7531441090087746 0.3675107936789075	0.050434
C	0.2455689721207484 0.5561901117538475 0.3706062843800437	0.051809
C	0.2531076015433287 0.9448580197488002 0.3676014120033573	0.049779
C	0.2520743443763013 0.5442800717720192 0.6441762407627956	0.055637
C	0.2463104718453145 0.9568650390874935 0.6414219906173303	0.050199
C	0.7531141810651575 0.9449089450300422 0.6324619641961332	0.050346
C	0.7455630644857772 0.5562278014253370 0.6293196679301462	0.052712
C	0.7462962172897989 0.9568257575280441 0.3586591672914747	0.050318
C	0.7520569088280814 0.5442137566954489 0.3557520367921763	0.055334
C	0.5442273428940387 0.7520772800919427 0.3557604254153953	0.055441
C	0.9568274777219490 0.7463149690558017 0.3586051884458920	0.050016
C	0.9448773099306271 0.7531442426368218 0.6324591042938800	0.050525
C	0.5561980527232409 0.7455916082707420 0.6292878392492414	0.052155
H	0.2550664743887803 0.3977037133419589 0.7359317108067154	0.125390
H	0.2428424387069434 0.1036641135564021 0.7326919238209966	0.124399
H	0.2432103360959413 0.4212137587407404 0.2429765481792857	0.111551
H	0.2532561717072170 0.0798626631501490 0.2404984191675285	0.109743
H	0.0798774431732344 0.2533445900019160 0.2404278940102717	0.109824
H	0.4212827280999784 0.2432353856992751 0.2430873812924897	0.111576
H	0.3977021903188648 0.2550964067839346 0.7360570862166871	0.125241
H	0.1036058086689812 0.2428444012484073 0.7325911177652290	0.124670
H	0.9212898816496728 0.2432421572749048 0.7569518059470470	0.111564
H	0.5798955331144602 0.2533334571931257 0.7596292253119179	0.109779
H	0.6036285319960865 0.2428420938478393 0.2674264822229755	0.124733
H	0.8976530727852677 0.2550628616019694 0.2639737522471939	0.125465
H	0.7428236300003931 0.1035934335584317 0.2673791014293496	0.124818
H	0.7550496518810094 0.3976228661063043 0.2639394164056935	0.125455
H	0.7532879551743481 0.0799527967727698 0.7595884846390487	0.109651
H	0.7432111520854812 0.4213199344489645 0.7569289008533544	0.111599
H	0.4212697317900591 0.7432219907564551 0.7569195348211220	0.111584
H	0.0798886554274045 0.7533197324978808 0.7595424014284822	0.109743
H	0.1035801122582124 0.7428563551448740 0.2673431480631948	0.124515
H	0.3976482325075056 0.7550683869189996 0.2639643271483918	0.125353
H	0.2428432378607631 0.6036049792969111 0.2673449283231026	0.124588
H	0.2550237897580689 0.8976085855687632 0.2640490355458561	0.125298
H	0.2533327023943295 0.5799613298410434 0.7595031028868202	0.109786
H	0.2432373303961545 0.9212983803646266 0.7570208406569329	0.111583
H	0.7550544563945232 0.8977208829974915 0.7360383332152209	0.125317
H	0.7428088927404165 0.6036679495468300 0.7325861043883466	0.124557
H	0.7432208672093843 0.9212202858167250 0.2430562054824001	0.111615
H	0.7532896871905698 0.5798588171408010 0.2404247680678020	0.109827
H	0.5798696604424048 0.7533178745805145 0.2403842938356361	0.109753
H	0.9212496696932009 0.7432430116483023 0.2430304637494032	0.111739
H	0.8976714353643372 0.7550840694807964 0.7359899702214311	0.125354
H	0.6036238373935997 0.7428610320343657 0.7325861866413023	0.124704
Ni	0.2504969609363756 0.2504971750262063 0.4874731704999175	0.708814
Ni	0.7504951162463079 0.2505077007438473 0.5126378290992043	0.708794
Ni	0.2505104723800406 0.7505180559218896 0.5125625106665207	0.708918
Ni	0.7504639753157897 0.7505035157205834 0.4873887051460893	0.708971
B	0.2506409482740233 0.2504498583180771 0.0607004996851806	1.055901
B	0.7505929053379454 0.2505353766151342 0.9394397210826735	1.054548
B	0.2505470592308736 0.7505752432203856 0.9392690248071706	1.054813
B	0.7505803343169284 0.7505702908432208 0.0606558010087786	1.054997
F	0.2498639404274575 0.2498638150677094 0.7139473296772472	-0.569569
F	0.2526172627519342 0.2524138100584049 0.2394393580294651	-0.454239
F	0.1814927537106784 0.1809559510967044 0.0203043747344126	-0.447245
F	0.2259652866841028 0.3428167323802679 0.0145136194712842	-0.441884
F	0.3431537434132699 0.2262757179851866 0.0144354199207178	-0.441564
F	0.7525437966997617 0.2524562676069725 0.7606423883355710	-0.454197
F	0.7497708662219934 0.2497761604339863 0.2862182110881095	-0.569876
F	0.6812778044063658 0.1811900455018586 0.9797992459244971	-0.446987
F	0.7260661305608552 0.3429549277828383 0.9857037330775352	-0.441416
F	0.8429695001732092 0.2261565249715244 0.9857424162470071	-0.441079
F	0.2525355549234894 0.7525857325825172 0.7605305673754370	-0.453951
F	0.2498771255859379 0.7498214153929113 0.2861344487916378	-0.569644
F	0.1811836261930610 0.6813183235372189 0.9794895700126843	-0.447184
F	0.2262566551648197 0.8429847156007018 0.9856083568759366	-0.441226
F	0.3429577917619287 0.7260009076680964 0.9854661483540850	-0.441647
F	0.7498096716779268 0.7498258459512539 0.7137957681497882	-0.569618
F	0.7525137320303312 0.7525043990806296 0.2393626150906395	-0.454031
F	0.6813540104915137 0.6811764235668640 0.0202128737878007	-0.447166
F	0.7260892032488940 0.8429588094200191 0.0144294748448308	-0.441437
F	0.8430382281840542 0.7261903137079949 0.0144102030207572	-0.441601
N	0.4015380556333569 0.2505891678268042 0.4893385973147420	-0.192171
N	0.0996350803015148 0.2487820496550107 0.4862909421561162	-0.192459
N	0.2505744418571349 0.4015318740833508 0.4892425257737770	-0.192044
N	0.2487491293789518 0.0996291997559404 0.4863859222240791	-0.192714
N	0.9015091044363813 0.2505854356890163 0.5106910863820687	-0.192175
N	0.5996439261279748 0.2487595456912851 0.5137313505366518	-0.192482
N	0.7505686083044814 0.4015268536195351 0.5106709666265264	-0.191859
N	0.7487273209700182 0.0996380287825177 0.5136982249151210	-0.192341
N	0.4015286232724886 0.7505872386228261 0.5106786582031476	-0.192170
N	0.0996378856067465 0.7487610050123368 0.5136596270678804	-0.192506
N	0.2505697136321330 0.9015372530120961 0.5107582171206875	-0.191748
N	0.2487539295685812 0.5996498788915221 0.5136321630596543	-0.192302
N	0.9015082895007053 0.7505846031959772 0.4892855617196735	-0.192085
N	0.5996209015652875 0.7487688452662387 0.4862826443278564	-0.192636
N	0.7505613991094910 0.9015410651618879 0.4893190202370388	-0.192159
N	0.7487427724746318 0.5996332596458160 0.4862832887692771	-0.192739
	  	
