#======================================================================

# CRYSTAL DATA

#----------------------------------------------------------------------

data_VESTA_phase_1


_pd_phase_name                         BFFIVE_15_Zn_i
_cell_length_a                         30.01742
_cell_length_b                         28.92916
_cell_length_c                         8.45842
_cell_angle_alpha                      90.04226
_cell_angle_beta                       90.20600
_cell_angle_gamma                      89.99911
_symmetry_space_group_name_H-M         P 1
_symmetry_Int_Tables_number            1

loop_
_symmetry_equiv_pos_as_xyz
   x, y, z

loop_
   _atom_site_label
   _atom_site_fract_x
   _atom_site_fract_y
   _atom_site_fract_z
   _atom_site_charge
C	0.9343273391628555 0.1032324915683381 0.8817642141637190	0.092773
C	0.9019581708358428 0.0690134266155467 0.8922044541746714	-0.169507
C	0.7698022023457813 0.9359167233265180 0.8952252172175867	-0.116553
C	0.7359172150552695 0.9034093395812334 0.8936728316471048	-0.117114
C	0.5693631048202487 0.7424289868920549 0.8932822870707712	0.089915
C	0.6028896078771226 0.7754590301935431 0.8938159929405055	-0.173034
C	0.4328918719698482 0.6010752561190557 0.8946716647368825	0.098354
C	0.4004264910266337 0.5669108727007423 0.8950795064966267	-0.171906
C	0.2702446561028071 0.4363350663169303 0.8938940967298750	-0.116314
C	0.2363460987809800 0.4038416339700976 0.8946091191059972	-0.117329
C	0.0675136352204559 0.2406773235003178 0.8794591529570918	0.093523
C	0.1011042846958129 0.2735942806789718 0.8900816971636286	-0.174422
C	0.0659003070788153 0.8967304734466535 0.3799029601834564	0.096042
C	0.0981148314629807 0.9311110977431502 0.3907910133631574	-0.170526
C	0.2300378476139855 0.0641580952580054 0.3956478274456160	-0.116812
C	0.2639338483111853 0.0966314477240833 0.3953933704486219	-0.116508
C	0.4327892073025624 0.2591288187889211 0.3801996455575072	0.092979
C	0.3991081122710588 0.2263254671976010 0.3902463590030191	-0.172522
C	0.5659188717601180 0.3969126595917989 0.3817071327833204	0.093413
C	0.5980837787564706 0.4313621674314058 0.3921340821887466	-0.168822
C	0.7299776959187863 0.5640792655312630 0.3953889529145898	-0.117303
C	0.7638802694062874 0.5965348105346346 0.3954391103723002	-0.115882
C	0.9327241326856701 0.7592434874895654 0.3813276314989836	0.092858
C	0.8990011513126893 0.7264677176411998 0.3914213688576140	-0.173246
C	0.0678193763124439 0.1018359552406446 0.6052646844700729	0.099341
C	0.0999358917858563 0.0673206319684946 0.6050061932949504	-0.171759
C	0.2296058025769363 0.9362958125111970 0.6066157891678169	-0.116285
C	0.2635717341673581 0.9038840160908519 0.6057759035795799	-0.116577
C	0.4324177435504186 0.7408186932311369 0.6187127251146646	0.091403
C	0.3988715797725347 0.7738120631403934 0.6085029665199126	-0.171968
C	0.5655144334054442 0.6031353662433273 0.6198651107348300	0.095532
C	0.5978685587416599 0.5689156877496977 0.6094674197061902	-0.170545
C	0.7301089168099926 0.4359657149432781 0.6053027561047102	-0.118089
C	0.7639653690232019 0.4034202983883339 0.6068104848191374	-0.115016
C	0.9309120656139163 0.2428815932826096 0.6065962560409062	0.089705
C	0.8970904469807400 0.2755891047925919 0.6063269939353692	-0.171825
C	0.9325840237883647 0.8990019934494130 0.1069349753120252	0.092134
C	0.9001157169927879 0.9331634364213611 0.1064144314287367	-0.170710
C	0.7698845540396008 0.0640285752790897 0.1073558005715087	-0.117132
C	0.7360399309699966 0.0966031448381962 0.1072512421054956	-0.115428
C	0.5686793699141062 0.2572001148636911 0.1056438089323686	0.094660
C	0.6025297890014829 0.2245286414113009 0.1052630796417154	-0.173132
C	0.4322274679615442 0.3985423255356652 0.1068616082666887	0.093279
C	0.4001338695879234 0.4330880247673785 0.1061117557974634	-0.170405
C	0.2699187349118415 0.5641165040651116 0.1071303901948401	-0.117115
C	0.2359488905499289 0.5965478244571653 0.1073040440807007	-0.115185
C	0.0694583657828405 0.7579874309499185 0.1050692986565155	0.095373
C	0.1029639483380977 0.7249324869663683 0.1049333667338067	-0.174868
C	0.0678100331962994 0.8982592370520485 0.1052466219621792	0.099419
C	0.0999397767081162 0.9327642621648189 0.1050056311549241	-0.171305
C	0.2298263375829487 0.0639699419487097 0.1072347208200276	-0.116279
C	0.2637610660792190 0.0964401365112095 0.1074014214010778	-0.115878
C	0.4311138959821960 0.2570802737537551 0.1057052856847119	0.094695
C	0.3973016628676901 0.2243649914898445 0.1050470017300381	-0.173026
C	0.5675613269479098 0.3984492412445587 0.1068375651471749	0.093203
C	0.5996722483289426 0.4329719694087047 0.1063086221093252	-0.170819
C	0.7298828897878455 0.5639782248863605 0.1069137356261149	-0.116516
C	0.7638222802744191 0.5964485618105424 0.1074079955018138	-0.116512
C	0.9309252854157852 0.7572091331845436 0.1066684628808598	0.090282
C	0.8971385767151043 0.7244677935924078 0.1063001129516650	-0.171759
C	0.9325720875557617 0.1010811812351725 0.6069197441158566	0.092479
C	0.9001324457637870 0.0668917398919240 0.6064065378794656	-0.170851
C	0.7701340556725835 0.9362006008169437 0.6067984698375689	-0.116605
C	0.7362426821095244 0.9037005729255895 0.6056588527012192	-0.117916
C	0.5673703555904401 0.7406776956065698 0.6186340027744280	0.092473
C	0.6009363221942063 0.7736299815775053 0.6087108326913553	-0.173854
C	0.4342980561935800 0.6030007262223447 0.6199689996391018	0.095119
C	0.4019451773680933 0.5687647606278639 0.6092845653398531	-0.170619
C	0.2696848879318421 0.4358252467694917 0.6054662166847187	-0.117029
C	0.2357934120199943 0.4033280367484570 0.6066242159976100	-0.115864
C	0.0694735045377003 0.2421113531565409 0.6050055078689011	0.094079
C	0.1029954248868811 0.2751452970156152 0.6049371918752561	-0.174015
C	0.9342893275381957 0.8969294792793083 0.3817759705100452	0.093601
C	0.9018884741719142 0.9311226929937040 0.3922244968048610	-0.168893
C	0.7698939448263542 0.0640085256016384 0.3957865791752151	-0.116821
C	0.7360810038062836 0.0965741165141019 0.3952482324390580	-0.116300
C	0.5672075228349633 0.2590522399052851 0.3801275413054894	0.093040
C	0.6009411840639599 0.2262915001669708 0.3904567426702183	-0.173549
C	0.4340660025341103 0.3967969454826714 0.3817475526104456	0.093114
C	0.4019257303679030 0.4312596537380377 0.3919383270358529	-0.169033
C	0.2700270944986181 0.5640048561144040 0.3955491875212825	-0.116485
C	0.2360787942056665 0.5964175644960493 0.3952777562732014	-0.116878
C	0.0674928275181829 0.7594537736398908 0.3795555282409016	0.093494
C	0.1010583539681216 0.7265106887252166 0.3900815080698644	-0.174585
C	0.0658690370199707 0.1034329182761679 0.8799301453739228	0.095701
C	0.0980603822343538 0.0690353815642608 0.8907931821894223	-0.169432
C	0.2301596437337776 0.9358061239384456 0.8950051534550991	-0.117118
C	0.2641095275457016 0.9033745220397216 0.8937693744751670	-0.117010
C	0.4306440715600804 0.7423759372496271 0.8933425925187454	0.089915
C	0.3971411750524904 0.7754311689492071 0.8936091486088786	-0.173625
C	0.5671166071807704 0.6010160287550059 0.8945599629348032	0.098373
C	0.5995844900035341 0.5668582429246587 0.8952350122787243	-0.173175
C	0.7297626778293417 0.4362874522426317 0.8937476865509405	-0.116086
C	0.7636133018473630 0.4037426971512951 0.8948132514817555	-0.117148
C	0.9327028963908779 0.2408808301663276 0.8812439313693829	0.091583
C	0.8989518196137265 0.2736227162631425 0.8914653898179018	-0.172230
C	0.6539594294215908 0.8251707046789508 0.7458629077537764	-0.104137
C	0.8840416821023843 0.0502236017501486 0.7519139451447331	0.161020
C	0.8214672580334171 0.9864327309742074 0.7532378930647418	-0.102547
C	0.6195639776685056 0.7918313364526930 0.7487695737132865	0.167961
C	0.7873417854870209 0.9528887252603955 0.7517452112817463	0.127741
C	0.7184873449422703 0.8867835103134379 0.7489331123747055	0.139213
C	0.6838790453753011 0.8537571791310494 0.7474014712661068	-0.103285
C	0.8506510335759896 0.0158275016176011 0.7550024351640416	-0.105793
C	0.1540205891660131 0.3250859811924249 0.7536973743376140	-0.105183
C	0.3841446851938617 0.5501488754427208 0.7494513242906115	0.162081
C	0.3215096848853852 0.4864125315529057 0.7479264187412944	-0.102883
C	0.1196700967106837 0.2916871925511654 0.7503202183231724	0.169733
C	0.2873480662820494 0.4529025704884126 0.7491521253007724	0.128635
C	0.2184749748519562 0.3868002133028968 0.7511463702911546	0.138812
C	0.1838854045152251 0.3537259262629694 0.7523838903719982	-0.102334
C	0.3507156306434638 0.5157795033639870 0.7462668709338830	-0.105811
C	0.3459329467303435 0.1749813820925577 0.2531742367854147	-0.105551
C	0.1158682504831790 0.9498426197276404 0.2507060747846490	0.161135
C	0.1783490468297356 0.0137545574456207 0.2521715142329436	-0.101781
C	0.3804145224173121 0.2082221143817970 0.2501526805908365	0.169162
C	0.2125243463131813 0.0472638189108226 0.2514966609290065	0.127929
C	0.2814428790699330 0.1133095403120034 0.2514211388369031	0.137455
C	0.3160260630355738 0.1463867593658761 0.2519350548301622	-0.101014
C	0.1491201099784258 0.9844066573581565 0.2539557629699096	-0.106242
C	0.8458293057751658 0.6750445130498605 0.2543266632093422	-0.104655
C	0.6157256529122505 0.4500545006420520 0.2517948852347228	0.159244
C	0.6783016237310878 0.5138377753348745 0.2518054541592999	-0.105136
C	0.8802925562137495 0.7083143523474300 0.2514076223419657	0.166827
C	0.7125134606458028 0.5472675355064044 0.2510594849389778	0.128286
C	0.7814334378784190 0.6132757015094268 0.2516086901412355	0.137846
C	0.8159742166504961 0.6463862413864543 0.2524861195952765	-0.101946
C	0.6490128884476715 0.4845698162463387 0.2544647263742899	-0.103916
C	0.3459865580381180 0.8252875702549435 0.7455544778032641	-0.102117
C	0.1158313139096915 0.0502686696732834 0.7507020406975634	0.161793
C	0.1782704959780051 0.9863165548173290 0.7527434893867369	-0.102282
C	0.3803658835167147 0.7919186658317177 0.7484440278783002	0.167716
C	0.2124579908764668 0.9528306458695364 0.7514118170191485	0.128561
C	0.2814519036673033 0.8868770530096016 0.7491778582427404	0.139493
C	0.3160865362007340 0.8538793020366807 0.7476808431917953	-0.104784
C	0.1490652355626885 0.0156915040350021 0.7540925503943795	-0.107763
C	0.8457531439175848 0.3249882151700723 0.7546102386194700	-0.103127
C	0.6157694617644718 0.5501894762542866 0.7497601071380957	0.163410
C	0.6784307095630785 0.4864879781091001 0.7475904774652345	-0.102096
C	0.8802322326111668 0.2917341211667304 0.7515095268141200	0.166524
C	0.7125734507608972 0.4529595639444671 0.7488494690557469	0.128703
C	0.7813579147171423 0.3867659856708192 0.7515086927871768	0.138108
C	0.8158908406908594 0.3536337026304129 0.7530251506106633	-0.103323
C	0.6492088673443328 0.5158389543044657 0.7465721967887701	-0.106783
C	0.6540834369166296 0.1751223736714217 0.2534863191986587	-0.105577
C	0.8839780381627762 0.9498451965358146 0.2519155602184667	0.159812
C	0.8213653828906611 0.0135991786255285 0.2526302304749417	-0.102548
C	0.6195493565426866 0.2083105555727451 0.2504971421652074	0.168710
C	0.7872519835682277 0.0471663585260786 0.2517551719384351	0.128857
C	0.7185165843228511 0.1134087104649995 0.2511433899463177	0.136782
C	0.6839836987816674 0.1465308704186735 0.2516900641586666	-0.100752
C	0.8505516593295578 0.9842124138512698 0.2548160413875959	-0.105134
C	0.1539466962749105 0.6749572583256490 0.2534695603488630	-0.105130
C	0.3841928405370063 0.4500726535348223 0.2514840953487091	0.158847
C	0.3216514301630566 0.5138957194980605 0.2521249484016573	-0.104155
C	0.1196158133770931 0.7083794700907305 0.2502584147959918	0.170493
C	0.2874086984533045 0.5473059540233076 0.2513872782404106	0.128152
C	0.2184079979128908 0.6132520401690948 0.2513236274547727	0.137606
C	0.1838044414817463 0.6463070917185628 0.2519577886796049	-0.101874
C	0.3509355122292581 0.4846159172975568 0.2541635326190002	-0.104089
H	0.9495931243187434 0.1192318374765275 0.9859426656781526	0.113556
H	0.8906142809496177 0.0569197458617464 0.0072044233426014	0.119054
H	0.7832820247070803 0.9487410931359577 0.0068167995853508	0.107500
H	0.7223171435343005 0.8903180965187534 0.0041481801830192	0.114614
H	0.5560701348720215 0.7287444152753345 0.0034837935284642	0.098454
H	0.6161952760492009 0.7884036285114756 0.0052766459930375	0.121754
H	0.4466291585025570 0.6146796267889083 0.0046959675456220	0.098014
H	0.3877336424841267 0.5532921211469691 0.0062079210471654	0.117631
H	0.2840268171346045 0.4494171367153180 0.0046562488310880	0.107078
H	0.2230429736824399 0.3910400776779199 0.0059219679844923	0.115067
H	0.0518256347038610 0.2251173531029396 0.9832041929640305	0.113144
H	0.1129388576169221 0.2851875891552318 0.0052802599516556	0.122515
H	0.0507779297980152 0.8805360336676271 0.4835743116066197	0.113275
H	0.1095268023635981 0.9433041952346926 0.5059344060605651	0.119572
H	0.2165133391169532 0.0513038742904697 0.5066914652801850	0.108172
H	0.2775248722866520 0.1096807814445583 0.5063079531492631	0.114589
H	0.4486554581716233 0.2746118258302785 0.4841949228866574	0.112366
H	0.3873247447312639 0.2147720413810625 0.5052115326243286	0.122601
H	0.5509789283717292 0.3807887488813353 0.4858303049647620	0.112106
H	0.6095564700953775 0.4436085345386598 0.5071596734637076	0.118843
H	0.7163734168380179 0.5511622499198562 0.5062397956025708	0.107486
H	0.7774160840585488 0.6095381704317309 0.5065137149883001	0.114603
H	0.9485450176711745 0.7745972928619487 0.4856191501200967	0.111936
H	0.8872253473218736 0.7149655168648277 0.5064600221950699	0.122515
H	0.0550164459849523 0.1163277576676456 0.4952140385167262	0.097526
H	0.1127672327342889 0.0537401507441605 0.4939644400813600	0.117045
H	0.2158058905751854 0.9493525748779322 0.4959223049645617	0.106389
H	0.2769161361354441 0.8910917230890992 0.4944398695827359	0.114912
H	0.4479363537530925 0.7253185435456161 0.5144845223928362	0.111952
H	0.3870060978176924 0.7854349498278242 0.4934245055015597	0.121892
H	0.5502220758885625 0.6192128484808046 0.5159275917036329	0.113944
H	0.6092803363798239 0.5567543147847749 0.4945983558101371	0.119592
H	0.7166294545334342 0.4488161397664442 0.4938166765716346	0.107888
H	0.7775567027428140 0.3903250563929148 0.4962654855581445	0.114239
H	0.9448566824865923 0.2299049225687927 0.4963366713737035	0.098210
H	0.8838309009698445 0.2885951869644849 0.4949358426834720	0.121523
H	0.9460477837638523 0.8854195633838797 0.9967467610108096	0.099857
H	0.8873491782992399 0.9468157026922730 0.9950857619258657	0.117297
H	0.7834369132571527 0.0511076837795322 0.9963469884433565	0.106644
H	0.7225757773787137 0.1096170833026391 0.9960896049711055	0.114408
H	0.5544818544337550 0.2702229120192647 0.9956281400487608	0.097137
H	0.6157492178273736 0.2115626933092057 0.9940698108569946	0.121655
H	0.4450179996134523 0.3842166998493136 0.9967440205774946	0.099884
H	0.3874012292725544 0.4466798092277368 0.9946388171830696	0.117399
H	0.2834658247929094 0.5512684591491444 0.9960005079358629	0.106523
H	0.2223905984202586 0.6095135476602549 0.9962283809052631	0.114737
H	0.0561736237455368 0.7719530751664135 0.9949740386434499	0.096673
H	0.1162973875775572 0.7120275052098045 0.9938360678923041	0.122459
H	0.0549776136130980 0.8837509483520630 0.9952016391977238	0.097566
H	0.1127470777733012 0.9463192581793094 0.9939547925672424	0.117143
H	0.2161693988163975 0.0510024716716592 0.9961102863405140	0.107126
H	0.2771798621568727 0.1093272723303010 0.9963506275524878	0.114297
H	0.4452266182879752 0.2700617825530872 0.9958267566177870	0.096728
H	0.3840361896567280 0.2113134024303878 0.9936936984606251	0.121599
H	0.5547009635892484 0.3840613858072899 0.9966133308955037	0.099521
H	0.6123521359405606 0.4464707872007889 0.9949461938322853	0.117544
H	0.7162913889834416 0.5510334469962608 0.9956445935614537	0.107045
H	0.7772923486165511 0.6093684277173381 0.9964776944059802	0.114516
H	0.9448505155484347 0.7701926864596508 0.9964519993456653	0.097966
H	0.8838755569040708 0.7114427928900663 0.9948887227829205	0.121611
H	0.9460084083001460 0.1146533682176575 0.4967385669652805	0.099616
H	0.8873626814414899 0.0531990485370557 0.4950667072227167	0.117344
H	0.7838416698670702 0.9491954633941126 0.4962081167250710	0.107119
H	0.7228562075324252 0.8907933351740145 0.4942002172117110	0.114981
H	0.5517793598066542 0.7251381950336923 0.5142283764870367	0.111985
H	0.6127401971511951 0.7851797911288149 0.4937771382383214	0.122858
H	0.4495240161748026 0.6190336732492290 0.5161903285141795	0.113911
H	0.3904750157151889 0.5565340356769882 0.4942704335120133	0.119674
H	0.2831156463794658 0.4485700992256605 0.4941154013233158	0.108084
H	0.2221203591372715 0.3901784800762917 0.4959367832860769	0.114037
H	0.0561756186252733 0.2281416023192293 0.4948658591103277	0.097111
H	0.1163213893199492 0.2880253983909424 0.4938499137178326	0.122209
H	0.9495570263792193 0.8809625211685074 0.4859404884050432	0.112924
H	0.8905211063810519 0.9432259491892484 0.5072589214106895	0.119169
H	0.7834566294101472 0.0510470924329569 0.5069810926444084	0.107476
H	0.7225877220170847 0.1095995976944912 0.5060154090799177	0.114461
H	0.5514063798167955 0.2744596832226912 0.4839867552033576	0.112276
H	0.6128201390827011 0.2146729634551584 0.5055289104120235	0.122672
H	0.4490659342335652 0.3806035481064057 0.4860101674525480	0.113428
H	0.3905440446920406 0.4434425403973219 0.5068630689217922	0.119012
H	0.2837232806792316 0.5510574893723943 0.5065648176244764	0.107198
H	0.2226109500946778 0.6093470079618214 0.5062000360615895	0.114761
H	0.0518146682908096 0.7750526643686522 0.4833266414790460	0.112931
H	0.1128872789238569 0.7149319059313087 0.5052622291168294	0.122826
H	0.0507340531510246 0.1196392999343787 0.9836218500916324	0.113671
H	0.1094548333737409 0.0568454791327862 0.0058817885417791	0.119099
H	0.2167341609959734 0.9485384297331027 0.0064304535101610	0.107769
H	0.2778105974838543 0.8902601231038991 0.0043917055140442	0.114475
H	0.4439985630183446 0.7286265971178643 0.0036909791440293	0.098396
H	0.3839238974528524 0.7883140806343748 0.0049618647603287	0.122089
H	0.5534524921690225 0.6145690772099507 0.0044391489871431	0.098063
H	0.6123550212357175 0.5531754835097205 0.0064735383329287	0.117749
H	0.7160594868413895 0.4493295254194158 0.0043569175903045	0.107090
H	0.7769703251884925 0.3908559492915955 0.0062763083424239	0.115018
H	0.9485310008188795 0.2255478965100947 0.9854794522229203	0.112180
H	0.8871686020101338 0.2851383620346397 0.0065490494785550	0.122350
Zn	0.4999491930276313 0.6730755764062399 0.7446226884942853	0.688621
Zn	0.9998139126294683 0.1729967269950381 0.7550386043036774	0.688640
Zn	0.4999731485399666 0.3271856065669754 0.2560956959686880	0.687935
Zn	0.9998207269925025 0.8270654049159603 0.2551786725381459	0.688000
B	0.5000590809715897 0.6731234219247511 0.1835020672227125	1.053775
B	0.0000220277929337 0.1731505995373812 0.3162646941856819	1.054220
B	0.4998836582217725 0.3263989740433536 0.8177341683000012	1.057169
B	-0.0000164381967912 0.8268764128240025 0.8162740534940116	1.053763
F	0.4997282753947604 0.6260371052379607 0.2240000542264713	-0.454865
F	0.9775055189238616 0.2134232039865097 0.2698523991693984	-0.450800
F	0.9782759824976176 0.1324104623695390 0.2695022052505245	-0.449381
F	0.4998749999271801 0.2792708091754304 0.7777789275634722	-0.457494
F	0.9774737117550090 0.7866215215912435 0.7695032500784446	-0.450706
F	0.9782899023824676 0.8676552258091486 0.7697719942715208	-0.449472
F	0.5392442872020561 0.6958648945360264 0.2303807064887325	-0.450549
F	0.0453892916067649 0.1736896888305405 0.2762863032124846	-0.455985
F	0.4607851966692426 0.3491952559722540 0.7705093097943259	-0.451581
F	0.4611511539697826 0.6963883806954114 0.2291475091379326	-0.449716
F	0.5389703381713495 0.3492264866302901 0.7714542282909244	-0.450475
F	0.0453501403986457 0.8263260269562626 0.7764394969282564	-0.455855
F	0.4996961860942755 0.6723804966150233 0.5177339167019600	-0.567325
F	0.9988851878990508 0.1731032649244769 0.4917639702184327	-0.450661
F	0.4998461873955412 0.3279686870056561 0.9929891112299252	-0.450558
F	0.9987668913661086 0.8268778693150456 0.9918023335385808	-0.450446
F	0.5001397166912133 0.6742808659713131 0.0083151726689401	-0.450007
F	0.0007001420606375 0.1731192697536387 0.9818817334087261	-0.566916
F	0.5000823437317159 0.3266793358355198 0.4828427880434877	-0.566819
F	0.0007317783079041 0.8271153520092875 0.4819983218930430	-0.566488
N	0.5518340780784364 0.7253378649257616 0.7586266098958866	-0.216558
N	0.9492478891961309 0.1190553452761096 0.7415708471329612	-0.215332
N	0.0519213737603345 0.2252278340606607 0.7392728293143956	-0.216617
N	0.4493620545561691 0.6189761300419714 0.7602019620821810	-0.217473
N	0.4484761883255439 0.2743167020485791 0.2402809004585673	-0.216267
N	0.0510522512132139 0.8805911694622882 0.2396155358388058	-0.217671
N	0.9483711797559031 0.7744130020277636 0.2412813768936305	-0.216509
N	0.5509857874616697 0.3807284952945438 0.2415540962252724	-0.215165
N	0.4480502394262496 0.7253608681520767 0.7588094864064900	-0.216110
N	0.0510519424336953 0.1195415935507705 0.7396417596811133	-0.218085
N	0.9483728237657354 0.2257107365619107 0.7411525715176430	-0.216165
N	0.5505407700270774 0.6190029118801236 0.7599826886755544	-0.218083
N	0.5513973778398219 0.2743196764090919 0.2400942085409017	-0.216218
N	0.9492438130563954 0.8810702555001968 0.2415928194477670	-0.215077
N	0.0519165026984600 0.7748934234455134 0.2394090495966079	-0.217164
N	0.4488868886969165 0.3807075805054448 0.2416822638588982	-0.216139
	  	
