#======================================================================

# CRYSTAL DATA

#----------------------------------------------------------------------

data_VESTA_phase_1


_pd_phase_name                         BFFIVE_16_Fe_i
_cell_length_a                         25.24614
_cell_length_b                         25.24448
_cell_length_c                         8.10541
_cell_angle_alpha                      90.09853
_cell_angle_beta                       90.01280
_cell_angle_gamma                      89.98058
_symmetry_space_group_name_H-M         P 1
_symmetry_Int_Tables_number            1

loop_
_symmetry_equiv_pos_as_xyz
   x, y, z

loop_
   _atom_site_label
   _atom_site_fract_x
   _atom_site_fract_y
   _atom_site_fract_z
   _atom_site_charge
C	0.4818826053574766 0.3866828474832332 0.3792117413525573	0.096930
C	0.4807084560376716 0.3317147142525753 0.3708137442949135	-0.176340
C	0.9556341014844210 0.6126711311030880 0.9426526068159147	-0.125631
C	0.9556723635573133 0.5576300796530171 0.9437886543813973	-0.126887
C	0.5176515885100972 0.6130599812234494 0.3706601250452012	0.098732
C	0.5192796694548449 0.6680136297207386 0.3618432434135990	-0.177711
C	0.0447009607894730 0.3872853212792422 0.9441764143385091	-0.125937
C	0.0444097553674717 0.4423293679949939 0.9441827842585466	-0.126745
C	0.6133979924690910 0.4822336875132265 0.3774429805890967	0.096233
C	0.6683584516293453 0.4809948446237763 0.3690952016096717	-0.176433
C	0.3873265347873585 0.9555730965840232 0.9428235562256300	-0.125852
C	0.4423636257370086 0.9556385014468040 0.9438905334285398	-0.126002
C	0.3869627400795277 0.5180370652397686 0.3716022490934294	0.097586
C	0.3320066739501085 0.5196148469792981 0.3626507470316657	-0.176795
C	0.6126573686530180 0.0446395156395962 0.9441307337900083	-0.125836
C	0.5576184613150341 0.0443766598592585 0.9441332573216158	-0.126493
C	0.5194037957758244 0.3848745202974255 0.6400077590748549	0.097669
C	0.5202502080193311 0.3298578023877347 0.6414909995057277	-0.179032
C	0.0446499306888720 0.6126372864916597 0.0562324603130620	-0.125333
C	0.0444176740949671 0.5575924481936573 0.0557927401355213	-0.127097
C	0.4809357193840135 0.6156951590579325 0.6324958850445200	0.090621
C	0.4803706898465498 0.6707047533871133 0.6332184569954841	-0.177347
C	0.9556738942587674 0.3873163004100559 0.0574688720654530	-0.125872
C	0.9556549555476522 0.4423591538223599 0.0558624430532613	-0.126500
C	0.3845411306509463 0.4804939192867067 0.6321602998552797	0.094430
C	0.3295286426420525 0.4800393786529899 0.6329863045324564	-0.177415
C	0.6127071383949524 0.9556792700093807 0.0576406556981418	-0.126004
C	0.5576706792587668 0.9556826969046780 0.0560377744142902	-0.125837
C	0.6154307650906661 0.5190851388246510 0.6393139928886562	0.096043
C	0.6704355244402482 0.5200222620466461 0.6405970918953597	-0.176405
C	0.3873661487943709 0.0446674847227757 0.0561679083211797	-0.125328
C	0.4424017714223634 0.0444582566963287 0.0556452178616737	-0.126215
C	0.5447706461153158 0.8874156785755178 0.5551243334041291	-0.125274
C	0.5444762392971781 0.9424506965329215 0.5557064583100748	-0.127269
C	0.0180655159062651 0.1132064160490802 0.1296284401611658	0.098823
C	0.0194291090910857 0.1681821941579688 0.1380768663075407	-0.177233
C	0.4555841669065939 0.1127776426838401 0.5566725422404334	-0.125851
C	0.4556988981978117 0.0577377817756287 0.5561679429524142	-0.127856
C	0.9814760996701567 0.8865392415297888 0.1218399617602610	0.097505
C	0.9806276688718736 0.8315589034546929 0.1295676514139652	-0.175795
C	0.1127339407768307 0.5447590911732147 0.5552747697914577	-0.125454
C	0.0577044942100803 0.5444528080038629 0.5558955601125234	-0.127294
C	0.8867955428980923 0.0184339181263390 0.1292955350481642	0.099445
C	0.8318197244349724 0.0196841286783116 0.1378470407984141	-0.178391
C	0.8874276947584219 0.4555959915508541 0.5564785868557720	-0.124994
C	0.9424605028387883 0.4556909996377010 0.5560003161799656	-0.127024
C	0.1134915079611297 0.9818147464628915 0.1226954937048960	0.095982
C	0.1684761501367355 0.9808523585596257 0.1304856619305554	-0.176448
C	0.4557394951713657 0.8874336763328627 0.4417606025282128	-0.125698
C	0.4557050638041100 0.9424616274294604 0.4439610993566252	-0.127523
C	0.9812023328695803 0.1151948827239909 0.8678540782638278	0.092804
C	0.9803476687481663 0.1701999409170021 0.8667912308508349	-0.176187
C	0.5445919366898978 0.1126102553246724 0.4431364540326614	-0.125673
C	0.5444439520991382 0.0575747317819478 0.4441925838505734	-0.126872
C	0.0189581423701431 0.8849581629816710 0.8609413471606988	0.096610
C	0.0201622885772954 0.8299428986337951 0.8588351157299460	-0.177418
C	0.8875117610707004 0.5445788806536968 0.4432644594782773	-0.125804
C	0.9425397558463948 0.5444115959406655 0.4443836322405801	-0.127424
C	0.1150293253382216 0.0186584237343277 0.8611328806631582	0.095773
C	0.1700266820510543 0.0199094005993525 0.8593245207526762	-0.177149
C	0.1127120091156177 0.4556958029941445 0.4415583529843898	-0.125966
C	0.0576862512673410 0.4556529190739225 0.4437615366253820	-0.126669
C	0.8847332874802499 0.9808719891313089 0.8682713996920398	0.093698
C	0.8297289512354493 0.9800742424009925 0.8670712422779582	-0.176540
C	0.5003149396160637 0.3018906822382940 0.5043812064279711	0.172055
C	0.5001713509852774 0.2456881262922572 0.5013191327821873	-0.118401
C	0.5001734225902666 0.1973531514868571 0.5001170831351319	-0.098089
C	0.5000993259682259 0.1411511085673884 0.4997690105073272	0.125612
C	0.5000583749408882 0.0292274013604985 0.5003119816261069	0.068551
C	0.0003302750305385 0.8018631369715354 -0.0044529519928968	0.170564
C	0.0002799897409658 0.7456754303823990 -0.0022723496334073	-0.117323
C	0.0002853156620147 0.6973443158412055 -0.0014464935804651	-0.098312
C	0.0001978576671983 0.6411429495920411 -0.0007876076594510	0.125248
C	0.0000079840239608 0.5291653123755717 -0.0001484915730512	0.065990
C	0.5001900966863175 0.6982582207810707 0.4954825502014933	0.170357
C	0.5006408917280484 0.7544375033782962 0.4930299592603033	-0.116447
C	0.5005591381063701 0.8027692364278918 0.4950746394254775	-0.099559
C	0.5003886228415241 0.8589492760188281 0.4972645162594218	0.125820
C	0.5000631696423786 0.9708868088285089 0.5001395991542944	0.068712
C	0.0001966642235029 0.1980935328304627 0.0041689989433838	0.169114
C	0.0006247860224108 0.2542759887472403 0.0058685066449347	-0.115666
C	0.0005239584207676 0.3026030443177454 0.0035399559677109	-0.100195
C	0.0003163392615313 0.3588022249472189 0.0016649663257639	0.125881
C	0.0000018614498793 0.4707928568988085 -0.0000685241908937	0.068994
C	0.6982990831606684 0.5003421711339245 0.5030280156328932	0.169374
C	0.7544790660228808 0.5001487393435181 0.5001801666051151	-0.116095
C	0.8028061989098316 0.5001642180160812 0.4996446775533722	-0.099989
C	0.8589902564708630 0.5001006822959186 0.4996632336681299	0.125547
C	0.9709286668295671 0.5000303537773868 0.5003148077834573	0.066207
C	0.1981477071776271 0.0003059679144253 -0.0036445600568931	0.170266
C	0.2543258718472719 0.0002202263423390 -0.0014672682639200	-0.116716
C	0.3026553624708760 0.0002269668036588 -0.0009978510162116	-0.099376
C	0.3588456488009589 0.0001603410627262 -0.0006447054462345	0.125648
C	0.4708311919381372 0.0000205266321120 -0.0001714581468682	0.065574
C	0.3018839265423601 0.5002114584736413 0.4958220734731405	0.169825
C	0.2456914592917714 0.5006512045066346 0.4933239733024010	-0.115813
C	0.1973648937506080 0.5005446130785054 0.4951089976576093	-0.099956
C	0.1411729611905131 0.5003642556514222 0.4972510059492120	0.125542
C	0.0292635287410949 0.5000149920528387 0.5001541519602724	0.069525
C	0.8018821663009554 0.0001773892356613 0.0041524173044283	0.170572
C	0.7456949679520299 0.0005659500292885 0.0058494441735375	-0.116123
C	0.6973695129683731 0.0004616324952019 0.0035983701787214	-0.099607
C	0.6411703837716232 0.0002746919907383 0.0017142174942423	0.125393
C	0.5292002579461693 0.0000057282875003 -0.0000311687739382	0.068921
H	0.4684211177764109 0.4114614595276106 0.2770502549673827	0.108384
H	0.4648477932785253 0.3120873956559383 0.2618127953223494	0.122304
H	0.9212821319175597 0.6342953438454744 0.8968965437596964	0.111509
H	0.9214008584956378 0.5360863506430406 0.8966068124498823	0.106807
H	0.5305202284074126 0.5879834261117777 0.2682494727935121	0.107137
H	0.5350223065591257 0.6873579635358733 0.2523476270548593	0.121801
H	0.0791361631739305 0.3656792873056535 0.8987810219957917	0.111116
H	0.0785884330005914 0.4638689511852664 0.8965920487222009	0.106626
H	0.5885684408944136 0.4691400867263269 0.2747601956037484	0.108926
H	0.6879060832086680 0.4653220938285308 0.2596905019735407	0.122218
H	0.3656994190756824 0.9211812240296913 0.8971659149136085	0.111229
H	0.4638948534166435 0.9213285256834775 0.8967791629912498	0.106529
H	0.4120083622006393 0.5314493852017276 0.2699801134951098	0.106778
H	0.3125763742384463 0.5356238375102768 0.2536285027598196	0.121641
H	0.6342334223731775 0.0790400688928057 0.8986658516648245	0.111236
H	0.5360425822530427 0.0785197336678042 0.8964314563283202	0.106479
H	0.5341532308819634 0.4076773428946138 0.7448852412567375	0.094776
H	0.5360862364732191 0.3087406498865463 0.7476593859983605	0.122314
H	0.0790880422321607 0.6342318081720206 0.1016628646283509	0.110958
H	0.0785992398582341 0.5360301363433637 0.1033704716977412	0.107717
H	0.4669593101689027 0.5933483707891205 0.7389205778977926	0.099740
H	0.4649763018895626 0.6920587241800013 0.7397322744901765	0.122261
H	0.9213039135885039 0.3657067100124194 0.1030296407540213	0.111329
H	0.9213467952847612 0.4639088050943327 0.1028046466345935	0.106479
H	0.4070440259205248 0.4656887589669902 0.7374112248466362	0.096527
H	0.3082144724864564 0.4643495328167920 0.7389170927700618	0.122307
H	0.6343449143761787 0.9213292615524701 0.1033030036331629	0.111450
H	0.5361496365142130 0.9214216156486171 0.1030572257139327	0.106042
H	0.5928098823415886 0.5329090558743613 0.7455295885435785	0.096201
H	0.6916042902285050 0.5355800021297921 0.7472594488729510	0.121522
H	0.3657737708319113 0.0791299404461769 0.1015389443683215	0.110949
H	0.4639574024063684 0.0786941870941277 0.1031405390700916	0.106567
H	0.5791950614924181 0.8657836370232397 0.6003179706538889	0.110981
H	0.5786668605461398 0.9639599889808187 0.6037339095989183	0.106459
H	0.0311391026139851 0.0883394253997627 0.2320461041725905	0.107031
H	0.0351009285827278 0.1878375298430992 0.2474249273908452	0.121593
H	0.4212319194594284 0.1344831413397442 0.6022151214594679	0.111499
H	0.4214447434355296 0.0362826610904977 0.6036766785525263	0.107594
H	0.9678743427685204 0.9112393573259329 0.2242626309181422	0.107914
H	0.9649656467699457 0.8117505779342260 0.2383742664510768	0.122110
H	0.1343701316495006 0.5791913086433491 0.6006130289841339	0.111211
H	0.0361881270819087 0.5786293351847311 0.6040458262196206	0.106601
H	0.9117004362387626 0.0320384486088819 0.2311867760330355	0.106432
H	0.8121887694297802 0.0355419846466911 0.2469515990062992	0.122043
H	0.8657532201666586 0.4212452896757560 0.6018578558673023	0.111040
H	0.9639322016931102 0.4214178141340115 0.6033842192922797	0.106834
H	0.0888119059426805 0.9686282943635472 0.2254301729551494	0.108706
H	0.1882915962272531 0.9653369060037539 0.2395474649797637	0.122025
H	0.4213890603363781 0.8657838888795045 0.3959937188714680	0.111237
H	0.4213373896463053 0.9639692965887705 0.3973522283611690	0.106702
H	0.9673673968597898 0.0925458221109104 0.7615614318843927	0.096961
H	0.9647071464533644 0.1913742819134034 0.7604218689651164	0.121965
H	0.5789756654985085 0.1341853835713282 0.3975433384947984	0.111192
H	0.5786803123239180 0.0359876183058560 0.3968545720196816	0.106493
H	0.0335043845314806 0.9079168578512029 0.7563889618753202	0.095181
H	0.0362088495190769 0.8088588888679166 0.7526543624908122	0.121857
H	0.8659122615228438 0.5789727950488442 0.3977713503090730	0.111154
H	0.9640753060977364 0.5786557291880609 0.3971824830656094	0.107886
H	0.0921503795646061 0.0323235086982113 0.7553325411277872	0.096359
H	0.1910500848132246 0.0356923770646600 0.7528417819070887	0.121890
H	0.1343589830184816 0.4213452978162340 0.3956330165064478	0.111498
H	0.0361677821781433 0.4212883174872171 0.3969915490068908	0.106649
H	0.9074288727081514 0.9662698250930555 0.7629954927926575	0.096704
H	0.8084864429976489 0.9641625610242645 0.7610486853445256	0.121997
Fe	0.5001220160477572 0.4999616397445775 0.4970515558395615	0.749212
Fe	0.0000474158000998 -0.0000961412716729 0.0046013295979152	0.749744
B	0.4981485800408201 0.4993193838726803 -0.0628782512667397	1.067390
B	-0.0016928565567289 -0.0007422964907632 0.5643629343860364	1.066483
F	0.5012898137198079 0.4975988767552367 0.2671981304422655	-0.532523
F	-0.0025612042450920 0.0015479259099312 0.7494009814605226	-0.431065
F	0.4972351654489556 0.5026865585644250 0.7519657788151118	-0.431032
F	0.0014960522998727 -0.0019370812779212 0.2343794227277257	-0.533136
F	0.4607753405872974 0.4603546574992832 -0.0240532427510872	-0.456525
F	0.9606527315317728 0.9607018194756953 0.5234112124463258	-0.456459
F	0.4840791412071077 0.5502604389618408 -0.0110000057843536	-0.455257
F	0.9844205749957035 0.0505624665998999 0.5154624437931805	-0.454072
F	0.5502429266737140 0.4848464767009840 0.9749817085626301	-0.457413
F	0.0503918362454097 0.9847514473196602 0.5257306059975182	-0.456948
N	0.5006081140025882 0.4130255599588001 0.5118459351396347	-0.235469
N	-0.0000034619685555 0.9129544900344213 -0.0105790233007306	-0.235232
N	0.4992121767763906 0.5871168785492388 0.5040624213182471	-0.237017
N	-0.0002910831788661 0.0869707577025048 -0.0036131002001832	-0.237516
N	0.5871420178233117 0.5006281629249673 0.5106921173085295	-0.237526
N	0.0870298047189517 0.0000379071582695 -0.0101661793788327	-0.236631
N	0.4129833996565470 0.4991927174608951 0.5043367043024619	-0.234766
N	0.9129717284642153 -0.0002464819153231 -0.0035092061546467	-0.235556
	  	
