#======================================================================

# CRYSTAL DATA

#----------------------------------------------------------------------

data_VESTA_phase_1


_pd_phase_name                         FeFFIVE_13_Fe_i
_cell_length_a                         15.48722
_cell_length_b                         15.47992
_cell_length_c                         7.91960
_cell_angle_alpha                      90.13388
_cell_angle_beta                       89.79422
_cell_angle_gamma                      89.88968
_symmetry_space_group_name_H-M         P 1
_symmetry_Int_Tables_number            1

loop_
_symmetry_equiv_pos_as_xyz
   x, y, z

loop_
   _atom_site_label
   _atom_site_fract_x
   _atom_site_fract_y
   _atom_site_fract_z
   _atom_site_charge
C	0.5401888610191580 0.6881434597310256 0.8716876509714321	0.112349
C	0.5435856116950752 0.7779663872675665 0.8696024190061920	-0.155114
C	0.4632284960547123 0.3151233816472120 0.8793453118406754	0.104642
C	0.4600759381279264 0.2252657224760943 0.8787216816545426	-0.143464
C	0.8147385856296190 0.9731076615880696 0.3656992975664241	0.104466
C	0.7250476018289391 0.9703901462407892 0.3616919977717882	-0.136212
C	0.3147105647116551 0.5416895705544029 0.8693993948547954	0.107532
C	0.2249057380170406 0.5455782142321720 0.8667795880362468	-0.153178
C	0.1884382916489937 0.9713359995750269 0.3580269333487770	0.092595
C	0.2782181635494443 0.9700571340350617 0.3549538739327524	-0.133744
C	0.6874039540078964 0.4633043976556968 0.8837760678692076	0.104299
C	0.7771285401883663 0.4601792711523945 0.8822503530733858	-0.143120
C	0.4552718497643744 0.6883511615833470 0.1137923213463456	0.107297
C	0.4520402382927811 0.7781020914723967 0.1166471356604767	-0.142115
C	0.5400159840924298 0.3168664369901566 0.1308747896733569	0.107666
C	0.5426944218659643 0.2270027859700193 0.1364647448017183	-0.155734
C	0.1861037717247078 0.0195570207137786 0.6360779452073309	0.106312
C	0.2756817086178159 0.0220851540816007 0.6429582173943589	-0.135352
C	0.6857456120351025 0.5436666408617487 0.1315995777706710	0.115556
C	0.7755732005437547 0.5470385662717538 0.1355449349936493	-0.155553
C	0.8139962600301304 0.0295263520819069 0.6377782277585282	0.100730
C	0.7242846740800132 0.0301664867856304 0.6441284928071531	-0.136055
C	0.3135913410091623 0.4586601738448777 0.1133677173872064	0.107245
C	0.2238008453201864 0.4562999048165870 0.1160877656147452	-0.145711
C	0.9655115362043966 0.8125397985310980 0.6337722526359691	0.103064
C	0.9645802622766669 0.7227236199239356 0.6400058840941896	-0.135735
C	0.9836145198390763 0.1849109485782393 0.6387337322475574	0.091417
C	0.9799750231640919 0.2745514570027910 0.6424779736834052	-0.136971
C	0.0211181021250034 0.8113125196533970 0.3609781681594688	0.103612
C	0.0238381450209601 0.7216922238742958 0.3571004506987082	-0.139767
C	0.0306085476693876 0.1844102636886542 0.3597026307510783	0.110766
C	0.0308438945704353 0.2741639685946400 0.3534333260593671	-0.137347
C	0.0039885524999381 0.3200770378134936 0.4971374807967667	0.053529
C	0.0013591898495260 0.4147787596537400 0.4972616134043292	0.255641
C	0.4980244940550052 0.8238684364864501 0.9935651790638879	0.055293
C	0.4990316198795311 0.9190256105879303 0.9984181963168629	0.253972
C	0.9951060054011114 0.6763879617406752 0.4995940951019284	0.051751
C	0.9972482474352813 0.5815175929002679 0.4997017242398852	0.246085
C	0.5011915471941397 0.1803539798754426 0.0089579292644203	0.055151
C	0.5005083129667807 0.0850659617547694 0.0095720351705503	0.253803
C	0.6789046042457589 -0.0004074395052006 0.5034034795452956	0.053445
C	0.5841052852865939 0.9978286862082347 0.5043920274322108	0.245343
C	0.1785415313647490 0.5014290186245363 0.9914799722054292	0.055021
C	0.0833473127641884 0.5023027179792942 0.9942304095010568	0.253721
C	0.3226800765108466 0.9961987816954918 0.4999870907443516	0.051309
C	0.4173520551110713 0.9963849372564225 0.5025033044608963	0.256629
C	0.8221380960229804 0.5036835643166254 0.0095374078933527	0.055875
C	0.9173435002783094 0.5034984592439533 0.0069524273201956	0.252161
H	0.5713610729316484 0.6492572057761591 0.7740567779300397	0.098155
H	0.5800927099592332 0.8114274220072829 0.7718562880396559	0.121372
H	0.4352380316547886 0.3530014239588534 0.7767344345902357	0.104877
H	0.4285549997944094 0.1901660786391154 0.7767446373666841	0.115943
H	0.8533496277149524 0.9515097963448949 0.2578590340348388	0.104450
H	0.6916196290314085 0.9465488423416273 0.2502069500882615	0.125666
H	0.3539799968318258 0.5726995192894997 0.7720985439924665	0.097970
H	0.1917224417073182 0.5814706702238946 0.7681195557814494	0.121304
H	0.1517104529897662 0.9548897579471133 0.2451128229145309	0.105603
H	0.3125116629218795 0.9506428297916772 0.2405875082639574	0.120632
H	0.6495283766081583 0.4347915539632794 0.7820195117848069	0.104255
H	0.8120335702113149 0.4273163700986313 0.7810747654169132	0.115927
H	0.4249473277100785 0.6499020272632777 0.2128781883141222	0.105262
H	0.4177537537677017 0.8124248015134685 0.2166369631061202	0.114526
H	0.5690097566333829 0.3564636558986793 0.2298428230860219	0.097538
H	0.5753719478506402 0.1940876488387412 0.2396979591318478	0.122363
H	0.1468702534109212 0.0359776593963145 0.7458802213078082	0.103891
H	0.3082147643374804 0.0422150095771191 0.7581074869715919	0.124076
H	0.6464951933027542 0.5727815436098934 0.2310894642651671	0.097912
H	0.8083813090493581 0.5815299660025618 0.2367098902078145	0.121716
H	0.8522108392081977 0.0508692902841208 0.7453499547188922	0.095973
H	0.6903920201745599 0.0527608546685355 0.7566628026897144	0.125601
H	0.3517809988473755 0.4280030400935028 0.2124344418660525	0.103532
H	0.1890148816338536 0.4227916070322837 0.2161155902026549	0.114510
H	0.9437783253853982 0.8513573816501147 0.7411406791167451	0.105788
H	0.9417460038138714 0.6895242568981691 0.7527322635993273	0.124597
H	0.9684443759389567 0.1474932598281534 0.7514784756366145	0.103868
H	0.9599832169526665 0.3082511161017722 0.7569944514004963	0.124050
H	0.0410298948127781 0.8493256144653055 0.2521076948048117	0.093502
H	0.0471427351924725 0.6876467338788043 0.2454350160012630	0.123974
H	0.0477221566503412 0.1457726862850214 0.2495605858802589	0.102117
H	0.0495633023462747 0.3075693149576329 0.2381492146670097	0.122910
N	0.9453737130890082 0.5393648796392356 0.6095621271562616	-0.156077
N	0.4227368815016978 0.0455313005490061 0.0084149071511269	-0.161402
N	0.5423065203579707 0.0499621532238055 0.6151046971310044	-0.158980
N	0.9572698888122940 0.4257613292948779 0.0021100918534506	-0.154425
N	0.0511497936422865 0.5421560559844157 0.3888052539686178	-0.157353
N	0.5774869508896744 0.0438746077527492 0.0112145107685189	-0.163263
N	0.9581127428924422 0.5805840895811635 0.0052330686867060	-0.158980
N	0.5444523452516928 0.9435371691579255 0.3954099626977512	-0.155432
N	0.0536240485219881 0.4569823700287345 0.3884149605432318	-0.150070
N	0.5767490631800362 0.9585627789010190 0.0007949189819084	-0.159580
N	0.4592478666991633 0.9428716984254768 0.3945859944293456	-0.148961
N	0.0433724614960803 0.5799553589145787 0.9942468716517542	-0.162098
N	0.9471006180444352 0.4541271750640609 0.6073155104746498	-0.148297
N	0.4220661654907830 0.9601293087477790 0.0067364158801853	-0.153036
N	0.0426278870912616 0.4251657397134691 0.9994562431298006	-0.159745
N	0.4570707710865911 0.0491831374433057 0.6139370713176256	-0.153937
N	0.0073182558727716 0.1405357933875037 0.4993231009151345	-0.200471
N	0.4979121320962506 0.6441162494409399 0.9926873257366331	-0.244966
N	0.9935620319298074 0.8560837364004994 0.4969563816630762	-0.196418
N	0.5016719012333359 0.3600960567458106 0.0041206185039967	-0.244741
N	0.8585456085237582 0.0019338106449573 0.5014253645688251	-0.186873
N	0.3582366587682677 0.4999017577130533 0.9914505194405061	-0.243230
N	0.1431078542832881 0.9949363933511154 0.4964117020544019	-0.189358
N	0.6424287659530077 0.5034714070386156 0.0071750200098056	-0.246491
Fe	0.0009379101427855 0.9983790673789916 0.4985481096156263	0.671042
Fe	0.5003318999324008 0.5023429223103599 0.9994274676435205	0.827419
Fe	-0.0023442229145158 0.9951166353240793 0.9986524548787361	1.494784
Fe	0.4979238499552466 0.5015181529483943 0.4994910892364133	1.526794
F	0.0014402226077410 -0.0034451673947556 0.2471262275979398	-0.514528
F	0.5063545655394380 0.4982088748358356 0.7484951502024016	-0.556108
F	-0.0014752018619312 0.9979008975230937 0.7499120589073185	-0.514454
F	0.4926356214733723 0.5068642380257374 0.2501262465007278	-0.557357
F	0.9131119569371428 0.9112266942092120 -0.0000471098523890	-0.576213
F	0.4159761388886824 0.4147054387010451 0.5031752533841151	-0.600922
F	0.9649049185624939 0.1101488673007059 0.9994042804504164	-0.572949
F	0.4619185301031258 0.6154437452434661 0.5129203828736556	-0.603827
F	0.1124380336128895 0.9615607185764834 -0.0038347110733856	-0.572861
F	0.6136584363463626 0.4721225681392916 0.4832003026094882	-0.603599
	  	
