#======================================================================

# CRYSTAL DATA

#----------------------------------------------------------------------

data_VESTA_phase_1


_pd_phase_name                         FeFFIVE_2_Cu
_cell_length_a                         13.72471
_cell_length_b                         13.72469
_cell_length_c                         8.21844
_cell_angle_alpha                      90.14214
_cell_angle_beta                       89.85867
_cell_angle_gamma                      89.99305
_symmetry_space_group_name_H-M         P 1
_symmetry_Int_Tables_number            1

loop_
_symmetry_equiv_pos_as_xyz
   x, y, z

loop_
   _atom_site_label
   _atom_site_fract_x
   _atom_site_fract_y
   _atom_site_fract_z
   _atom_site_charge
C	0.5297029538380998 0.6990357000892629 0.1325373436975222	0.100817
C	0.5309869656070590 0.8001012037411330 0.1375550987341083	-0.163884
C	0.4688086812881613 0.3018543836823154 0.1328286142609166	0.098542
C	0.4683704714867532 0.2007246998064430 0.1372053972395663	-0.163523
C	0.3017514571354529 0.5306075747956945 0.1313806199432657	0.101276
C	0.2006781747527389 0.5314232927146572 0.1369213052378466	-0.164479
C	0.6988684443813784 0.4700629649743074 0.1325677311367907	0.094905
C	0.7999825826825356 0.4690162162623178 0.1366960031965142	-0.164779
C	0.4700630585498045 0.6988662361611415 0.8674315793084840	0.094831
C	0.4690168933911303 0.7999811184104123 0.8633044305670655	-0.164779
C	0.5306079821711628 0.3017500511405639 0.8686210865390384	0.101309
C	0.5314236243401702 0.2006757272757630 0.8630790218905420	-0.164487
C	0.6990361650736985 0.5297020602750018 0.8674624255298687	0.100779
C	0.8001007924115471 0.5309863885227495 0.8624455740283972	-0.163886
C	0.3018539418065051 0.4688083395670221 0.8671702002830777	0.098608
C	0.2007248914587134 0.4683706853637783 0.8627928266162780	-0.163695
C	0.5000421948425032 0.1477875525737600 0.0000271092287243	0.169781
C	0.5002016923539918 0.0447365562823132 0.0000109781103473	-0.095473
C	0.5000540422100110 0.8529031641196353 0.0005558965707386	0.168068
C	0.5001628306264838 0.9559401547565801 0.0005781802863640	-0.089040
C	0.8529031362421213 0.5000539036578510 -0.0005548889935834	0.168089
C	0.9559422634936525 0.5001641876916949 -0.0005777610970995	-0.089236
C	0.1477892885272207 0.5000428770195464 -0.0000278832444197	0.169840
C	0.0447365263703654 0.5002035074857597 -0.0000127817691573	-0.095254
H	0.5507984746218219 0.6555887338271172 0.2373648840914803	0.105961
H	0.5554900771045342 0.8378034368249471 0.2466224116209603	0.128225
H	0.4447715133458669 0.3451550402765375 0.2371934358588152	0.108848
H	0.4433327510670819 0.1629179032358186 0.2457480810517381	0.129741
H	0.3456049511033791 0.5542039260788099 0.2346756359517974	0.103800
H	0.1628846144937331 0.5563255217496254 0.2458542775726094	0.129176
H	0.6559099906254778 0.4487000320052972 0.2385365181859143	0.111721
H	0.8375256067912706 0.4444443569897479 0.2455962694626934	0.130069
H	0.4486977814056948 0.6559075256350918 0.7614616006500243	0.111802
H	0.4444443163218992 0.8375224303473342 0.7544023791469482	0.130077
H	0.5542031674680760 0.3456020634760039 0.7653253437409608	0.103818
H	0.5563259854202890 0.1628817715664060 0.7541465195588311	0.129164
H	0.6555889107958067 0.5507969045714256 0.7626357456425691	0.105991
H	0.8378028251222570 0.5554895273539591 0.7533800354456294	0.128218
H	0.3451541355645432 0.4447709450192717 0.7628049085270694	0.108868
H	0.1629175479842152 0.4433331345551990 0.7542493529190593	0.129786
Cu	0.5003433202170408 0.5003426476852351 0.0000014314435133	0.729684
Fe	0.4990729057511667 0.4990768517700910 0.5000023771374443	1.505102
F	0.4990318833692445 0.5018005274565229 0.7355039705730745	-0.600466
F	0.5017906848856986 0.4990264575618124 0.2645027659600869	-0.600417
F	0.4612576220733626 0.6305280421227274 0.4965438197049941	-0.609819
F	0.4025886970129452 0.4025835513910714 0.5000025241686765	-0.609449
F	0.6305346194852341 0.4612850684574774 0.5034474347990303	-0.609835
N	0.4997868672004168 0.3513276150043760 0.0008384953297350	-0.219748
N	0.4999235690189244 0.6494079814845342 -0.0000750406350525	-0.222449
N	0.6494103143892149 0.4999231854354105 0.0000747404135196	-0.222448
N	0.3513278783195243 0.4997863027484280 -0.0008379356233051	-0.219752
	  	
