#======================================================================

# CRYSTAL DATA

#----------------------------------------------------------------------

data_VESTA_phase_1


_pd_phase_name                         FeFFIVE_14_Zn_i
_cell_length_a                         13.37302
_cell_length_b                         13.35621
_cell_length_c                         8.01400
_cell_angle_alpha                      87.34093
_cell_angle_beta                       87.35182
_cell_angle_gamma                      90.50652
_symmetry_space_group_name_H-M         P 1
_symmetry_Int_Tables_number            1

loop_
_symmetry_equiv_pos_as_xyz
   x, y, z

loop_
   _atom_site_label
   _atom_site_fract_x
   _atom_site_fract_y
   _atom_site_fract_z
   _atom_site_charge
C	0.5713755909137256 0.2650201707855643 0.3681818706040577	-0.181756
C	0.4674715884949110 0.2685462416026128 0.3710535307669371	0.111607
C	0.9389838611349303 0.2864364090348233 0.4168140854014017	-0.172467
C	0.0425267239654295 0.2784684979230616 0.4022107121130987	0.111909
C	0.2629765025572956 0.5706763673625060 0.3694335606230689	-0.184795
C	0.2667336341914808 0.4666270375649558 0.3727629190495438	0.111952
C	0.2963946634580561 0.9383482342066065 0.4104818497410315	-0.173779
C	0.2878756139169036 0.0420334751640587 0.3975050635632836	0.109559
C	0.9323244779861888 0.2355151041257159 0.1321470228416137	-0.183179
C	0.0362959041629362 0.2314653061884941 0.1268098170409804	0.109965
C	0.5663717290537238 0.2111143029619806 0.0853085404029319	-0.171053
C	0.4627474696188817 0.2194981822550822 0.0969712622086712	0.103830
C	0.2129447674076686 0.5656956057894942 0.0844461347674922	-0.176210
C	0.2215043941710241 0.4620515164847731 0.0965342829909686	0.103046
C	0.2307685079160000 0.9316980449761144 0.1353034341223200	-0.184385
C	0.2270050401028013 0.0358330152149929 0.1306345189698228	0.112156
C	0.4308243594113150 0.7355063754157738 0.6340249842437423	-0.184542
C	0.5346553083188313 0.7319072697533268 0.6284174619508356	0.109341
C	0.0659396728805303 0.7307262257783013 0.5746275453196846	-0.166962
C	0.9621655874128870 0.7349533688780681 0.5898202234883153	0.102330
C	0.7366668506986898 0.4309346145832563 0.6330656561652253	-0.184909
C	0.7332228804241182 0.5349208687313646 0.6274431934200195	0.111094
C	0.7181966722069283 0.0656668111435842 0.5798173775146789	-0.168640
C	0.7245301618057288 0.9618629475964416 0.5935674822491962	0.104661
C	0.0706465733781444 0.7587479013982470 0.8698078420401841	-0.180027
C	0.9667688113748055 0.7605419707774680 0.8745033580207057	0.107416
C	0.4375935596486863 0.7793964074073833 0.9225419616882123	-0.166576
C	0.5412683513712864 0.7745879278099727 0.9055809084648713	0.111876
C	0.7800456168653497 0.4374744467201741 0.9219094027642111	-0.170557
C	0.7747993917157908 0.5412105039173576 0.9052326655547912	0.111515
C	0.7631700545245631 0.0706817650174841 0.8679117552876747	-0.179306
C	0.7661298763250096 0.9667228551098438 0.8717119512407412	0.112088
C	0.6221807404804773 0.2362434152480281 0.2211098275581581	0.189692
C	0.8824582094032470 0.2631194684471008 0.2808349656194681	0.187923
C	0.2360277768081296 0.6215008032214941 0.2213749344744070	0.193993
C	0.2659445303575021 0.8818000218287048 0.2787142183570135	0.189567
C	0.3811146301609986 0.7591664947265326 0.7852435167499423	0.188110
C	0.1214705460523371 0.7439924423012947 0.7157029583811222	0.189121
C	0.7598980592321943 0.3810808168431083 0.7843729791251977	0.189173
C	0.7391954398805225 0.1213485299108890 0.7177491554837622	0.188725
H	0.6119899040508878 0.2798527445338327 0.4791755757348255	0.108506
H	0.4242008860561920 0.2856992076115024 0.4844261972385905	0.095087
H	0.9023121689743850 0.3095448249615175 0.5324073907218195	0.124882
H	0.0894452278443869 0.2942958190729225 0.5057687647760148	0.104072
H	0.2760127607893313 0.6115396879334366 0.4809083007284898	0.111293
H	0.2820924795874094 0.4236119539555042 0.4873418024868024	0.096482
H	0.3254650143036483 0.9013920039156199 0.5215707375374676	0.124772
H	0.3089266187551057 0.0889166593382017 0.4985648227419381	0.105495
H	0.8908105171576928 0.2213553671390632 0.0217912529488926	0.109610
H	0.0781549416466086 0.2119209832303233 0.0127517374715054	0.103935
H	0.6036428030409975 0.1858421449545976 0.9717140880490857	0.123401
H	0.4173215996873618 0.2026419748806357 0.9915766773269437	0.106932
H	0.1896335882086380 0.6027982603863385 0.9693292944791123	0.123727
H	0.2064899484494952 0.4168958786537765 0.9900078706371307	0.106290
H	0.2106292975073959 0.8900429424439182 0.0279968868913322	0.113223
H	0.2025275433143551 0.0779015558829750 0.0198620429783385	0.103793
H	0.3894766230363313 0.7228430613007827 0.5228286240118944	0.103800
H	0.5765753346047811 0.7134012488090098 0.5141478022404354	0.097885
H	0.1032524090916249 0.7177524611375985 0.4544212173745908	0.121140
H	0.9171202231608736 0.7254371369952878 0.4814663966549180	0.105679
H	0.7248119796541693 0.3893819512896044 0.5217696535131566	0.104823
H	0.7153013766572256 0.5769656648108250 0.5129269845159123	0.097742
H	0.6976550036905516 0.1029438882216314 0.4632227015520950	0.121792
H	0.7102831000856212 0.9166595416076344 0.4869954285136033	0.105140
H	0.1110246014973991 0.7654313432477204 0.9838045860723059	0.102453
H	0.9240805587779564 0.7679014025018842 0.9922322941141751	0.101155
H	0.4007573163907608 0.7982855704490868 0.0404198776565848	0.122077
H	0.5882725902796039 0.7900755174002584 0.0089282516881414	0.096094
H	0.7990460539573836 0.4005261035778476 0.0396753512312143	0.123075
H	0.7896561595763139 0.5882226840411445 0.0088699661215890	0.096176
H	0.7754591462187574 0.1113797689150877 0.9799107352215431	0.104681
H	0.7804741889447081 0.9238766049299353 0.9867864296749083	0.099842
N	0.7773710550744038 0.2747257537881271 0.3003786996884659	-0.104581
N	0.2789148780929123 0.7766217441054818 0.2951856879557460	-0.109392
N	0.7272608982275560 0.2247348558988477 0.2025792438512675	-0.100512
N	0.2237077367370179 0.7265417314963761 0.2051627709880226	-0.098807
N	0.2265740780647510 0.7375848994330692 0.6908966098849505	-0.099148
N	0.7303935988405995 0.2265316724733906 0.6954245070055630	-0.100433
N	0.2759437398397855 0.7667622918252940 0.8106176423502459	-0.103046
N	0.7686102769116340 0.2758925122007613 0.8077433490428082	-0.103374
N	0.4140427075741084 0.2479158683050527 0.2378515251402060	-0.218899
N	0.0903395997147624 0.2517129138824888 0.2596586254331710	-0.217510
N	0.2480115796987787 0.4131848206066312 0.2386507684086520	-0.220358
N	0.2541167567157868 0.0899106158986585 0.2597091168574024	-0.217432
N	0.5889351252424199 0.7510117353128333 0.7614944411091745	-0.213949
N	0.9134345374505537 0.7498425653118337 0.7372570883638701	-0.217666
N	0.7517005443867077 0.5890862967943382 0.7609201369667300	-0.214218
N	0.7482239333892731 0.9132793088150820 0.7371681625819579	-0.218771
F	0.3661227343142585 0.1802439943041663 0.7414186646357173	-0.558957
F	0.1915679016066746 0.3739034536490791 0.7398700081564937	-0.557516
F	0.1429364781251681 0.1540016675039256 0.7760867356180360	-0.584506
F	0.6976035739562865 0.8767307668449799 0.2385396688364330	-0.584526
F	0.8768028831401965 0.7030237230264639 0.2388768687664844	-0.580882
F	0.6465998820757333 0.6459234540693515 0.2736559886992083	-0.584874
F	0.2516082153900860 0.2518227743524667 0.5115569156243956	-0.514375
F	0.2543484272560056 0.2542608621484870 0.9868730577228589	-0.515165
F	0.7506338755462677 0.7517541154182477 0.4923343925985555	-0.561210
F	0.7496083465418428 0.7494605845019848 0.0058897914363727	-0.561784
Fe	0.2459074647795606 0.2470489745961044 0.7511607444966441	1.301534
Fe	0.7442982512794818 0.7456362275714593 0.2502973961894098	1.496054
Zn	0.2518990942310457 0.2514950991510868 0.2491786810878929	0.733397
Zn	0.7515061320083575 0.7513468453783615 0.7487079642285266	0.734349
	  	
