#======================================================================

# CRYSTAL DATA

#----------------------------------------------------------------------

data_VESTA_phase_1


_pd_phase_name                         FeFFIVE_14_Ni_i
_cell_length_a                         13.25756
_cell_length_b                         13.24394
_cell_length_c                         8.03518
_cell_angle_alpha                      87.75364
_cell_angle_beta                       87.66618
_cell_angle_gamma                      89.78484
_symmetry_space_group_name_H-M         P 1
_symmetry_Int_Tables_number            1

loop_
_symmetry_equiv_pos_as_xyz
   x, y, z

loop_
   _atom_site_label
   _atom_site_fract_x
   _atom_site_fract_y
   _atom_site_fract_z
   _atom_site_charge
C	0.5697611346699495 0.2664270623611416 0.3665270189702293	-0.182133
C	0.4650107201796201 0.2702891999549525 0.3698965820767642	0.111995
C	0.9400263844663443 0.2887473373963196 0.4163405921309077	-0.175036
C	0.0444633779035326 0.2814815484522920 0.4001913561502778	0.112954
C	0.2646599474111843 0.5695674664660527 0.3683193259481860	-0.180964
C	0.2683232897043856 0.4646740368058293 0.3721195668745871	0.110951
C	0.2969065041339755 0.9400565603089821 0.4116730897607421	-0.173069
C	0.2889451598780025 0.0445899373652094 0.3965991797080889	0.110645
C	0.9323906847020988 0.2344888473093276 0.1339004779280325	-0.184932
C	0.0372040239681299 0.2304708414514945 0.1279270086855501	0.109584
C	0.5640494983997644 0.2081649828013836 0.0863802320648149	-0.170194
C	0.4595815965366752 0.2172846843076033 0.0985775601041015	0.103745
C	0.2095970066213086 0.5636754650176710 0.0864750947325513	-0.172553
C	0.2186893511595567 0.4591649949645464 0.0989999427220550	0.102955
C	0.2310349772020387 0.9321217081740076 0.1368821938999353	-0.183702
C	0.2269130289403087 0.0370258600803785 0.1313560386032531	0.109927
C	0.4324488510840411 0.7352080727361096 0.6343121523973448	-0.182346
C	0.5372088571030342 0.7321466911855294 0.6276114538767782	0.109291
C	0.0638453167044686 0.7294211684889327 0.5758187482360574	-0.164796
C	0.9591895728206390 0.7335574384899045 0.5913610640775216	0.101217
C	0.7358790037935243 0.4323317907853789 0.6335936063821046	-0.183447
C	0.7332016429217280 0.5372251121394185 0.6269700419383525	0.111283
C	0.7164128832023279 0.0633808592975012 0.5810989321655098	-0.164596
C	0.7228904611609486 0.9586959390409512 0.5950008697791452	0.101976
C	0.0692988298900878 0.7606800903313690 0.8689984536761581	-0.179397
C	0.9645007441920359 0.7618792823560293 0.8741071030517461	0.108147
C	0.4402364016749876 0.7787583745694088 0.9223624137929253	-0.166555
C	0.5447615331935356 0.7745835453789662 0.9042869681280531	0.113020
C	0.7793492034315576 0.4400648901493097 0.9216261523300361	-0.168283
C	0.7749385233216325 0.5446519022493197 0.9039253641973882	0.112648
C	0.7648998354730951 0.0691509603384209 0.8667013645408821	-0.179246
C	0.7675725389460812 0.9642965333477720 0.8708368514081019	0.112692
C	0.6207296011077905 0.2352094777432732 0.2207752959683670	0.189631
C	0.8824303860855390 0.2635277807242348 0.2818858968264210	0.191252
C	0.2350900148300170 0.6204591913077734 0.2217690268143935	0.189658
C	0.2661803054744446 0.8822731191497000 0.2806764008995082	0.187851
C	0.3825631979670452 0.7585595071697613 0.7856715398995379	0.189642
C	0.1204435697147794 0.7442786859154970 0.7158315352414852	0.187795
C	0.7589770525181775 0.3823949713082455 0.7848160061835746	0.188743
C	0.7391101686245326 0.1201404938673129 0.7177585858277061	0.187544
H	0.6108797998423308 0.2825262253183063 0.4768707737344360	0.107671
H	0.4220705285537180 0.2892027724672069 0.4826680751180517	0.096025
H	0.9037988089527855 0.3132490768547694 0.5317141283682719	0.124877
H	0.0922820626213383 0.2995694412097331 0.5017886588542628	0.096248
H	0.2794977643767336 0.6111002487990725 0.4788637593171303	0.109758
H	0.2854821448092735 0.4219696460378658 0.4859164666031363	0.097232
H	0.3262382916684626 0.9038832808537163 0.5235650825276662	0.124473
H	0.3113439596529425 0.0925742761767115 0.4957154821501450	0.097512
H	0.8901779282321528 0.2194722138063004 0.0242653972559300	0.108411
H	0.0789960449085405 0.2093983515675102 0.0147273267091992	0.097476
H	0.6009326917865941 0.1810113830921506 0.9734625271716152	0.124160
H	0.4135890630663882 0.1997582225821350 0.9940453657940953	0.105435
H	0.1840803526645007 0.6004305792990913 0.9724174180443197	0.124023
H	0.2027548671822276 0.4131229195163543 0.9937011389737249	0.105173
H	0.2114800007063415 0.8896366384665226 0.0297389725965577	0.110178
H	0.2017948419555987 0.0788557267329273 0.0208632824661303	0.097561
H	0.3906120276465476 0.7223586499150028 0.5233245753650879	0.103454
H	0.5791471982566400 0.7139814734781283 0.5131112402739290	0.097489
H	0.1008208623263618 0.7151500341690337 0.4559637349749658	0.122579
H	0.9134524027163973 0.7230405552499255 0.4838260036962302	0.104541
H	0.7235914796612175 0.3902418092925256 0.5225622199301250	0.104671
H	0.7155812537814775 0.5792719427123193 0.5124332323762131	0.097733
H	0.6944341387693541 0.1003370723462894 0.4650797396516693	0.122926
H	0.7076258078793464 0.9127989034938937 0.4892937115831854	0.104668
H	0.1100411846430994 0.7689658956130027 0.9826776708318046	0.102348
H	0.9217922475753071 0.7702101478853349 0.9912307713358870	0.099314
H	0.4040731493282129 0.7973220098005611 0.0410994589462799	0.123454
H	0.5924954311953265 0.7901361340750959 0.0070679782920481	0.094184
H	0.7980858830268864 0.4038133518787413 0.0400912857044635	0.124129
H	0.7901251477724859 0.5924424561261509 0.0069369340491265	0.093788
H	0.7786546949059714 0.1101411095955127 0.9783196274950037	0.104341
H	0.7830466303307165 0.9214087558834962 0.9851463183407239	0.097903
N	0.7763971770048769 0.2747788858021296 0.3011406109193376	-0.107214
N	0.2787135239940691 0.7761119032453504 0.2973692740381351	-0.107698
N	0.7267550822271048 0.2237089262418866 0.2029123242025790	-0.101799
N	0.2231119213655482 0.7265047048711197 0.2058602071769290	-0.102099
N	0.2264640619455383 0.7376325788156827 0.6911474192266507	-0.096769
N	0.7302845374680381 0.2262582651506865 0.6953045641908527	-0.098565
N	0.2764776949427351 0.7661184862239373 0.8114589099513290	-0.105222
N	0.7674398580387096 0.2762880687229586 0.8087904869104479	-0.105024
N	0.4105338143779672 0.2478230047998509 0.2380888028599812	-0.228675
N	0.0926148078612744 0.2527836007606484 0.2588433767034214	-0.226890
N	0.2474123053279064 0.4100958157383529 0.2395360129279885	-0.231754
N	0.2545201814343607 0.0925430839244485 0.2591225637652875	-0.226773
N	0.5927678332070118 0.7515170085265341 0.7599354470702510	-0.224295
N	0.9099826628515946 0.7496098684806684 0.7378909010172703	-0.227533
N	0.7522705242644350 0.5927689049870843 0.7595285666351480	-0.225625
N	0.7481258515747892 0.9096883869008643 0.7374140551412356	-0.227563
F	0.3766687814937020 0.1929805339184070 0.7395685821801622	-0.583340
F	0.2041276595873698 0.3783383874639993 0.7402556617420155	-0.581590
F	0.1431733281937566 0.1492741487403575 0.7714624661223450	-0.579857
F	0.6966160717565364 0.8775954617311500 0.2408307246523525	-0.576883
F	0.8767655607212953 0.6994308702824041 0.2412299735074270	-0.574298
F	0.6459186089372239 0.6465644754578954 0.2666976048442603	-0.575530
F	0.2511605099244113 0.2501548773252008 0.5022648214433481	-0.579592
F	0.2514774281028651 0.2497796823235886 0.9943525563233809	-0.578783
F	0.7489709261293661 0.7501943947457685 0.4939691402599790	-0.575293
F	0.7514307117443343 0.7519057758654133 0.0019338986822758	-0.575427
Fe	0.2456222278426776 0.2438975984066327 0.7496648022620012	1.512254
Fe	0.7440110091890259 0.7454171507009800 0.2494566643063803	1.506953
Ni	0.2514542592114372 0.2510795610448205 0.2481180543213378	0.770360
Ni	0.7511776083718391 0.7511177242184519 0.7478320070853042	0.766891
	  	
