#======================================================================

# CRYSTAL DATA

#----------------------------------------------------------------------

data_VESTA_phase_1


_pd_phase_name                         FeFFIVE_4_Cu_i
_cell_length_a                         23.37558
_cell_length_b                         20.34709
_cell_length_c                         9.62809
_cell_angle_alpha                      89.99808
_cell_angle_beta                       89.99980
_cell_angle_gamma                      90.00019
_symmetry_space_group_name_H-M         P 1
_symmetry_Int_Tables_number            1

loop_
_symmetry_equiv_pos_as_xyz
   x, y, z

loop_
   _atom_site_label
   _atom_site_fract_x
   _atom_site_fract_y
   _atom_site_fract_z
   _atom_site_charge
C	0.4178531366558150 0.5976032551262814 0.6302309410465227	0.100894
C	0.3740811502923427 0.5515758915247647 0.6283702484773918	-0.165407
C	0.2780848001742711 0.4488738136512522 0.6279878325335928	-0.117708
C	0.2316456184406358 0.4063509853461343 0.6268560301326168	-0.111975
C	0.1298664314168189 0.3192349727441853 0.6256430684157779	-0.165089
C	0.0830815907290362 0.2772968854363686 0.6288798378447267	0.093322
C	0.9178949475885767 0.0975515188014998 0.6302242741340549	0.100794
C	0.8741043218747254 0.0515408043477021 0.6283538554168441	-0.165121
C	0.7780772817000918 0.9488758070887343 0.6279863934881009	-0.117827
C	0.7316365349305608 0.9063600516181280 0.6268527073720033	-0.111954
C	0.6298454469938783 0.8192539415288420 0.6256261236313106	-0.165100
C	0.5830611067177175 0.7773172808917773 0.6288726508126352	0.093275
C	0.5823449939588516 0.4020508047017444 0.1303297873632416	0.101255
C	0.6260519472595160 0.4481666167771317 0.1283714116341928	-0.170875
C	0.7221519523701809 0.5507388169681534 0.1280268098724081	-0.114788
C	0.7684698609968134 0.5934269110650860 0.1268227005260852	-0.111614
C	0.8699496748776071 0.6808620711161745 0.1255840932864982	-0.164406
C	0.9167608358721734 0.7227945821003037 0.1287454073278776	0.091000
C	0.0822865145304678 0.9021316457424047 0.1303356468363024	0.100891
C	0.1260062824132670 0.9482330685727539 0.1283730012010071	-0.170414
C	0.2221567484888123 0.0507611175284167 0.1280244285858630	-0.114838
C	0.2684789660073673 0.0934426393893809 0.1268207887410877	-0.111534
C	0.3699932551934400 0.1808191938785909 0.1255778115819931	-0.164533
C	0.4168127775050687 0.2227355075534558 0.1287287211889001	0.090942
C	0.5824251292983700 0.5978351476169022 0.8697265050105645	0.101056
C	0.6260633509139749 0.5516220451739100 0.8716670928581914	-0.169402
C	0.7220762764602008 0.4489065227669722 0.8719712318139687	-0.115985
C	0.7684590743089650 0.4063179006854669 0.8731354367030929	-0.110190
C	0.8704703846502505 0.3196472385372247 0.8743934268030583	-0.162255
C	0.9173164736701155 0.2777855081286833 0.8712217495399589	0.092419
C	0.0824336108757666 0.0978607742842693 0.8697317034219241	0.101584
C	0.1260798589807615 0.0516569265598202 0.8716884533039354	-0.169329
C	0.2220599151472611 0.9489136127767841 0.8719801630412467	-0.116246
C	0.2684442192043943 0.9063308707092488 0.8731381846499578	-0.110160
C	0.3704698591662082 0.8196754752135421 0.8744022917052300	-0.162395
C	0.4173166039836483 0.7778149503549856 0.8712164088465353	0.093102
C	0.4181823084473156 0.4026326613468758 0.3697439579903499	0.097748
C	0.3743293265005704 0.4485459054010592 0.3716065237072971	-0.165090
C	0.2779066607308192 0.5506328077360272 0.3719768384165959	-0.117020
C	0.2316067257312422 0.5933602485582089 0.3731630859975872	-0.113628
C	0.1304610731684543 0.6813556748496569 0.3743880792109128	-0.165704
C	0.0835556736410840 0.7231371789167067 0.3711748264323516	0.091533
C	0.9181666105160159 0.9026192175907832 0.3697355926961852	0.097944
C	0.8743211675296679 0.9485379536888812 0.3715996932964538	-0.165103
C	0.7779287128074929 0.0506428258063972 0.3719731214411158	-0.117010
C	0.7316288007576450 0.0933704884862652 0.3731561109804045	-0.113544
C	0.6304694948723281 0.1813452482918936 0.3743817422427410	-0.165815
C	0.5835623053586322 0.2231210230199242 0.3711551677901644	0.091722
C	0.5823399908426473 0.4020480496461428 0.3696713272161928	0.101058
C	0.6260468275807490 0.4481646557297156 0.3716367616079304	-0.170614
C	0.7221506353933187 0.5507398402000625 0.3719753888060892	-0.114818
C	0.7684690829924923 0.5934275350714913 0.3731719258263136	-0.111592
C	0.8699483856424491 0.6808608364612304 0.3744096919610456	-0.164466
C	0.9167597629519189 0.7227921769442569 0.3712465050557896	0.090804
C	0.0822849576997894 0.9021309696597555 0.3696637174364391	0.100861
C	0.1260038924026451 0.9482332292837987 0.3716236990525587	-0.170263
C	0.2221541753865055 0.0507619604432137 0.3719681605375097	-0.114838
C	0.2684770194473454 0.0934423825107043 0.3731700995879227	-0.111429
C	0.3699961004568995 0.1808192614250745 0.3743987674258575	-0.164306
C	0.4168158316421348 0.2227352724544590 0.3712276062753960	0.090639
C	0.4178504234106202 0.5975994878393172 0.8697730369855542	0.100775
C	0.3740777759428477 0.5515728723318229 0.8716311430928558	-0.165191
C	0.2780827286132111 0.4488743871608895 0.8720096802875430	-0.117783
C	0.2316442134190296 0.4063498925538566 0.8731428278193126	-0.111926
C	0.1298643613550609 0.3192333361314906 0.8743526717800160	-0.165146
C	0.0830794188909965 0.2772951321601705 0.8711162544761513	0.093165
C	0.9178930027765473 0.0975514270042635 0.8697680755921244	0.100629
C	0.8741019044192724 0.0515411279558431 0.8716413274100147	-0.165092
C	0.7780742866085328 0.9488751358908203 0.8720086089562888	-0.117837
C	0.7316341568319358 0.9063583985263080 0.8731405018477565	-0.111971
C	0.6298444598490757 0.8192547579431300 0.8743654102720169	-0.165011
C	0.5830601394220097 0.7773181808727675 0.8711235105562241	0.093208
C	0.4181765965314101 0.4026327884606045 0.1302619313806084	0.097713
C	0.3743245197353878 0.4485454160568750 0.1284054127511650	-0.165080
C	0.2779051932241876 0.5506313705958501 0.1280275561836277	-0.116982
C	0.2316053427073900 0.5933593858783123 0.1268379010508693	-0.113620
C	0.1304599772282751 0.6813570834204915 0.1256093484867964	-0.165955
C	0.0835541995666314 0.7231380157465518 0.1288222667474420	0.091665
C	0.9181652949911145 0.9026203297379896 0.1302613505286975	0.097988
C	0.8743198079069445 0.9485386679530589 0.1283968045140331	-0.165063
C	0.7779267845956226 0.0506419652357439 0.1280213635487813	-0.117036
C	0.7316271303436661 0.0933695119150334 0.1268363089074992	-0.113547
C	0.6304702198202844 0.1813451855216207 0.1256014415964149	-0.165677
C	0.5835645867273128 0.2231225899884432 0.1288249151456434	0.091658
C	0.5824227216071957 0.5978367984911418 0.6302540006403904	0.101252
C	0.6260617179640655 0.5516239810651581 0.6283101182358715	-0.169783
C	0.7220760513938745 0.4489053684378979 0.6280142635434054	-0.116138
C	0.7684592349619122 0.4063173199980561 0.6268557204557106	-0.110147
C	0.8704694660360559 0.3196484295850883 0.6256050170975741	-0.162301
C	0.9173153918227128 0.2777868639749900 0.6287768185509651	0.092402
C	0.0824325820595693 0.0978614182563976 0.6302570631591183	0.101555
C	0.1260782537832425 0.0516571653616446 0.6283018084119858	-0.169299
C	0.2220578916575787 0.9489141586782277 0.6280151559903310	-0.116224
C	0.2684422613709395 0.9063312039449398 0.6268558852958619	-0.110080
C	0.3704690806457353 0.8196743916510832 0.6255918599497866	-0.162362
C	0.4173155289384623 0.7778132524748604 0.6287801129768662	0.093179
C	0.3499755006996836 0.5247782438948523 0.7499993321494083	0.116117
C	0.3027546604352067 0.4745946967180106 0.7499982400698701	0.069807
C	0.2057676671440705 0.3846603174711282 0.7499998583098949	0.063683
C	0.1551720544097473 0.3410534567301182 0.7499982403598068	0.104158
C	0.8499816224790131 0.0247665614463525 0.7499981867416370	0.114894
C	0.8027524385091201 0.9745951917304249 0.7499979486970938	0.069735
C	0.7057562764001906 0.8846638569216819 0.7499960148180363	0.063860
C	0.6551603034119462 0.8410548331483583 0.7499947201078407	0.104079
C	0.6502233403423711 0.4749945830554906 0.2500049365373349	0.117169
C	0.6974652649323491 0.5250639633219265 0.2500026713065797	0.069830
C	0.7942263384264243 0.6152777004479623 0.2499960334157178	0.067715
C	0.8447293749353795 0.6590064544224011 0.2499974898556092	0.100939
C	0.1501996956920068 0.9750430460623797 0.2499980799530267	0.116438
C	0.1974623523033726 0.0250932006344577 0.2499970394928547	0.069785
C	0.2942396457138123 0.1152848828598179 0.2499948012674751	0.067660
C	0.3447612066711777 0.1589915341134038 0.2499915393447931	0.100655
C	0.6501360657285392 0.5247276808228430 0.7499893531586546	0.113036
C	0.6973818090459085 0.4745978915649933 0.7499909085982323	0.065576
C	0.7943264273389340 0.3846269371732290 0.7499966800924763	0.067381
C	0.8450356716228977 0.3411897576825821 0.7499986690856038	0.100494
C	0.1501438812040148 0.0247617643159564 0.7499958391775595	0.112887
C	0.1973712907868750 0.9746172566849136 0.7499968326494088	0.065773
C	0.2943186413503570 0.8846451514388385 0.7499971111440716	0.067493
C	0.3450303481290543 0.8412085184960385 0.7499960312485289	0.100471
C	0.3500421917061997 0.4751441997388645 0.2500060770739330	0.118079
C	0.3026620481208004 0.5250498191137640 0.2500040323204917	0.073440
C	0.2059368362154444 0.6153726941286026 0.2499997649099322	0.064504
C	0.1555891624405016 0.6593281150347127 0.2499987513871471	0.102611
C	0.8500458189196112 0.9751445165024303 0.2499979738981321	0.118294
C	0.8026778179887872 0.0250580557820141 0.2499976716462883	0.073425
C	0.7059565027175851 0.1153785264303572 0.2499951639365170	0.064293
C	0.6556015525023092 0.1593254622361463 0.2499931487141492	0.102596
H	0.4362232762345982 0.6172689553113700 0.5341222090373647	0.113795
H	0.3605261164503826 0.5385796722586785 0.5253821435305441	0.105856
H	0.2946252991649403 0.4608419145581841 0.5269582801616276	0.086699
H	0.2157827126077483 0.3902728139778482 0.5260192116983001	0.103306
H	0.1463488562187845 0.3339755948421092 0.5246684835792846	0.119508
H	0.0625537253961339 0.2582157346589709 0.5349123030712285	0.113430
H	0.9362763514348428 0.1172007996942542 0.5340988965023971	0.113963
H	0.8605424695667153 0.0385527396028389 0.5253864359445054	0.105771
H	0.7946175689837609 0.9608443131453540 0.5269642317839426	0.086666
H	0.7157764222230043 0.8902729494005490 0.5260166896269465	0.103359
H	0.6463201650205609 0.8340119616325207 0.5246554905095953	0.119582
H	0.5625129615293576 0.7582566962253532 0.5349135269876900	0.113699
H	0.5637638872061492 0.3819201324454313 0.0348786865697492	0.113771
H	0.6397304613487348 0.4613366742695144 0.0255535717875957	0.104320
H	0.7058053289383923 0.5385989088792081 0.0269459027773363	0.085658
H	0.7843609934797124 0.6094885594627570 0.0259705713217064	0.104720
H	0.8535549999341856 0.6663370112154003 0.0243536456021447	0.121690
H	0.9369271539010322 0.7416361176463721 0.0340401717537928	0.114666
H	0.0636741467261424 0.8820383135069118 0.0348815807955574	0.113706
H	0.1396705094319524 0.9614204665645636 0.0255581124373766	0.104170
H	0.2058192566397169 0.0386120253085997 0.0269418251535041	0.085600
H	0.2843721788391778 0.1095012319410269 0.0259691409735948	0.104775
H	0.3536081004903416 0.1662772858245382 0.0243513508777737	0.121868
H	0.4369922937745894 0.2415427054387680 0.0340097537492597	0.114743
H	0.5643282675069149 0.6181540863991595 -0.0344573476345726	0.115029
H	0.6397955759637194 0.5386838542545321 -0.0254120802449555	0.105619
H	0.7057530382395099 0.4610953881924135 -0.0269406567481713	0.085550
H	0.7843297741605323 0.3902564271569724 -0.0260303442360561	0.104168
H	0.8542863946677253 0.3346513766576120 -0.0245103445403769	0.120124
H	0.9380068030314123 0.2593973547395322 -0.0343634472729595	0.114943
H	0.0643334939635466 0.1181835245882103 -0.0344441159416358	0.114831
H	0.1398357213289833 0.0387366881296850 -0.0254198107279713	0.105525
H	0.2057264822705666 0.9610922592593951 -0.0269380815124111	0.085493
H	0.2843133640606053 0.8902547057720234 -0.0260308948878218	0.104128
H	0.3542859778337610 0.8346981502326486 -0.0245135320029571	0.119974
H	0.4380214114379185 0.7594349111926297 -0.0343799167983188	0.114873
H	0.4370218664188242 0.3831776267658610 0.4655306785498708	0.115058
H	0.3609122138082000 0.4618873166179310 0.4744965294933459	0.104253
H	0.2942688700091486 0.5384015728995968 0.4730117420426616	0.086349
H	0.2156850066901134 0.6093096788743926 0.4740599343176050	0.104029
H	0.1471366214538725 0.6670974794969907 0.4755122485514827	0.121317
H	0.0634647267509535 0.7423691250904754 0.4655875305330116	0.114324
H	0.9370079102830208 0.8831427552921677 0.4654979445398003	0.114997
H	0.8608884297634312 0.9618821604377931 0.4744768085554160	0.104212
H	0.7942902645100087 0.0384167978382702 0.4730085846323701	0.086460
H	0.7157086244793405 0.1093264462461133 0.4740473577560483	0.103999
H	0.6471537011143464 0.1670750770133954 0.4754939939205363	0.121327
H	0.5634581007963261 0.2423593412864173 0.4655388367312784	0.114147
H	0.5637619896580617 0.3819182668094187 0.4651281711222440	0.113823
H	0.6397227751327010 0.4613332582210156 0.4744547901581005	0.104219
H	0.7058036946700713 0.5386005160014401 0.4730573388255251	0.085614
H	0.7843599157843885 0.6094887211135842 0.4740218945978606	0.104719
H	0.8535520329942869 0.6663342007996581 0.4756411636274104	0.121746
H	0.9369251813052019 0.7416324632914709 0.4659512187729469	0.114634
H	0.0636711451322545 0.8820368167401075 0.4651180174734790	0.113697
H	0.1396655825336355 0.9614214785194779 0.4744381895703972	0.104141
H	0.2058154701857586 0.0386138483701315 0.4730513955260554	0.085623
H	0.2843685531899418 0.1095002434754551 0.4740208770144565	0.104717
H	0.3536122821032929 0.1662775335249023 0.4756289953952244	0.121800
H	0.4370042142001438 0.2415452256383605 0.4659312475620111	0.114853
H	0.4362169688937925 0.6172603610683167 -0.0341133032232236	0.113844
H	0.3605203141529789 0.5385756350546943 -0.0253805808977950	0.105743
H	0.2946205803900312 0.4608427080766344 -0.0269594776344528	0.086740
H	0.2157798378333521 0.3902710910496976 -0.0260211276038690	0.103302
H	0.1463457644557988 0.3339731506951801 -0.0246731854352413	0.119553
H	0.0625503334686257 0.2582127751017890 -0.0349151178204860	0.113520
H	0.9362736997774718 0.1171998980791589 -0.0341074542126818	0.113951
H	0.8605389107541078 0.0385539413053846 -0.0253894413259382	0.105776
H	0.7946125024901534 0.9608433404333442 -0.0269688339779137	0.086610
H	0.7157726752122728 0.8902700340473408 -0.0260242146178743	0.103406
H	0.6463183386685379 0.8340128856948460 -0.0246654602934378	0.119578
H	0.5625106235548064 0.7582569333148510 -0.0349164112592847	0.113771
H	0.4370187796159605 0.3831731337340628 0.0344859111222687	0.115151
H	0.3609053759491219 0.4618861607353944 0.0255156087315327	0.104274
H	0.2942659355635363 0.5383994764798925 0.0269932622754634	0.086339
H	0.2156830022958453 0.6093091124701892 0.0259398772971130	0.103999
H	0.1471347356130673 0.6670994609332247 0.0244855001983530	0.121384
H	0.0634618544986274 0.7423712154621215 0.0344100364031139	0.114345
H	0.9370059982609555 0.8831453572595752 0.0344995352598774	0.114988
H	0.8608846001341165 0.9618820105453528 0.0255192147129122	0.104144
H	0.7942869222114879 0.0384161193804934 0.0269849718472158	0.086430
H	0.7157068367610083 0.1093272680802801 0.0259444320826798	0.104010
H	0.6471546094539234 0.1670778754202263 0.0244909917869894	0.121372
H	0.5634653604385031 0.2423655690391165 0.0344404718970511	0.114111
H	0.5643232632322609 0.6181554114282587 0.5344376905630571	0.114990
H	0.6397915332690025 0.5386876487468930 0.5253894649824100	0.105653
H	0.7057520192781044 0.4610922315016798 0.5269254596590449	0.085618
H	0.7843288469424310 0.3902550728849807 0.5260229009284594	0.104186
H	0.8542848650397512 0.3346536634383773 0.5245083432896761	0.120142
H	0.9380049574981997 0.2593992517318835 0.5343628841101747	0.114940
H	0.0643324043034892 0.1181852458127662 0.5344319141541455	0.114824
H	0.1398329976228513 0.0387375722537443 0.5254107464232103	0.105538
H	0.2057224899504272 0.9610929181185958 0.5269347334255310	0.085391
H	0.2843101797710402 0.8902567274452672 0.5260248643944603	0.104106
H	0.3542843435039606 0.8346973808559551 0.5245073848503867	0.119930
H	0.4380181847822273 0.7594310138035508 0.5343775731085296	0.114846
Cu	0.4999700107055990 0.6886618208758966 0.7500121306210626	0.661721
Cu	-0.0000304674711265 0.1886476642107966 0.7499905510110088	0.661843
Cu	0.4999606291927766 0.3111543420789536 0.2499484349720101	0.661099
Cu	-0.0000422670398375 0.8111537008915087 0.2499970699502547	0.661198
F	0.5000640320717614 0.6860287801012140 0.4614115852660547	-0.634739
F	-0.0000752678530775 0.1861144875178994 0.4614171719225985	-0.634514
F	0.4992472637684110 0.3140389824233061 0.9619706513865431	-0.634150
F	-0.0006608532646237 0.8138028083820197 0.9618256031710478	-0.634028
F	0.5000783116595857 0.6860569681667670 0.0385285828012602	-0.634736
F	-0.0000649862597082 0.1861113145449791 0.0386141880865761	-0.634547
F	0.4992374476992306 0.3138791199645556 0.5383455914683440	-0.634288
F	-0.0006623177255039 0.8138144520278167 0.5381847390842831	-0.634067
F	0.4755593719935317 0.7714633367033226 0.2499387912631821	-0.625555
F	0.5757825503450377 0.6591097706797133 0.2499256106213523	-0.622364
F	0.9737982624907622 0.2710727400585249 0.2500063946934737	-0.625244
F	0.0758687419546988 0.1607119512778856 0.2500443495808946	-0.622290
F	0.5752223126773590 0.2919635202824167 0.7501317045074620	-0.626429
F	0.4750079512745383 0.4022144808541179 0.7498582093658854	-0.615575
F	0.0747283382404038 0.7889206080725771 0.7499887706029515	-0.626165
F	0.9774618740074873 0.9027689975677459 0.7500321804222455	-0.615770
F	0.4428233510216389 0.6190218883308175 0.2499063413410258	-0.613602
F	0.9435402383429641 0.1181974316553117 0.2500008896969886	-0.613155
F	0.4412526575592217 0.2503688318027106 0.7505170496415801	-0.623307
F	0.9398424267941142 0.7520331653581988 0.7500234263411374	-0.623098
N	0.4397148128979540 0.6201807776213102 0.7500034502602773	-0.212476
N	0.5606806288633599 0.7566235286014283 0.7499997238439099	-0.218210
N	0.9397469810018340 0.1201403563447534 0.7499953526402094	-0.211986
N	0.0606748133812198 0.2566088103566980 0.7499977149260009	-0.217989
N	0.5604560202071057 0.3794623848867659 0.2499991011505540	-0.212236
N	0.4392569482813173 0.2433676232373498 0.2499743466556557	-0.219220
N	0.0604084223697157 0.8795269519100328 0.2500000423742556	-0.211492
N	0.9392145220745121 0.7434109760397335 0.2499958401376264	-0.219470
N	0.5605200805321620 0.6203720816073045 0.7499906774496254	-0.211200
N	0.4395669343935989 0.7569441109623879 0.7499997581931462	-0.221195
N	0.0605231348839227 0.1203909524190170 0.7499934739236276	-0.211353
N	0.9395773394860905 0.2569117818179094 0.7499996495131818	-0.220853
N	0.4399712729022247 0.3799511576929163 0.2500027200575430	-0.212641
N	0.5609101255601920 0.2434796209628992 0.2499878033825975	-0.218691
N	0.9399600073474758 0.8799388245825491 0.2499984656550489	-0.212651
N	0.0609034650109697 0.7434974721010777 0.2499984660167618	-0.218987
Fe	0.4989789310128026 0.6841192165006565 0.2499710674055055	1.519529
Fe	-0.0012528025233010 0.1842554273406482 0.2500116863879245	1.518447
Fe	0.4979761125626565 0.3146252068701427 0.7501039312941117	1.520878
Fe	-0.0018948346769653 0.8144432163264802 0.7500089379246605	1.520152
	  	
