#======================================================================

# CRYSTAL DATA

#----------------------------------------------------------------------

data_VESTA_phase_1


_pd_phase_name                         FeFFIVE_1_Ni
_cell_length_a                         11.27033
_cell_length_b                         11.27009
_cell_length_c                         7.94507
_cell_angle_alpha                      90.02264
_cell_angle_beta                       89.97894
_cell_angle_gamma                      90.01980
_symmetry_space_group_name_H-M         P 1
_symmetry_Int_Tables_number            1

loop_
_symmetry_equiv_pos_as_xyz
   x, y, z

loop_
   _atom_site_label
   _atom_site_fract_x
   _atom_site_fract_y
   _atom_site_fract_z
   _atom_site_charge
C	0.2536386414520470 0.4571383993860453 0.3664220054439778	0.101686
C	0.1301746949594612 0.4568499360692099 0.3613965281407701	-0.174106
C	0.7474150069675032 0.5416805811110085 0.3665323933995997	0.108957
C	0.8707727877037699 0.5427598524818088 0.3615017924623151	-0.175445
C	0.5423375888684463 0.2535064909042585 0.3675351987357144	0.105445
C	0.5429246191359761 0.1300944309959527 0.3621071096361518	-0.174233
C	0.4580956275950315 0.7471362957594793 0.3668014755769799	0.100548
C	0.4572646965740720 0.8705448087158746 0.3619004759017201	-0.174135
C	0.7471617713461352 0.4580989422427176 0.6331724483923596	0.100860
C	0.8705692787649089 0.4572692213300855 0.6380954762225106	-0.174196
C	0.2535118520228643 0.5423194106441559 0.6324725266396712	0.105182
C	0.1301050626010246 0.5429204857094850 0.6379015577241931	-0.174144
C	0.4571453185665774 0.2536357904733197 0.6336011441413907	0.101747
C	0.4568395144240968 0.1301684923379710 0.6386073833816913	-0.174213
C	0.5416945491327184 0.7473892824801763 0.6334673159069729	0.108717
C	0.5427585287562663 0.8707513809564198 0.6384986706415148	-0.175223
C	0.0658888508794015 0.4999132412651288 0.4996163965550298	0.101178
C	0.9349016269491454 0.4999535516487179 0.4998195786897924	0.099053
C	0.4999050181756096 0.0658802958829672 0.5003821563411357	0.101270
C	0.4999509128924381 0.9348821305967526 0.5001814730895071	0.098982
H	0.3062184801616704 0.4233201934837960 0.2611243696764026	0.102473
H	0.0843879848118173 0.4206910797104887 0.2518950732979539	0.121597
H	0.6946976399874897 0.5731202419171869 0.2607538112107265	0.096968
H	0.9164928148882862 0.5784612287969225 0.2516972216278379	0.118758
H	0.5763092216815265 0.3066273680806581 0.2632029281423338	0.095594
H	0.5791007616507554 0.0842775775836053 0.2525950128173157	0.119378
H	0.4270040042806643 0.6948307835005761 0.2599773116127637	0.104733
H	0.4216495184074154 0.9160323423292303 0.2519141859605987	0.120265
H	0.6948527045625298 0.4270104991351462 0.7399829317201640	0.104506
H	0.9160407601653513 0.4216505344583074 0.7480879021712876	0.120298
H	0.3066366550553080 0.5762818106193688 0.7368023778960237	0.095721
H	0.0843162321939711 0.5790976689484886 0.7474394570570105	0.119355
H	0.4233122164246415 0.3062079328953595 0.7389018020845067	0.102411
H	0.4206757304720196 0.0843574753807062 0.7480907018034207	0.121645
H	0.5731459780309216 0.6946827777500751 0.7392616022534820	0.096992
H	0.5784526704222110 0.9164921280068757 0.7482937874163896	0.118641
Ni	0.5002695533218486 0.5002896499729022 0.4999716391230478	0.769917
Fe	0.4988358538417977 0.4988488556628858 -0.0000261699723766	1.519545
F	0.5019582888794631 0.4990683459593270 0.7537789215097654	-0.578630
F	0.4989004647618174 0.5020578644650810 0.2461813531211320	-0.578485
F	0.3820335983330118 0.3821643706038263 0.0000462683020685	-0.596516
F	0.6577073900021781 0.4537682842514492 0.0041488222821297	-0.597393
F	0.4538509759542990 0.6577186970685879 0.9958694577924299	-0.597241
N	0.3142715748809262 0.4997626093858492 0.4995844490349168	-0.232454
N	0.6865366630898492 0.4999091744557543 0.4996834718172272	-0.236892
N	0.4997771088620854 0.3142592198122674 0.5004318743258455	-0.232524
N	0.4999192251086337 0.6865283257737319 0.5002964888925966	-0.236588
	  	
