#======================================================================

# CRYSTAL DATA

#----------------------------------------------------------------------

data_VESTA_phase_1


_pd_phase_name                         FeFFIVE_14_Co_i
_cell_length_a                         12.94187
_cell_length_b                         12.93148
_cell_length_c                         8.31472
_cell_angle_alpha                      87.69911
_cell_angle_beta                       87.41048
_cell_angle_gamma                      87.74327
_symmetry_space_group_name_H-M         P 1
_symmetry_Int_Tables_number            1

loop_
_symmetry_equiv_pos_as_xyz
   x, y, z

loop_
   _atom_site_label
   _atom_site_fract_x
   _atom_site_fract_y
   _atom_site_fract_z
   _atom_site_charge
C	0.5645953988399710 0.2650034644525230 0.3625340874732368	-0.175487
C	0.4573774190388694 0.2679845937639458 0.3670459340757004	0.095190
C	0.9421578788074011 0.2887437580524898 0.4118578428102824	-0.167564
C	0.0491703495106940 0.2831655768750437 0.3967372455845716	0.099537
C	0.2624840698885160 0.5644885754005597 0.3638238299597389	-0.174601
C	0.2651153549738247 0.4571975769617029 0.3688173872287349	0.093071
C	0.2965555505968968 0.9418346393584279 0.4074903313133434	-0.165613
C	0.2906204134891471 0.0489301173356983 0.3930955109092620	0.098684
C	0.9374858749784053 0.2332650856551722 0.1387753472403407	-0.178105
C	0.0447246583593165 0.2308219925625996 0.1320246169249752	0.093349
C	0.5613900278702127 0.2131076265322696 0.0873848489135193	-0.162351
C	0.4542956318377346 0.2200050259372884 0.0999009159660493	0.091961
C	0.2147310183328933 0.5602059160330604 0.0870429237443185	-0.165771
C	0.2214306294070821 0.4530918522594802 0.0999760830311112	0.093075
C	0.2303945206261500 0.9367333796908140 0.1413481580827539	-0.177364
C	0.2279122438967256 0.0439809198305660 0.1349779860955268	0.095054
C	0.4364079975287064 0.7357613864624999 0.6388375272868120	-0.179309
C	0.5435775693022863 0.7328182350746356 0.6324115833482752	0.096305
C	0.0601033417454082 0.7264301482238447 0.5810941838608835	-0.164546
C	0.9530512911351031 0.7317053113057126 0.5952563661509372	0.091820
C	0.7367601471652283 0.4366018903708543 0.6386073486174552	-0.179048
C	0.7345606666596803 0.5438169457664680 0.6321339961114596	0.096097
C	0.7160304238236139 0.0603213523584403 0.5847038603657841	-0.162253
C	0.7215406698023630 0.9531751893417864 0.5981450844015826	0.091311
C	0.0638633455082236 0.7577408461453626 0.8648207703463735	-0.176219
C	0.9566977432716616 0.7597472585190527 0.8703657680332518	0.092451
C	0.4410090904689723 0.7841460530928580 0.9156301639533391	-0.164268
C	0.5480227270385983 0.7787678332534761 0.9003526610886139	0.098730
C	0.7845661457032878 0.4417667076851134 0.9152971412434598	-0.165833
C	0.7799102975756461 0.5488515192938108 0.8999595246227411	0.099151
C	0.7613062782627625 0.0644616820630572 0.8626323120138432	-0.174885
C	0.7635269221595766 0.9572817063422496 0.8677092013938825	0.095708
C	0.6184542816419890 0.2374460944276633 0.2189547550870327	0.194294
C	0.8843860825554061 0.2622886024733606 0.2822475642315500	0.192867
C	0.2373922542798271 0.6177885156963144 0.2192448193847386	0.193995
C	0.2647484516041977 0.8838455605623348 0.2812212450045656	0.191140
C	0.3833248979367635 0.7615671050412696 0.7839544782117205	0.191758
C	0.1173854096224167 0.7410656794605364 0.7166076756738612	0.194396
C	0.7616659098427070 0.3837533006250063 0.7837485455995077	0.191696
C	0.7377000425562381 0.1178491054847593 0.7173869693575442	0.193396
H	0.6057704297580976 0.2798401240050849 0.4701694055790561	0.112648
H	0.4124500346419076 0.2839557039864727 0.4775069685225548	0.103439
H	0.9035424527833148 0.3125076996127086 0.5239197714067740	0.126413
H	0.0972999504253820 0.3012977088413662 0.4948266262902120	0.105679
H	0.2758129892177421 0.6062855026053260 0.4716529509537382	0.112622
H	0.2790619532422270 0.4128352307986446 0.4801977526460292	0.104860
H	0.3250388582084670 0.9033463330517458 0.5162869430058219	0.126896
H	0.3129190745313529 0.0970815198442476 0.4890104175669480	0.106453
H	0.8956021667787231 0.2160780881887133 0.0329226203974863	0.113111
H	0.0884200731107087 0.2107002906804133 0.0218666046779259	0.105062
H	0.6002828521005090 0.1899164211504248 0.9753347636368470	0.125586
H	0.4080366076169242 0.2042485969886510 -0.0018728090069980	0.113099
H	0.1936742754518818 0.5985378413343307 0.9739365395823970	0.126532
H	0.2076255945050554 0.4064668826749916 -0.0025041429933110	0.112466
H	0.2091593831319346 0.8946234819374638 0.0377154745689951	0.114282
H	0.2040732222622896 0.0876625671203487 0.0273414778245281	0.103388
H	0.3945393030146399 0.7210163866576741 0.5318161765098741	0.109990
H	0.5876112051397988 0.7143916590438131 0.5218731802772957	0.104547
H	0.0985876983314724 0.7122327731448074 0.4648959472013149	0.126491
H	0.9067335357959815 0.7225996998475963 0.4911140354563968	0.111353
H	0.7222644995058167 0.3943696850532092 0.5316228103019955	0.110499
H	0.7168735301242884 0.5876907696671122 0.5216051211791557	0.105185
H	0.6961704502150107 0.0986960921955307 0.4710449391201479	0.126632
H	0.7074466190691010 0.9067082223296640 0.4956699883695022	0.111410
H	0.1052240058328150 0.7656649224122527 0.9746891293671291	0.109690
H	0.9124204993267168 0.7679955181687587 0.9837873111939002	0.106669
H	0.4023031278203437 0.8050119768732426 0.0290985280333456	0.126436
H	0.5960736691008011 0.7943762534371015 -0.0002639043413338	0.105193
H	0.8047902794610882 0.4033048847373400 0.0288617587881750	0.126516
H	0.7954861951573111 0.5971792506840481 -0.0006713415897162	0.103963
H	0.7742833460731245 0.1060735052357315 0.9708084395216591	0.109950
H	0.7772078643824077 0.9127625257160713 0.9788925480157170	0.105518
N	0.7759677851173197 0.2719502244249750 0.3035880487625767	-0.117864
N	0.2747806432488443 0.7753543126560558 0.3015864825673540	-0.120322
N	0.7268424599867320 0.2275146448555980 0.1987895101233823	-0.112243
N	0.2280150949343259 0.7261565511137188 0.1993591413365418	-0.111185
N	0.2257539130048344 0.7335730985852629 0.6943337946595562	-0.108426
N	0.7299976890420968 0.2262742040133994 0.6959758005011181	-0.111445
N	0.2748408621908202 0.7700080272957250 0.8067132558715978	-0.114630
N	0.7693975099906806 0.2753138610178513 0.8059971045362838	-0.115447
N	0.4026033173486592 0.2472063300892304 0.2377844632065506	-0.178214
N	0.1002190936998476 0.2542058990745636 0.2593251449668900	-0.176672
N	0.2465397564659625 0.4019509959198158 0.2387368065760453	-0.179198
N	0.2562497043867000 0.0997018628228474 0.2593351734445956	-0.175707
N	0.5990392386559982 0.7534358613628716 0.7611536094822592	-0.176878
N	0.9016784369067969 0.7481299856027225 0.7377224498768360	-0.178067
N	0.7548997225324828 0.5996211286202238 0.7609313303112072	-0.176801
N	0.7453188616589866 0.9020006731649027 0.7374452549593337	-0.177435
F	0.3819724054553175 0.1895992827161802 0.7417354380691016	-0.593638
F	0.2024438406276341 0.3829122049259567 0.7435170258089785	-0.591766
F	0.1421529337813719 0.1479477459861750 0.7784199317658064	-0.588269
F	0.6934938844836308 0.8839286037097640 0.2448535468173331	-0.588264
F	0.8844625439733493 0.7041539010017759 0.2413688766686305	-0.586679
F	0.6477468492651786 0.6452662363491652 0.2713913689968763	-0.587720
F	0.2502354679567119 0.2485327053645103 0.5154130344285864	-0.579847
F	0.2518844501291456 0.2496520282040219 0.9859377705624771	-0.574771
F	0.7488610593973337 0.7493426765531755 0.4854729784096599	-0.571412
F	0.7502191973640546 0.7518292605825118 0.0151485617411484	-0.575748
Fe	0.2457407369120337 0.2432939986517744 0.7518720512915640	1.494956
Fe	0.7448575128704804 0.7470922705345897 0.2512984125122872	1.491375
Co	0.2514149579982198 0.2507432499182552 0.2486771349671315	0.621069
Co	0.7502916978527142 0.7507417780853529 0.7492337969720521	0.616854
	  	
