#======================================================================

# CRYSTAL DATA

#----------------------------------------------------------------------

data_VESTA_phase_1


_pd_phase_name                         FeFFIVE_16_Cu_i
_cell_length_a                         24.90157
_cell_length_b                         24.91698
_cell_length_c                         8.02643
_cell_angle_alpha                      89.79828
_cell_angle_beta                       90.06828
_cell_angle_gamma                      90.19823
_symmetry_space_group_name_H-M         P 1
_symmetry_Int_Tables_number            1

loop_
_symmetry_equiv_pos_as_xyz
   x, y, z

loop_
   _atom_site_label
   _atom_site_fract_x
   _atom_site_fract_y
   _atom_site_fract_z
   _atom_site_charge
C	0.4784032401755694 0.3905390763520827 0.3733894385908273	0.099958
C	0.4776814541059817 0.3348564309139955 0.3696921300398955	-0.167936
C	0.9550193207699668 0.6144229836638891 0.9424478731147642	-0.124432
C	0.9550301576434354 0.5586817017025235 0.9438918521114688	-0.126561
C	0.5193867959995744 0.6099567564237421 0.3675476240934060	0.104177
C	0.5204581204165206 0.6656353078149273 0.3620093736800244	-0.169207
C	0.0451277348672941 0.3864402754348980 0.9438698504742602	-0.123165
C	0.0449953865929211 0.4421850928349266 0.9442116787203915	-0.124898
C	0.6095699962508405 0.4808679283726464 0.3691020835795195	0.094720
C	0.6653008063803443 0.4799105280378391 0.3659444852821346	-0.168761
C	0.3860645503475805 0.9549877940948270 0.9421665543876592	-0.124958
C	0.4418402936733140 0.9550770278825220 0.9437815958193716	-0.126024
C	0.3913438060102070 0.5215947391135819 0.3687679727020380	0.102927
C	0.3356300360732566 0.5225938946723995 0.3635982526165224	-0.168934
C	0.6146233151690838 0.0453919235624246 0.9440749145890551	-0.124556
C	0.5588397829107041 0.0451561162799960 0.9443880682919901	-0.126859
C	0.5218363563563017 0.3908452958278192 0.6303757056219129	0.100700
C	0.5228704155024853 0.3351649036029956 0.6357114923051251	-0.168558
C	0.0454099508159584 0.6145802243241411 0.0559495134690052	-0.124636
C	0.0451665305591126 0.5588297880427361 0.0557689648354888	-0.125624
C	0.4807284379422578 0.6099149360955012 0.6312158252611263	0.095777
C	0.4797117832442951 0.6655953268753793 0.6343207166673038	-0.167496
C	0.9548926221763212 0.3861219832716308 0.0579821446522952	-0.124852
C	0.9550144614158361 0.4418702128750044 0.0565533975825645	-0.126061
C	0.3909220616410853 0.4783057219730019 0.6263151447665359	0.100724
C	0.3351996593921545 0.4776440242908190 0.6301859248483542	-0.168525
C	0.6143946542133466 0.9549914517421472 0.0578665160454693	-0.124208
C	0.5586154592541417 0.9550206125367964 0.0566156708766104	-0.126215
C	0.6093836548812301 0.5192687192557156 0.6329512508815655	0.102857
C	0.6650721310115144 0.5203002935541111 0.6384621816970603	-0.169904
C	0.3863056413823539 0.0451317673666654 0.0560299742172196	-0.124022
C	0.4420833310662496 0.0449710337009894 0.0558654203778991	-0.126475
C	0.5451807734075298 0.8864389356857522 0.5563550932964909	-0.123192
C	0.5450389881504196 0.9421639788095175 0.5561507104862538	-0.126056
C	0.0187543040741932 0.1093979328276412 0.1330740670933646	0.103871
C	0.0197027375820633 0.1650660053453574 0.1387629960238206	-0.169487
C	0.4550224404631880 0.1141036646465315 0.5577392981643772	-0.125119
C	0.4550336253764238 0.0583789153100803 0.5565261914534899	-0.125559
C	0.9787153832564477 0.8905690186449337 0.1261010112269031	0.100184
C	0.9779679477803623 0.8348680953229579 0.1296044187504191	-0.168413
C	0.1146038413249213 0.5452511555830867 0.5564984826649124	-0.125551
C	0.0588206087573456 0.5450536778640922 0.5560579551155858	-0.126502
C	0.8915325035525805 0.0212124013664917 0.1310910708223675	0.101240
C	0.8358211905187830 0.0221628362288189 0.1367100393087874	-0.167854
C	0.8861097951940294 0.4548919586553996 0.5586584912833544	-0.124618
C	0.9418923330500144 0.4550275294254023 0.5570387184122023	-0.126180
C	0.1097706272270823 0.9814279549013247 0.1324409757292780	0.096091
C	0.1655019287611205 0.9804112472457744 0.1355701685979364	-0.169003
C	0.4548107781371608 0.8863637656329126 0.4422338833736105	-0.123825
C	0.4549239494164124 0.9420914276352956 0.4437016716733036	-0.126168
C	0.9812003792114246 0.1099733028408285 0.8675086285377925	0.094981
C	0.9801377152717489 0.1656808449562144 0.8645518558559191	-0.168968
C	0.5453599475390936 0.1144796322119889 0.4440979315280276	-0.125635
C	0.5451281664778684 0.0587469189620072 0.4444507592595051	-0.126050
C	0.0214458449558747 0.8914926511053577 0.8682517463290185	0.104142
C	0.0224095821954199 0.8358081474521715 0.8627475552207904	-0.169166
C	0.8862420261411493 0.5451759354760302 0.4437998040596360	-0.123604
C	0.9420190958189861 0.5450604443256324 0.4439885964717133	-0.126833
C	0.1093907780493043 0.0186152088283300 0.8660587775697357	0.102820
C	0.1650866302839754 0.0196018309804857 0.8604835974235227	-0.169767
C	0.1142698473493350 0.4551582078546056 0.4421723812771427	-0.125736
C	0.0584926644822821 0.4552160123772498 0.4434644942089666	-0.124924
C	0.8907284615418829 0.9786950548036105 0.8732057404340599	0.100303
C	0.8350002744103149 0.9779710144924666 0.8698091974519998	-0.169018
C	0.5003319883049354 0.3058528341479200 0.5030473201742972	0.173256
C	0.5004641529934167 0.2489506249481875 0.5032565148906899	-0.114046
C	0.5003886070100492 0.2000003731583012 0.5022270866660731	-0.095953
C	0.5002664051377826 0.1431020839038538 0.5012749288067653	0.125115
C	0.5000357382877217 0.0298460433085043 0.5003618766198691	0.066462
C	0.0002693416107729 0.8061800264937891 0.9958246468028701	0.173864
C	0.0004558261619300 0.7492560306618115 0.9958711484028850	-0.115270
C	0.0004362848216377 0.7003006510545544 0.9973286231545432	-0.093904
C	0.0002925099193225 0.6433687739975318 -0.0013419671807371	0.124075
C	0.0000713937733188 0.5299351502133796 -0.0000263611923801	0.067442
C	0.5000724490719598 0.6948195788557147 0.4977634264391650	0.173562
C	0.5000970841029925 0.7517387264987828 0.4973888971528746	-0.115327
C	0.5000465381615424 0.8006903662342002 0.4981079494836413	-0.096017
C	0.5000223254117521 0.8575982951040023 0.4988763370300471	0.124040
C	0.4999857816446504 0.9708474914092552 0.5000940409502476	0.067608
C	-0.0000828577658082 0.1945840441072142 0.0021414789083270	0.174553
C	-0.0000271733177573 0.2515244043267930 0.0025910268442159	-0.116454
C	0.0000038676402921 0.3004802247884922 0.0020031970373172	-0.092624
C	0.0000199385820224 0.3574183172947821 0.0013247544343740	0.122929
C	0.0000231771485789 0.4708471686295381 0.0002094008812181	0.067185
C	0.6943941421197645 0.5001188646920925 0.5026851834004979	0.172838
C	0.7513593169306529 0.5001802232121680 0.5031462402600221	-0.113751
C	0.8003498728400796 0.5001063537207519 0.5025036528744825	-0.095240
C	0.8573180516014641 0.5000583289244827 0.5016886540877802	0.123139
C	0.9707605212634997 0.5000511098567730 0.5002702316998512	0.068359
C	0.1944859354721318 -0.0000044267615471 0.9975493066567407	0.173668
C	0.2514271419485267 0.0000737513015453 0.9970561767924936	-0.114310
C	0.3004025298298545 0.0001002584492116 0.9977607186917640	-0.094681
C	0.3573405377760266 0.0000842863287555 -0.0014111808406554	0.123700
C	0.4707809181235955 0.0000327145634323 0.0000465160348310	0.068840
C	0.3062293230184290 0.5002214816482378 0.4966957782801755	0.174772
C	0.2492720954126500 0.5003944285368994 0.4968550050672945	-0.115381
C	0.2002829162157519 0.5003596860099455 0.4981016163202142	-0.094952
C	0.1433084700221935 0.5002666000548611 0.4989804755663703	0.125306
C	0.0298583564188725 0.5001018508266065 0.4998710782058921	0.065980
C	0.8062383476787375 0.0001597841885761 0.0036765814527898	0.174305
C	0.7493027150320347 0.0003595918272238 0.0037686460004132	-0.116405
C	0.7003258724212716 0.0003778543347500 0.0024606395582647	-0.093284
C	0.6433708550986826 0.0002623087781882 0.0014137363306996	0.123596
C	0.5299054113498027 0.0000628964089286 0.0004032903888811	0.069226
H	0.4619026879901414 0.4141506114112888 0.2705813568920866	0.107689
H	0.4598952710176110 0.3141064836050764 0.2638869029489577	0.127177
H	0.9201400251849851 0.6362762404275599 0.8965913153438749	0.111752
H	0.9201676942385490 0.5368439840754572 0.8966949827787014	0.106465
H	0.5331546041470510 0.5859308930642024 0.2630364223931619	0.102903
H	0.5364965668064660 0.6862573979413068 0.2531255627031578	0.125712
H	0.0799851220811077 0.3646819120156858 0.8981531068246094	0.110715
H	0.0797611831564603 0.4641091196236892 0.8964831299416677	0.105864
H	0.5859948851429159 0.4671693438076195 0.2626089216057420	0.112800
H	0.6859246960024326 0.4639580754213722 0.2574981463480104	0.127854
H	0.3640317173370352 0.9201861585068807 0.8962467703579982	0.111931
H	0.4635297789939929 0.9203366683183027 0.8966623058930916	0.106471
H	0.4156488650757637 0.5381068757683702 0.2676906245390809	0.103443
H	0.3151373240367859 0.5404806248525570 0.2573194844381655	0.125919
H	0.6366427663655133 0.0803132202715076 0.8983799020232106	0.111836
H	0.5371372225369244 0.0799141207983103 0.8964979111528822	0.106417
H	0.5383422680758457 0.4150444876456489 0.7314196815337787	0.104241
H	0.5407904889062259 0.3145900770159474 0.7417740871634121	0.125684
H	0.0803484295285142 0.6365494019551451 0.1014189981347722	0.111812
H	0.0799307340422063 0.5371032853689246 0.1035577387364841	0.106225
H	0.4669942353879410 0.5863118389375287 0.7379976835856439	0.112582
H	0.4635940360820133 0.6861884776795029 0.7425935392880259	0.126178
H	0.9200284444063831 0.3640974068338517 0.1039990104700836	0.112062
H	0.9202589706172229 0.4635126767070976 0.1039854799209544	0.106741
H	0.4145620496414106 0.4619255732340213 0.7291071053958531	0.107909
H	0.3144442466839457 0.4599585216159053 0.7363543704991858	0.127557
H	0.6362544825661642 0.9201201638860266 0.1036688176088005	0.111430
H	0.5367512674561732 0.9201580157408321 0.1039906094395908	0.106129
H	0.5852118762452971 0.5329522836466478 0.7373530886347180	0.103380
H	0.6855879269558042 0.5361625616883092 0.7476028798371035	0.126423
H	0.3644688833650971 0.0799362856356515 0.1015526197565085	0.111140
H	0.4639717891448435 0.0796573827248642 0.1037504879120781	0.106511
H	0.5800961009241883 0.8645726601412660 0.6020378732126771	0.110431
H	0.5797640296835977 0.9640721205394205 0.6039608501265977	0.106278
H	0.0320438947539438 0.0851112139698921 0.2381865296832124	0.102828
H	0.0352308584984316 0.1853127048050229 0.2487290984370497	0.125859
H	0.4201971931378558 0.1358827347530568 0.6036378743941505	0.111698
H	0.4202576044631912 0.0363825002525764 0.6038979352431459	0.106236
H	0.9625621063534499 0.9139884661817606 0.2291898531340717	0.107282
H	0.9604440563552596 0.8139116469865495 0.2357368770421329	0.127755
H	0.1366447248283192 0.5800567902595110 0.6023738815073638	0.112089
H	0.0371511739779491 0.5796753758951525 0.6041328354703881	0.106819
H	0.9159461657925008 0.0374546098033785 0.2321943781089227	0.103055
H	0.8155116092495970 0.0396758468924617 0.2433585128837099	0.126494
H	0.8641565100304111 0.4200310712178648 0.6050515144749554	0.111863
H	0.9636240181758038 0.4202459773886278 0.6046550604815383	0.106334
H	0.0862678637710858 0.9682555430389104 0.2398754197759917	0.112582
H	0.1861891645355717 0.9648654830669068 0.2450016377862781	0.127487
H	0.4199190079852536 0.8644506496156915 0.3961222014496353	0.111782
H	0.4201749924714271 0.9639357401878056 0.3963177129096584	0.106386
H	0.9679021781127713 0.0865565883354135 0.7602990282576776	0.112753
H	0.9644298891167650 0.1864243913950246 0.7554511572554702	0.127261
H	0.5802867441971841 0.1365280042705279 0.3985350520794492	0.111951
H	0.5798104035216780 0.0370244927747829 0.3968065806587344	0.106398
H	0.0377736140847122 0.9159296052169514 0.7670919220014366	0.101778
H	0.0400539546023878 0.8155623190776633 0.7562152121483037	0.126702
H	0.8643728106766331 0.5800279649145864 0.3977959486613791	0.110901
H	0.9638518986986344 0.5798226104724269 0.3958123260897729	0.106692
H	0.0851819835832297 0.0317733166680964 0.7606609598347696	0.103156
H	0.1854987339190315 0.0350361203633763 0.7504269118260979	0.125962
H	0.1360443032543965 0.4203984488417424 0.3960995726658241	0.112128
H	0.0365594103876875 0.4204952218718284 0.3959739964740205	0.105899
H	0.9142073378159180 0.9626460886375097 0.7700542668872856	0.107835
H	0.8140673676318422 0.9605531613454487 0.7637493324773161	0.128051
Cu	0.5002211614237987 0.5002172644275852 0.5000577699644012	0.742321
Cu	0.0002748376952415 0.0002753213484249 -0.0003067406347978	0.742820
Fe	0.4967915045782193 0.4966696396175860 0.0001216406438656	1.509284
Fe	0.9967504998440168 0.9965694881274897 0.4997033567042842	1.510676
F	0.5011284513754130 0.4981572350707362 0.2374392702875335	-0.597838
F	0.9972440468081285 0.0011012985849763 0.7371071573703111	-0.597424
F	0.4974888225039378 0.5003146372211608 0.7625912506689140	-0.598267
F	0.0015647480684415 0.9973336901435609 0.2623310708860417	-0.597794
F	0.4430642552800874 0.4437833461098403 0.0026823935455623	-0.610719
F	0.9435145058470816 0.9433031036909452 0.4993295059401548	-0.607562
F	0.4740453540269469 0.5688474870312974 0.0066183551443661	-0.617582
F	0.9730349733787130 0.0683131295587490 0.4890498054940459	-0.614659
F	0.5685092054056246 0.4727341407161811 0.9917344667089272	-0.617363
F	0.0687369353397536 0.9733793356013519 0.5102273235576541	-0.614274
N	0.5000633334264687 0.4178834777799138 0.5015781857365049	-0.221045
N	0.0000696171042521 0.9182193577861208 0.9975882319632756	-0.222490
N	0.5001154948598544 0.5826756474802228 0.4997377032455637	-0.228515
N	0.0001016435773534 0.0824281089695958 -0.0001377637808848	-0.227146
N	0.5822143617028561 0.5001366333203703 0.5006429469965000	-0.225224
N	0.0823278932022092 0.0000963150375431 0.9995939171489208	-0.227009
N	0.4183417513878586 0.4999187131992436 0.4978025601159651	-0.222011
N	0.9183304100791053 -0.0000558305586819 0.0016856783141974	-0.221451
	  	
