#======================================================================

# CRYSTAL DATA

#----------------------------------------------------------------------

data_VESTA_phase_1


_pd_phase_name                         FeFFIVE_7_Zn
_cell_length_a                         19.53766
_cell_length_b                         19.02631
_cell_length_c                         7.78523
_cell_angle_alpha                      90.67062
_cell_angle_beta                       89.34857
_cell_angle_gamma                      89.97597
_symmetry_space_group_name_H-M         P 1
_symmetry_Int_Tables_number            1

loop_
_symmetry_equiv_pos_as_xyz
   x, y, z

loop_
   _atom_site_label
   _atom_site_fract_x
   _atom_site_fract_y
   _atom_site_fract_z
   _atom_site_charge
C	0.6614166573161236 0.8695506403822112 0.7068276675748495	0.102299
C	0.6108369200056412 0.9209705883865691 0.7098185771928072	-0.177894
C	0.5822134309978447 0.8870127655313526 0.4215843346328956	-0.171083
C	0.6330759901650466 0.8362401532331712 0.4283356960044364	0.102771
C	0.8387941741328764 0.6278316373416831 0.7027964015731859	0.100204
C	0.8899643385257886 0.5772493822753101 0.7078449042458086	-0.182383
C	0.9228743114128743 0.6103674332074048 0.4223975950124310	-0.177321
C	0.8707308299895786 0.6599896057407540 0.4269953547318364	0.094723
C	0.6324874056611191 0.6565572455661833 0.7114770352749656	0.092181
C	0.5809017810820880 0.6062727840017758 0.7142492508520760	-0.180731
C	0.6072267880838471 0.5793959661785779 0.4192198796200727	-0.176972
C	0.6577455197667258 0.6305101391296203 0.4258014796155347	0.096851
C	0.8703650191872370 0.8337489988426052 0.7032832693389585	0.100992
C	0.9217640604312667 0.8842240129179059 0.7060893942436351	-0.177563
C	0.8849386129436135 0.9218239617236179 0.4286837603208334	-0.171989
C	0.8345007608199676 0.8705243551633373 0.4351194909112430	0.100949
C	0.3336356488312899 0.3717805960033201 0.3007680345430975	0.103450
C	0.3843129668715944 0.4230052058476359 0.2955352687266287	-0.176855
C	0.4196505460129584 0.3863168025830070 0.5748449868687051	-0.172759
C	0.3683517100409013 0.3359399588468904 0.5705980172945631	0.101054
C	0.1580875574901791 0.1292885371320540 0.2917477334494069	0.100581
C	0.1062835779741115 0.0793236132082579 0.2860795851993457	-0.181003
C	0.0811675011961483 0.1065534756663406 0.5815545154311359	-0.177688
C	0.1336444574432554 0.1556966692800889 0.5775034031271088	0.091883
C	0.3724106561057896 0.1607654523553544 0.2913439136895963	0.096956
C	0.4243149878050603 0.1106736337935417 0.2876896642257354	-0.181571
C	0.3915384087294014 0.0784494948490605 0.5738030063775835	-0.176295
C	0.3410382249748728 0.1295456682058630 0.5683350659409433	0.099260
C	0.1311952828330260 0.3335194534919813 0.2937512715223831	0.102884
C	0.0808339244302818 0.3850642609149463 0.2888379972242752	-0.176814
C	0.1124887933539304 0.4202352723284010 0.5741630305029821	-0.172797
C	0.1622613561140338 0.3682026556677201 0.5693724366963339	0.102328
C	0.4352614391439958 0.0679490347615105 0.4310043065673664	0.141131
C	0.4892487911389315 0.0149483612822122 0.4273507986766050	-0.122529
C	0.0698648177406549 0.4295463908755365 0.4318856895177349	0.136632
C	0.0164312103835740 0.4830358553874884 0.4283278849403022	-0.112735
C	0.4286389679897469 0.4317124014069645 0.4350770646640299	0.137028
C	0.4817593805791261 0.4855050613613372 0.4303997509777951	-0.112438
C	0.0665886497426339 0.0661534116541520 0.4339505119061353	0.140341
C	0.0125463035430069 0.0133297220486641 0.4294152950687741	-0.120353
C	0.5667594029983468 0.5662641220757186 0.5659392297226564	0.145607
C	0.5127459728681670 0.5134433706923168 0.5695307137469977	-0.129801
C	0.9306097670538193 0.9294257560562457 0.5660214266857525	0.141907
C	0.9850203495950386 0.9818799000929906 0.5686373680706200	-0.123156
C	0.5701292032154595 0.9313433582259867 0.5645400183354085	0.141772
C	0.5172821289727287 0.9855682160232937 0.5671882499586736	-0.122016
C	0.9332988007235217 0.5667816960490117 0.5644687154027437	0.147351
C	0.9865253803475706 0.5130978441852555 0.5681040378127629	-0.128783
H	0.6936944931020099 0.8610592058691043 0.8185206266974626	0.102885
H	0.6037093715365659 0.9532670633838927 0.8251677527551412	0.116243
H	0.5515428257284792 0.8907473744893939 0.3061496149279295	0.116438
H	0.6431832125895518 0.8008889759678367 0.3196314737054237	0.096441
H	0.8048291857094680 0.6378243320252995 0.8122286137329250	0.091735
H	0.8959055900074158 0.5457225998231910 0.8226713102899094	0.114456
H	0.9560605970096691 0.6069436363200276 0.3092506014727823	0.116478
H	0.8616124612567930 0.6943466029341803 0.3179912604025069	0.103273
H	0.6443691223314243 0.6877855568483138 0.8260542576349854	0.103930
H	0.5514537788322188 0.5987246513551651 0.8323509882186760	0.115675
H	0.6003466710060613 0.5495655083504742 0.3004348949227916	0.114648
H	0.6884997530857819 0.6431929446455429 0.3129082367370585	0.094548
H	0.8624866311906222 0.7980306942201912 0.8107186512946872	0.100318
H	0.9552375068706292 0.8879078217565837 0.8169191381780622	0.114386
H	0.8872607036009993 0.9563962414581503 0.3182183707583510	0.117711
H	0.7984025409861707 0.8638568814287990 0.3299707192962373	0.100180
H	0.2986698779172588 0.3644844384037557 0.1933996980985364	0.098188
H	0.3887048536112969 0.4562919113830576 0.1828985819518334	0.114698
H	0.4532241908536863 0.3887831300720351 0.6855022748175198	0.114816
H	0.3605333407122631 0.2998590762961286 0.6771828414923268	0.101668
H	0.1887645742582116 0.1417584825311511 0.1784906451908793	0.096043
H	0.0969462409912818 0.0506022855821830 0.1666746377872913	0.112027
H	0.0509169582985822 0.1012984996971061 0.6991036445249516	0.115079
H	0.1454655525689483 0.1878742592923097 0.6906495979780495	0.105900
H	0.3626615305639744 0.1941569353283648 0.1807884607888440	0.107593
H	0.4565796064714911 0.1053140686737877 0.1730859925378695	0.114597
H	0.3958259573374112 0.0462591393461846 0.6879229825928722	0.112616
H	0.3072159756778637 0.1399083878289987 0.6778387912234440	0.093448
H	0.1404399652361929 0.2980179720016920 0.1846430572457334	0.101635
H	0.0499280442397120 0.3900877409387500 0.1739637834237947	0.115074
H	0.1083477814141395 0.4540999212309416 0.6875073878106813	0.115363
H	0.1961476098895270 0.3605048681580463 0.6782419984091077	0.097437
H	0.5089361897346049 0.0000740463856374 0.2998920977557887	0.102262
H	0.9985125492194722 0.4972986534972353 0.3007339663156673	0.098897
H	0.4951213042558679 0.5052040460275010 0.3028322501676060	0.099104
H	-0.0045340255922691 0.9973483563522983 0.3014109078775207	0.101080
H	0.4955295067761432 0.4975276500542988 0.6975334069070649	0.102076
H	0.0057987464486740 0.9941834226418046 0.6954597643315790	0.099808
H	0.5012940316713939 0.0044163667660869 0.6947805752048798	0.100601
H	0.0007193514341652 0.4948620763043157 0.6956159934723054	0.101976
Zn	0.2502581767593017 0.2472001479409649 0.4327173997875797	0.729441
Zn	0.7494642472423065 0.7476248260776265 0.5692356532474812	0.735993
Fe	0.2506682192582851 0.2602755179209371 0.9340251054176540	1.377061
Fe	0.7498732373842438 0.7585408465714231 0.0698891758456913	1.268230
F	0.2531006770271171 0.2438379905665380 0.1710809606732219	-0.540316
F	0.2484914000614296 0.2465148254394357 0.6947328726967991	-0.540847
F	0.7481193299086001 0.7467267133712479 0.8303477952881668	-0.491479
F	0.7536467189080867 0.7447147782645648 0.3078400625370378	-0.486202
F	0.1590089340420458 0.2340193180127327 0.9417375672453545	-0.599260
F	0.2483369500300215 0.3592597047265217 0.9404206200846075	-0.548287
F	0.3429362276334424 0.2365936954650422 0.9236543789888868	-0.601218
F	0.7374025823363437 0.8568407142781964 0.0785948633666714	-0.589231
F	0.8434840455622407 0.7418684141723825 0.0587831611521633	-0.541584
F	0.6619439979989805 0.7212862493640383 0.0789127872489099	-0.536826
N	0.3311160566929114 0.1698683989227162 0.4296966036923460	-0.220877
N	0.1712574951941541 0.3252817421821517 0.4317171598973460	-0.219894
N	0.3260029300581002 0.3287723977076481 0.4358573000865997	-0.223566
N	0.1720354221321396 0.1666289017407219 0.4349742600964557	-0.222265
N	0.6705530010563368 0.6684305654544379 0.5692942746675487	-0.226552
N	0.8275267608715590 0.8269868314342516 0.5697563950896992	-0.226944
N	0.6722446390866667 0.8277581797805721 0.5681753694994868	-0.230049
N	0.8289017581571579 0.6683481929608320 0.5649129064394619	-0.224269
	  	
