#======================================================================

# CRYSTAL DATA

#----------------------------------------------------------------------

data_VESTA_phase_1


_pd_phase_name                         FeFFIVE_6_Cu_i
_cell_length_a                         17.56232
_cell_length_b                         17.58293
_cell_length_c                         16.06903
_cell_angle_alpha                      90.08858
_cell_angle_beta                       90.06010
_cell_angle_gamma                      89.98237
_symmetry_space_group_name_H-M         P 1
_symmetry_Int_Tables_number            1

loop_
_symmetry_equiv_pos_as_xyz
   x, y, z

loop_
   _atom_site_label
   _atom_site_fract_x
   _atom_site_fract_y
   _atom_site_fract_z
   _atom_site_charge
N	0.2434718143741628 0.1339860463380883 0.1281213614372611	-0.230122
N	0.2579773459198071 0.3658860470948490 0.1277926368530367	-0.229069
N	0.3657678635236159 0.2419484943447197 0.1280350282310073	-0.227576
N	0.1345307986867370 0.2566952361782651 0.1265422489374481	-0.228108
N	0.7580756676807502 0.6339967962461067 0.3719329164003449	-0.229630
N	0.7434718261157491 0.8657861536600171 0.3731733758729717	-0.228247
N	0.6343487916275256 0.7420131023251808 0.3722579689051180	-0.228953
N	0.8658072510909086 0.7565285926915226 0.3716929339977963	-0.229382
N	0.7582313958813042 0.8663131964893676 0.8721634972360292	-0.229036
N	0.7431033585137961 0.6338276980795263 0.8719713923457237	-0.230577
N	0.6344915802867370 0.7571974981110423 0.8733406775678718	-0.226810
N	0.8655903752241770 0.7416431483092850 0.8715475611737757	-0.229764
N	0.2432120027918539 0.3659538020154317 0.6264914249252119	-0.228251
N	0.2582500153136256 0.1339331381444629 0.6279389859644352	-0.230006
N	0.3655003186488056 0.2565021876277750 0.6281360667648170	-0.228064
N	0.1345485920231204 0.2421556058564342 0.6277630602840579	-0.228431
C	0.2054100590755552 0.0972470219808843 0.1885254086481546	0.108315
C	0.1967096396003288 0.0186688755261576 0.1877398721020818	-0.179239
C	0.2310995540560357 0.9757733590790602 0.1245284199284926	0.112906
C	0.2721893390934949 0.0149354814432606 0.0633006708603140	-0.178954
C	0.2759556621885973 0.0937974906934414 0.0663030378215961	0.103832
C	0.2254349996624201 0.8921360053873543 0.1233010815597732	0.061829
C	0.2907654017264110 0.8482059608098844 0.1203273874167372	-0.175174
C	0.2867848887754229 0.7679528182071338 0.1221891442674048	0.085137
C	0.1471059224395725 0.7781752800097921 0.1247579846903990	-0.125271
C	0.1529573678358029 0.8561949116661633 0.1266322614433809	-0.136726
C	0.2953995869002364 0.4023889927731110 0.1892642000770464	0.098608
C	0.3034213033139334 0.4810695452191122 0.1895195283968836	-0.180184
C	0.2694459065970963 0.5242396181529642 0.1262912684764678	0.107310
C	0.2296418038676092 0.4852217857484892 0.0638490939533449	-0.177681
C	0.2261712681308091 0.4062391295810808 0.0656701226179746	0.098599
C	0.2749821114799140 0.6078715571214057 0.1253673741973915	0.063879
C	0.2095820193688273 0.6517481319291246 0.1217448128735518	-0.174614
C	0.2134166955749298 0.7320614127130712 0.1224400250071055	0.085542
C	0.3531014398746001 0.7218758054437657 0.1254577185813925	-0.125863
C	0.3473896469171440 0.6438645145220205 0.1285449481301097	-0.136707
C	0.4020852503170406 0.2036134127061041 0.1886692845720703	0.100952
C	0.4807656010909990 0.1953650796879767 0.1890691325902194	-0.182714
C	0.5240973382969101 0.2303010782171176 0.1265994677250226	0.113185
C	0.4852275526247316 0.2708668909634326 0.0647283802791341	-0.175444
C	0.4062200584176401 0.2742808545898383 0.0665156785216304	0.106743
C	0.6078585767959176 0.2247405201623934 0.1255883033763478	0.060951
C	0.6517513011122222 0.2900393180905214 0.1220859522527957	-0.175251
C	0.7321322964659416 0.2860947681691031 0.1223753786470600	0.085933
C	0.7219854861870602 0.1465557194810952 0.1248946972965719	-0.125068
C	0.6439344909995034 0.1523595289319536 0.1283197633680081	-0.134414
C	0.0976879115772681 0.2941146119168757 0.1875832384397959	0.101037
C	0.0189616065577434 0.3022688253441277 0.1870111347579247	-0.180524
C	0.9762135698022716 0.2684106780600287 0.1233005214878316	0.110101
C	0.0156019612699840 0.2282133088464688 0.0614273010627801	-0.179894
C	0.0946119292519095 0.2245545370933658 0.0641513298574689	0.100972
C	0.8924672967790259 0.2740194121122764 0.1223367135748783	0.062496
C	0.8484200969254935 0.2088126108669089 0.1193820564194123	-0.174788
C	0.7680542843008232 0.2127841784872965 0.1216535746131504	0.085118
C	0.7783536455320808 0.3522947918172089 0.1247083453763504	-0.126134
C	0.8564799302912738 0.3463686291430352 0.1261388309479075	-0.136436
C	0.7963561623253794 0.5975997617675604 0.3112627486831689	0.102430
C	0.8046090965411183 0.5190106321597319 0.3109174404081094	-0.183008
C	0.7697476735829000 0.4757415397895771 0.3735035911395224	0.113523
C	0.7292497894884281 0.5146583028124516 0.4353733496047087	-0.176598
C	0.7258242365677566 0.5935914119688355 0.4335523156906022	0.108028
C	0.7752738087639020 0.3920782637485464 0.3745249881060461	0.061631
C	0.7098996743903714 0.3482072504575291 0.3780340611661867	-0.175450
C	0.7138334549304716 0.2678908858195565 0.3777274625104335	0.086027
C	0.8534912849821231 0.2780368081164903 0.3751691761573561	-0.123922
C	0.8477294280344266 0.3560293680072145 0.3717678728152264	-0.135489
C	0.7060782529055762 0.9026177872296922 0.3121272668319596	0.100241
C	0.6978087243932227 0.9812427551067455 0.3127739743690286	-0.179948
C	0.7315053247296937 0.0239991669049463 0.3765781127568946	0.109830
C	0.7716513953722786 0.9846421896797511 0.4384435377658936	-0.180100
C	0.7754647387352350 0.9057239284843389 0.4356519237873667	0.100026
C	0.7259230669161846 0.1076535124809335 0.3776181670934299	0.062994
C	0.7911843212572708 0.1516846701390187 0.3806214379186572	-0.174910
C	0.7871923113154282 0.2319701685230282 0.3784095879751704	0.084449
C	0.6475752831882737 0.2216831267466934 0.3754386099201099	-0.125442
C	0.6534755324709151 0.1436196580239698 0.3739333830785677	-0.136558
C	0.5978921471796170 0.7045124878042084 0.3108674498843611	0.099728
C	0.5191527835698200 0.6965551646081797 0.3106127804141117	-0.181032
C	0.4759315078160829 0.7306328845681200 0.3738232046079147	0.107314
C	0.5149531731502252 0.7705453749103798 0.4361729760806560	-0.177825
C	0.5940053799990447 0.7739827563970244 0.4343155644566757	0.099532
C	0.3922088545091936 0.7250985898055157 0.3746971964713930	0.064131
C	0.3483445312007100 0.7904337878650207 0.3782194414158916	-0.174790
C	0.2679840415267135 0.7865754156657142 0.3774866292108765	0.085534
C	0.2781147978052141 0.6470132241756090 0.3745352200928029	-0.126147
C	0.3561913418496252 0.6527576497958748 0.3715368126140530	-0.136933
C	0.9025741476369347 0.7945706514357387 0.3113295379457238	0.108865
C	0.9812353717146302 0.8032371411613730 0.3122023059833702	-0.178745
C	0.0240803846635549 0.7688590558673458 0.3754509142871520	0.113044
C	0.9848494924572596 0.7277134578625950 0.4365704786740479	-0.180166
C	0.9059105636896447 0.7239865718320985 0.4334897598603719	0.104393
C	0.1077866997667471 0.7745788876965227 0.3766864590644065	0.062178
C	0.1517452659163550 0.7093161406224217 0.3796017222331276	-0.175348
C	0.2320642678038086 0.7132829429790346 0.3777433944400994	0.085371
C	0.2218464664736877 0.8528266715110108 0.3751464869134552	-0.125391
C	0.1437395112821870 0.8469464761391012 0.3733417791011331	-0.137050
C	0.7954883089789342 0.9024980415333328 0.8106964443928871	0.099835
C	0.8033277976758043 0.9811875846673150 0.8104976872445859	-0.179796
C	0.7693502964072897 0.0244141385815241 0.8737620915963641	0.107535
C	0.7296071788441616 0.9855746387909450 0.9361381685017045	-0.179234
C	0.7263587401230387 0.9065656168289200 0.9343106441676091	0.098504
C	0.7748869266870390 0.1080180463246539 0.8746593706885814	0.063735
C	0.7095234605903279 0.1519009206828357 0.8781397894621532	-0.175117
C	0.7134940201258296 0.2321831869846299 0.8775635065161176	0.085752
C	0.8531775032689816 0.2219055202862853 0.8746299338014187	-0.125934
C	0.8473471571767555 0.1439110387490185 0.8715538149395974	-0.136469
C	0.7050915387256770 0.5969382310380004 0.8115163389869051	0.107945
C	0.6967048874370876 0.5183354340461456 0.8123974436757527	-0.178531
C	0.7313413184794392 0.4758306084911584 0.8757172934546198	0.112598
C	0.7724017307681192 0.5152577466131103 0.9369498397929782	-0.179425
C	0.7758144363040932 0.5941470395098265 0.9338996156406747	0.105074
C	0.7256906195048390 0.3922233109476272 0.8769256964096468	0.062716
C	0.7909913794419766 0.3482603185227368 0.8797502824195448	-0.174659
C	0.7868891733584220 0.2680222536017116 0.8778780562095708	0.084797
C	0.6472075998331037 0.2783400346342221 0.8753682721854008	-0.125353
C	0.6531744017536240 0.3563547713365833 0.8736310417706218	-0.137975
C	0.5975471840938368 0.7946618190416533 0.8124956102953762	0.099596
C	0.5187987444871092 0.8026760404261788 0.8131948247810036	-0.179690
C	0.4761934538175884 0.7686997272924952 0.8767786990595893	0.109405
C	0.5158139717279175 0.7286964946142688 0.9385526867303815	-0.180617
C	0.5948690448953308 0.7251032691155563 0.9357565331634576	0.100265
C	0.3924000826654019 0.7740911231972255 0.8777074477088165	0.064399
C	0.3484484469778082 0.7088337127699738 0.8806980539502482	-0.175727
C	0.2680427435574351 0.7127073555938028 0.8784702033833819	0.085517
C	0.2780830908521721 0.8521462123720107 0.8753884939204624	-0.125758
C	0.3562289154914251 0.8463818474991373 0.8739415096645748	-0.136986
C	0.9017522057666636 0.7030403936113839 0.8110104130350713	0.101906
C	0.9804536319211071 0.6947187161060271 0.8108066504657794	-0.181804
C	0.0239012189276427 0.7298079952518958 0.8733509648765739	0.112768
C	0.9850682193830890 0.7705089484135375 0.9351768617017254	-0.176070
C	0.9060196376477332 0.7740197976898385 0.9332229084203236	0.109116
C	0.1077163528444221 0.7243685550368745 0.8744179435889818	0.060917
C	0.1515105768153957 0.7897435197403980 0.8778628240924774	-0.174245
C	0.2319217051338191 0.7859025781897014 0.8776687753631166	0.085053
C	0.2220119752919904 0.6464157854954794 0.8753737453533886	-0.123481
C	0.1439289250471444 0.6520401510343609 0.8718656630731633	-0.137186
C	0.2059396416208778 0.4029983648964802 0.6875352360123160	0.098525
C	0.1977485773873447 0.4816312863932693 0.6869765323093744	-0.180560
C	0.2315076052032092 0.5242215973377429 0.6232775979089268	0.109927
C	0.2715951629756085 0.4847475732834761 0.5614157580445094	-0.180337
C	0.2752223122082222 0.4057873881204229 0.5641348951127770	0.100224
C	0.2259333115653985 0.6078432431485470 0.6223530463426664	0.063199
C	0.2912264621828878 0.6517743723385767 0.6194028622242840	-0.174219
C	0.2872446787536381 0.7320327968145900 0.6216883891183639	0.084434
C	0.1475629703754666 0.7218382792929470 0.6247582658513382	-0.125704
C	0.1534847550103969 0.6437980318998257 0.6261410310557523	-0.136991
C	0.2965334253616771 0.0976993382353653 0.6887030941985554	0.103078
C	0.3047151629365853 0.0190806668945275 0.6891840810664449	-0.183226
C	0.2697359326444332 0.9756439248995059 0.6266101183354803	0.113483
C	0.2291031280744964 0.0143172286869503 0.5646694798434951	-0.176331
C	0.2258302857870490 0.0932811711474396 0.5664033857756905	0.108161
C	0.2752959618030742 0.8920107406282825 0.6256463007233681	0.061229
C	0.2098957464678252 0.8482241294368733 0.6221950961891757	-0.174861
C	0.2138605241691406 0.7679572907194191 0.6224486296269782	0.085310
C	0.3535849149580316 0.7780252567786130 0.6249286323443028	-0.123487
C	0.3477850985422477 0.8560016781186399 0.6283674873344607	-0.136385
C	0.4023110843328161 0.2946456567995011 0.6886128948522600	0.107647
C	0.4809775647813621 0.3033194707162464 0.6878712130349509	-0.178286
C	0.5238262490968357 0.2688285080363976 0.6246397227291450	0.114194
C	0.4844917011347438 0.2276724344126543 0.5633584799330580	-0.181463
C	0.4055602174995127 0.2239062203908271 0.5663237851331282	0.105189
C	0.6075895118056351 0.2745081338973753 0.6234763265679066	0.061200
C	0.6516303944222482 0.2092598738502487 0.6205182352815263	-0.175118
C	0.7319967107258125 0.2132370604091857 0.6223766741873742	0.084994
C	0.7216982503506575 0.3527178035630809 0.6248859399843700	-0.124848
C	0.6435935402310765 0.3468854418988009 0.6267473555245738	-0.136962
C	0.0982878422515574 0.2047009254841705 0.6891406229184918	0.100011
C	0.0195536528841511 0.1966665480291479 0.6894059098005689	-0.181305
C	0.9760873905908397 0.2306362034303978 0.6263106200783686	0.108104
C	0.0149483874368388 0.2703951693092331 0.5639283137093474	-0.178470
C	0.0940020743107443 0.2739069884324540 0.5657289013211262	0.098894
C	0.8923166862353360 0.2250727372063244 0.6254615698130653	0.064754
C	0.8483310763724955 0.2903723960121806 0.6218557099886068	-0.174854
C	0.7679141168091125 0.2865201588209467 0.6226114721254161	0.085388
C	0.7781802694664067 0.1470374466755321 0.6255788668802386	-0.125322
C	0.8562710981360274 0.1527688160672020 0.6286084498904174	-0.137937
H	0.1837998309422390 0.1323539373635835 0.2392935653777555	0.105950
H	0.1655815077056063 0.9907346636987332 0.2377250782217827	0.115687
H	0.2994148003948126 0.9839942088596714 0.0125622903197702	0.114144
H	0.3044580468384811 0.1269978894761585 0.0183053115600915	0.102122
H	0.3465025955466012 0.8755462049826278 0.1191713473322086	0.108151
H	0.0914054984257437 0.7506947866036444 0.1256240594268898	0.109336
H	0.1018343996645454 0.8914858373819398 0.1287816227645729	0.101345
H	0.3178160456695192 0.3671807608789742 0.2397222210425189	0.107458
H	0.3341656127409369 0.5087289420314455 0.2401601039075413	0.115195
H	0.2031184146307570 0.5160573185680188 0.0126698532063461	0.114270
H	0.1994447623710792 0.3740446570669315 0.0152713428635087	0.108548
H	0.1538258312383708 0.6242411075805453 0.1207025481924929	0.108506
H	0.4087939185360473 0.7495436265511984 0.1261568838926684	0.106730
H	0.3985339332771514 0.6087258034314793 0.1314944594744253	0.103013
H	0.3660818193863160 0.1801427851979565 0.2376430519037469	0.102705
H	0.5085199973978787 0.1637741457798708 0.2388970806669328	0.114628
H	0.5162945907882771 0.2977266104653756 0.0140207446493181	0.116213
H	0.3734751753510489 0.3009596882949099 0.0168382819367194	0.107235
H	0.6241771140685676 0.3456545543585300 0.1215031854386177	0.109506
H	0.7495989791039510 0.0909288344945428 0.1251467908567177	0.107850
H	0.6087541765454001 0.1012763577326708 0.1310451493589665	0.103199
H	0.1323788075643471 0.3156147867636983 0.2389409205891735	0.108052
H	0.9910433219220793 0.3326515250934274 0.2376266557975831	0.115675
H	0.9848604939456961 0.2013177984849347 0.0103104148049371	0.114771
H	0.1275788329915519 0.1966139239205719 0.0152286504953562	0.106139
H	0.8759188683003005 0.1531122253117312 0.1179335775313760	0.107326
H	0.7507225957964232 0.4079659526853159 0.1259708159088283	0.106787
H	0.8919049707300041 0.3972896899931478 0.1284908262556869	0.100141
H	0.8198193215109242 0.6334262100508802 0.2621870424178452	0.101678
H	0.8361922177473069 0.4912604905714015 0.2610347392630608	0.114488
H	0.7024834721672759 0.4837179502425911 0.4861817805742951	0.116356
H	0.6991609990520232 0.6262586372021052 0.4833911961723151	0.106949
H	0.6541667847235393 0.3756710229486980 0.3786964030654417	0.109452
H	0.9092029962458054 0.2504396835907157 0.3748923723206089	0.107319
H	0.8989574057783464 0.3910773676218764 0.3690254109252530	0.103581
H	0.6846086190223697 0.8680335165251781 0.2606683591369292	0.107566
H	0.6674357941464301 0.0090905485583385 0.2621390436475221	0.115956
H	0.7983459625437881 0.0153585783421071 0.4896844465123935	0.114580
H	0.8034276088625381 0.8729112997864529 0.4846679426037501	0.106814
H	0.8469767367965418 0.1243360857030152 0.3820950335538477	0.107580
H	0.5918405256266541 0.2492779530099444 0.3742404895347472	0.106362
H	0.6023981262845284 0.1083123921515463 0.3716341226365553	0.100298
H	0.6331932755751175 0.6819968847952501 0.2605703975431903	0.107351
H	0.4914026963242000 0.6658394640294832 0.2600054946003107	0.115561
H	0.4840920128073018 0.7971930398473075 0.4872931878841121	0.114468
H	0.6263399989137963 0.8007899637662709 0.4845555755308621	0.108533
H	0.3760038700639715 0.8460301514546946 0.3791695421137481	0.108913
H	0.2504195797222172 0.5913946502031117 0.3738983997102396	0.107112
H	0.3914735870950092 0.6017191269660572 0.3686766797436775	0.102822
H	0.8674443483048068 0.8162161506529355 0.2606393769773622	0.105292
H	0.0093384610762077 0.8342391800281366 0.2622569554184616	0.115705
H	0.0157394354023958 0.7003502165056265 0.4872276141300732	0.114563
H	0.8724804004073889 0.6955331047142609 0.4813439455073520	0.102179
H	0.1242431391545255 0.6536811380866999 0.3806694073793334	0.108120
H	0.2493730355207714 0.9085099326166647 0.3742658798060702	0.109409
H	0.1083684212572737 0.8979396441148415 0.3712113020942522	0.101375
H	0.8178776860957186 0.8671860345913742 0.7603190253411225	0.107145
H	0.8339735214452989 0.0088379370901693 0.7599206164965323	0.114786
H	0.7029867104635782 0.0164964210514486 0.9871968621960332	0.115297
H	0.6997364974681546 0.8743139752439746 0.9845685411436529	0.108489
H	0.6537796636897917 0.1244333963186170 0.8790394290761471	0.108843
H	0.9089290131418051 0.2494714118920246 0.8740388084590509	0.106615
H	0.8984094319452703 0.1086435490276768 0.8686779459652585	0.102780
H	0.6833250430253073 0.6318512819968054 0.7607915091159015	0.105711
H	0.6656612294739518 0.4900113318635428 0.7624266266889950	0.115761
H	0.7999226707488368 0.4845998644616087 0.9876252266072766	0.114456
H	0.8042472735620825 0.6276998944073473 0.9818756317951990	0.101360
H	0.8467427599382112 0.3755806712756002 0.8808046152523572	0.107896
H	0.5914209642670324 0.2509422228255894 0.8744689488629301	0.109306
H	0.6021174650701597 0.3917059944458168 0.8715638050784505	0.101523
H	0.6320904233940164 0.8162986225909803 0.7612815386960894	0.108837
H	0.4906620848549583 0.8331048673427833 0.7627388705628630	0.115454
H	0.4852406142272557 0.7018675176662513 0.9896444737732248	0.115252
H	0.6279008498577218 0.6971311724420336 0.9846295492689047	0.106600
H	0.3759467468759767 0.6531631167611821 0.8821988470275440	0.107530
H	0.2504385704917609 0.9077754811414170 0.8742282590805660	0.106710
H	0.3915887957572661 0.8973635526987681 0.8716504211021083	0.100364
H	0.8657117331215080 0.6793492170913501 0.7620997211803934	0.102180
H	0.0081785932855090 0.6628341193987820 0.7610921244716697	0.114802
H	0.0162107219067581 0.7973639994426142 0.9859794508186023	0.116085
H	0.8733374759749497 0.8008686350265581 0.9828702884124607	0.107281
H	0.1238976989466079 0.8453372047815538 0.8784107791346256	0.109435
H	0.2496294608498909 0.5908065033759703 0.8753050254612043	0.107542
H	0.1087962175470848 0.6009015564341892 0.8692472607899064	0.103882
H	0.1844005541914059 0.3684896567424863 0.7388420554328601	0.108686
H	0.1674510177002551 0.5096871813064718 0.7376181928244564	0.115985
H	0.2984353741387827 0.5153038361714324 0.5102999172991576	0.114711
H	0.3030410225898302 0.3727864547546350 0.5150849961045161	0.106216
H	0.3469837695489900 0.6243309772568754 0.6179361113736151	0.107409
H	0.0918038124850476 0.7494146855827817 0.6260483665216489	0.106816
H	0.1024662108686194 0.6084437583825788 0.6284238712020916	0.100279
H	0.3201257561357457 0.1337060571744703 0.7377235316697358	0.101338
H	0.3363107866805417 0.9914423763771631 0.7391599191314375	0.114684
H	0.2020827492808915 0.9831846529693489 0.5139647072843652	0.116035
H	0.1991501453693921 0.1258783924982699 0.5165794125921600	0.106354
H	0.1542236812313545 0.8757533506701202 0.6216382157066281	0.109641
H	0.4093100451048760 0.7504808202711679 0.6251622258896885	0.107662
H	0.3989792420226407 0.8911256781375749 0.6311070453755593	0.103974
H	0.3671945716124799 0.3162635751544564 0.7393317711596760	0.105831
H	0.5090354399724065 0.3345176973333498 0.7379167592223408	0.115482
H	0.5153794603859612 0.2003382632421865 0.5126536143061521	0.115293
H	0.3721693461958103 0.1952552028293181 0.5183829158863914	0.101663
H	0.6242061482874444 0.1535711784796998 0.6193432229212386	0.108293
H	0.7492185759563135 0.4083664691396863 0.6256724438467216	0.108757
H	0.6082649916171498 0.3979181728489189 0.6288339997955311	0.101580
H	0.1336956456779412 0.1823349785033496 0.7394745828424786	0.107705
H	0.9920370087222770 0.1658887870743940 0.7399885464002455	0.115298
H	0.9839312775337509 0.2968061001459145 0.5128246568228532	0.114501
H	0.1261678388330618 0.3006487490222941 0.5154587587116725	0.108493
H	0.8759036112499805 0.3460424552907695 0.6207893852114366	0.108510
H	0.7504908695493916 0.0914271196073504 0.6261641164625070	0.106979
H	0.8915003132685647 0.1017320553716249 0.6314786012524393	0.103205
F	0.2533913198294691 0.1479682681364543 0.3752046090071153	-0.628698
F	0.1517240828746897 0.3040245291731866 0.3793360619673294	-0.613794
F	0.3324642325906190 0.3202198275427747 0.3791978213928329	-0.621379
F	0.6797987904183432 0.6673340591572816 0.1196463962467028	-0.621524
F	0.6948986984103218 0.8474844138917573 0.1205262957173588	-0.614040
F	0.8518533556119984 0.7472486608732422 0.1244163928204819	-0.628876
F	0.6521182914223731 0.8053287535585050 0.6194194708531187	-0.613590
F	0.7518930096209423 0.6482819718962777 0.6237462938882005	-0.629085
F	0.8322345313877063 0.8204477089729185 0.6221772400080564	-0.621584
F	0.1799219786138922 0.1670749544905857 0.8779562754388667	-0.621183
F	0.3520304627459591 0.2469163584740862 0.8755831703216719	-0.628442
F	0.1952129033718329 0.3474920933960990 0.8801952990638621	-0.614145
F	0.2483931123743585 0.2538513873944205 0.2593675833689824	-0.603658
F	0.2493367368704037 0.2498665887906951 0.4962835708612408	-0.603891
F	0.7458708609919449 0.7509873396667521 0.2401819843635672	-0.604559
F	0.7505245917780867 0.7512085286956814 0.0034800124122365	-0.603312
F	0.7472291407748000 0.7535683295673592 0.7404174547582451	-0.603641
F	0.7506071435951193 0.7505194730823620 0.5037098703853777	-0.604032
F	0.2464744746703388 0.2520651435571137 0.7592686884745999	-0.604070
F	0.2500225875811738 0.2497211318139183 -0.0037181281413207	-0.603956
Cu	0.2501156778427209 0.2500180618930846 0.1280718964618443	0.745349
Cu	0.7500004501436096 0.7498957871122063 0.3717193297074072	0.745509
Cu	0.7500132340647750 0.7501391748385385 0.8716632282048616	0.744353
Cu	0.2499545986474560 0.2499345662712694 0.6280211556148225	0.746003
Fe	0.2472373714345265 0.2552376263509795 0.3778650601818594	1.527708
Fe	0.7445580979331726 0.7525861139943102 0.1217043647788820	1.528793
Fe	0.7470417009817735 0.7555629924460799 0.6220867492715781	1.527955
Fe	0.2446755083627719 0.2524203187477485 0.8778461255816641	1.528009
	  	
