#======================================================================

# CRYSTAL DATA

#----------------------------------------------------------------------

data_VESTA_phase_1


_pd_phase_name                         FeFFIVE_2_Co
_cell_length_a                         13.58408
_cell_length_b                         13.58405
_cell_length_c                         8.20071
_cell_angle_alpha                      90.10896
_cell_angle_beta                       89.89235
_cell_angle_gamma                      89.98501
_symmetry_space_group_name_H-M         P 1
_symmetry_Int_Tables_number            1

loop_
_symmetry_equiv_pos_as_xyz
   x, y, z

loop_
   _atom_site_label
   _atom_site_fract_x
   _atom_site_fract_y
   _atom_site_fract_z
   _atom_site_charge
C	0.5304227124957619 0.6953401015760358 0.1327164370006408	0.090985
C	0.5312651957237819 0.7973245029700470 0.1377557171144305	-0.163556
C	0.4690207071083003 0.3052315980354242 0.1331629182571643	0.088674
C	0.4687418607496590 0.2032347496497177 0.1375343414415110	-0.164407
C	0.3051339268355411 0.5306674994033144 0.1322481216260471	0.090463
C	0.2031412743480349 0.5312626995003785 0.1376061070584082	-0.163761
C	0.6951971032718601 0.4695351610661690 0.1325020525445526	0.084282
C	0.7971456687016450 0.4687962403683174 0.1368288696434943	-0.163130
C	0.4695341782816880 0.6951954532267284 0.8674964490398557	0.084201
C	0.4687954756868862 0.7971446168693519 0.8631721855297039	-0.163246
C	0.5306670339178987 0.3051340732667976 0.8677553152718313	0.090559
C	0.5312627878744282 0.2031413882355017 0.8623950915057558	-0.163726
C	0.6953393295355398 0.5304229353365115 0.8672849173078644	0.091005
C	0.7973233794047512 0.5312655511671436 0.8622473810220173	-0.163579
C	0.3052291561446506 0.4690204512690738 0.8668387735161750	0.088588
C	0.2032327019145258 0.4687416704288622 0.8624649717391532	-0.164293
C	0.5000662297646921 0.1492592701850991 -0.0001156334963301	0.165293
C	0.5000984694531396 0.0451522690095763 -0.0001777014063665	-0.095111
C	0.4999962237655692 0.8512106897753138 0.0005315441298776	0.164698
C	0.5000562701089002 0.9553400648489505 0.0004775060621982	-0.090518
C	0.8512098928980592 0.4999965558667122 -0.0005279752189413	0.164588
C	0.9553405018003319 0.5000563004923840 -0.0004750580459709	-0.090722
C	0.1492584095688844 0.5000662555066998 0.0001151136300827	0.165286
C	0.0451507542256708 0.5000983894122462 0.0001772658767250	-0.094895
H	0.5524507200230695 0.6517822880495049 0.2376016588115277	0.106285
H	0.5562501295639164 0.8344965267991559 0.2479158793493521	0.129106
H	0.4446662390151223 0.3485877209814495 0.2379089834336605	0.108788
H	0.4432875370587494 0.1659771932112361 0.2472181632785173	0.130177
H	0.3493540185856306 0.5544959689060337 0.2357365823217868	0.104852
H	0.1655919508167341 0.5564775687262478 0.2474910188446437	0.129026
H	0.6524703971950202 0.4475185869470750 0.2389009514867792	0.110819
H	0.8337741870815596 0.4437673335973214 0.2471637459051817	0.130235
H	0.4475170213531992 0.6524677696526920 0.7610960926322905	0.110904
H	0.4437666103640902 0.8337727453481395 0.7528374973190906	0.130264
H	0.5544950986139661 0.3493534508596199 0.7642685350952438	0.104834
H	0.5564770745249051 0.1655909424122527 0.7525106209690180	0.129011
H	0.6517819591637075 0.5524509234576584 0.7623989687745680	0.106283
H	0.8344944200664348 0.5562498668196403 0.7520873828793341	0.129117
H	0.3485851364037376 0.4446667633448681 0.7620929578228599	0.108811
H	0.1659748381645887 0.4432871426011019 0.7527790898743355	0.130150
Co	0.5000762823526034 0.5000769904471635 0.0000003106241405	0.594811
Fe	0.4993773612978009 0.4993689966033493 0.4999960391948908	1.500365
F	0.4994996191630847 0.5016537034046885 0.7362743841760860	-0.572238
F	0.5016614622131448 0.4995012542343648 0.2637230767389164	-0.572217
F	0.4619027000512619 0.6319420190913616 0.4957778044942781	-0.602003
F	0.4020461089288100 0.4020621095414057 0.4999899472760979	-0.601811
F	0.6319624692438386 0.4619043631368080 0.5042129819986312	-0.602024
N	0.4998810310479325 0.3557509259858806 0.0005453817230817	-0.182380
N	0.4999699961552249 0.6446365825965353 0.0000708029648035	-0.183296
N	0.6446366492425560 0.4999706181316817 -0.0000712756465085	-0.183268
N	0.3557498047290945 0.4998811886463908 -0.0005422034924718	-0.182280
	  	
