#======================================================================

# CRYSTAL DATA

#----------------------------------------------------------------------

data_VESTA_phase_1


_pd_phase_name                         FeFFIVE_15_Fe_i
_cell_length_a                         30.01719
_cell_length_b                         29.23902
_cell_length_c                         8.09924
_cell_angle_alpha                      89.98739
_cell_angle_beta                       89.99781
_cell_angle_gamma                      90.00129
_symmetry_space_group_name_H-M         P 1
_symmetry_Int_Tables_number            1

loop_
_symmetry_equiv_pos_as_xyz
   x, y, z

loop_
   _atom_site_label
   _atom_site_fract_x
   _atom_site_fract_y
   _atom_site_fract_z
   _atom_site_charge
C	0.9323231185939985 0.1014627425943381 0.8931559308440505	0.099208
C	0.9002897549116667 0.0672491218925225 0.8989833495326589	-0.166964
C	0.7698217904352144 0.9361596269940372 0.9006513151458942	-0.116625
C	0.7359224746011358 0.9040506110684708 0.9004343579615509	-0.117801
C	0.5692829349984446 0.7425854240156561 0.8929371954876709	0.093616
C	0.6025550954024137 0.7755193436857450 0.8985640383869282	-0.171156
C	0.4327609335785669 0.6012972448423335 0.8929186284704891	0.103863
C	0.4006616995550971 0.5671633619581748 0.8990398533390075	-0.168824
C	0.2697825090214220 0.4362251353637538 0.9005992235809880	-0.115442
C	0.2358866409520226 0.4040836081717211 0.9003270804954456	-0.116593
C	0.0694298791931681 0.2421684722995115 0.8927693927097236	0.106750
C	0.1026738299154177 0.2751195895416281 0.8986186797370211	-0.170972
C	0.0677854387927587 0.8981817933283709 0.3929210757945942	0.105294
C	0.0995001947602517 0.9326818438046359 0.3990317066850867	-0.169097
C	0.2301622738500593 0.0638110069829528 0.4005361488396027	-0.113445
C	0.2640826291850715 0.0959324611701629 0.4003170380596912	-0.116977
C	0.4310693783719491 0.2572640157339823 0.3929906799789296	0.102258
C	0.3975285690976180 0.2246442919457844 0.3987543545761004	-0.170341
C	0.5676490803546996 0.3985653872095135 0.3931904518153187	0.096650
C	0.5993617301562348 0.4330861524173583 0.3989841814801651	-0.166513
C	0.7301878797960453 0.5637666538866042 0.4006690999597957	-0.116160
C	0.7641145982915826 0.5958370293307604 0.4004020127881561	-0.116504
C	0.9306262052727606 0.7574438710569460 0.3930179106649241	0.094391
C	0.8971198967630624 0.7247561636277043 0.3986686343308251	-0.170730
C	0.0676653727041812 0.1019563590748587 0.6070197231329513	0.108920
C	0.0993656083555173 0.0674498034615524 0.6009369365806803	-0.169190
C	0.2299155129393989 0.9363944993791742 0.5993973748804329	-0.114938
C	0.2638592026329414 0.9043217186216298 0.5996130646196756	-0.115191
C	0.4305618218693286 0.7427050055890108 0.6070237830309074	0.093805
C	0.3972892862599557 0.7756469621117463 0.6013884321147699	-0.171466
C	0.5671041807797552 0.6014503789315051 0.6070434502829966	0.103138
C	0.5991749699537596 0.5672993084271016 0.6009157728205505	-0.168985
C	0.7299705561167932 0.4364849030476486 0.5993293102510314	-0.114505
C	0.7638630764981316 0.4043609385607960 0.5996053009023814	-0.115917
C	0.9304986183894252 0.2426860224735079 0.6070064491121774	0.096230
C	0.8969728393647401 0.2753616966140302 0.6013948989257559	-0.170221
C	0.9322472890441743 0.8986630034164820 0.1068908787631005	0.096042
C	0.9001954738992167 0.9328629882071922 0.1009991752231436	-0.165491
C	0.7695930785892796 0.0639877319096410 0.0993819748820725	-0.117803
C	0.7357268888600241 0.0961536009763683 0.0996046977358936	-0.115927
C	0.5688026713601166 0.2573896050256690 0.1072070216131786	0.101315
C	0.6023302864075121 0.2247659664796310 0.1013641087165820	-0.169982
C	0.4322344276245507 0.3986683525194308 0.1068659520439503	0.097809
C	0.4004950849665715 0.4331711973271472 0.1010266461512492	-0.166947
C	0.2695974076759045 0.5639767054745197 0.0993602773495398	-0.118058
C	0.2356686580533628 0.5960673108716729 0.0996314114299132	-0.116176
C	0.0693320291629788 0.7579340611936829 0.1071809412199732	0.103555
C	0.1025535301539577 0.7249733182946962 0.1013102250088106	-0.172253
C	0.0677986716266160 0.8981885584001751 0.1070494803181428	0.105046
C	0.0995142460217379 0.9326889470774800 0.1009340148316573	-0.168756
C	0.2301754974439631 0.0638218070146731 0.0994512982511187	-0.114154
C	0.2640945862327543 0.0959441517404358 0.0996722736499315	-0.116539
C	0.4310952012549883 0.2572784649307422 0.1072456424430995	0.102155
C	0.3975575772065031 0.2246567350034090 0.1014121441387962	-0.170413
C	0.5676618066023824 0.3985571370211828 0.1068287427295451	0.096676
C	0.5993826626739607 0.4330703596032510 0.1009673360313211	-0.166483
C	0.7302021965072383 0.5637798602544144 0.0992872177158332	-0.116415
C	0.7641282407472436 0.5958519604760899 0.0995679002352450	-0.116800
C	0.9306393063718883 0.7574523202147205 0.1070353032874115	0.094314
C	0.8971340877269043 0.7247662036531526 0.1013713709927995	-0.170488
C	0.9323300532440550 0.1014754918807756 0.6068491578331313	0.099430
C	0.9002967332324974 0.0672618041704781 0.6010303788986679	-0.167046
C	0.7698356545123792 0.9361740138782132 0.5993323157245095	-0.116679
C	0.7359350754966082 0.9040640117904869 0.5995472518023448	-0.117966
C	0.5692994511434322 0.7425917409125634 0.6069745202379486	0.091787
C	0.6025727014042486 0.7755262593984237 0.6013477718237745	-0.171046
C	0.4327706902205997 0.6013079743322586 0.6070683737807704	0.105499
C	0.4006713209733392 0.5671738020074822 0.6009576776809539	-0.169310
C	0.2697970029035791 0.4362342631833169 0.5993819299050556	-0.115514
C	0.2358996167044846 0.4040943371949087 0.5996559659751431	-0.116901
C	0.0694419301989454 0.2421780692452216 0.6071892911777417	0.105860
C	0.1026854080218528 0.2751288819703737 0.6013283498630658	-0.170622
C	0.9322457481593176 0.8986589017286760 0.3931217586090892	0.095917
C	0.9001970187357231 0.9328605344618570 0.3989704789815576	-0.165414
C	0.7696028831081874 0.0639770407608740 0.4005887970886592	-0.118236
C	0.7357358570658481 0.0961437617924244 0.4003636902149248	-0.115667
C	0.5688289935462593 0.2573801612887765 0.3929871846614824	0.101210
C	0.6023559689819767 0.2247537005501631 0.3987564524983666	-0.170008
C	0.4322423073120987 0.3986747299327832 0.3931992700778786	0.097324
C	0.4005065928252742 0.4331798873852772 0.3989886111784105	-0.166668
C	0.2696060347740273 0.5639673604374489 0.4006266005673859	-0.117997
C	0.2356766608938576 0.5960573372631771 0.4003591512156415	-0.116240
C	0.0693373207693333 0.7579340748141352 0.3927982580632644	0.103490
C	0.1025606034067695 0.7249745587635987 0.3986947577639535	-0.172012
C	0.0676739244199298 0.1019485441690512 0.8929587358171515	0.108649
C	0.0993744120062920 0.0674420626895899 0.8990468132138230	-0.169081
C	0.2299234022055109 0.9363854875519880 0.9005958407956624	-0.114636
C	0.2638676874990785 0.9043115307015128 0.9003714387540455	-0.115664
C	0.4305695149566741 0.7426970575266360 0.8929253369743696	0.094178
C	0.3972950255325267 0.7756372152159300 0.8985540085171885	-0.171958
C	0.5671124203109233 0.6014415794723672 0.8929629693306922	0.103391
C	0.5991837450102090 0.5672902543765537 0.8990890284304698	-0.168773
C	0.7299787276024075 0.4364773301991063 0.9006721283766662	-0.114730
C	0.7638710626367897 0.4043516549565969 0.9004056928108823	-0.116151
C	0.9305038038435632 0.2426778261452211 0.8929439418696736	0.096355
C	0.8969789694014120 0.2753550220314053 0.8985494609488898	-0.170196
C	0.6542562047442794 0.8260979851793619 0.7499691009851193	-0.107065
C	0.8834267346096208 0.0494549702299294 0.7500087147059437	0.159158
C	0.8212846248363369 0.9859389418635190 0.7500069018985583	-0.101798
C	0.6201251518039333 0.7928441271698335 0.7499623553502905	0.167732
C	0.7871939806209840 0.9527527371209862 0.7499969924507623	0.127546
C	0.7183877232638076 0.8874604644234266 0.7499854247746787	0.136977
C	0.6839395887457753 0.8546352505862391 0.7499811535479918	-0.101024
C	0.8503753634733782 0.0151106111413128 0.7500047377041774	-0.105084
C	0.1542581974547574 0.3259148185641038 0.7499741826262794	-0.104707
C	0.3836754306284095 0.5494524692434453 0.7499984209563583	0.163280
C	0.3213039318380692 0.4860703358998424 0.7499974796892859	-0.096348
C	0.1202075886573639 0.2925336955992823 0.7499752177605477	0.168684
C	0.2871776840670234 0.4528689841201058 0.7499917527506893	0.126968
C	0.2183107886446945 0.3874505554221480 0.7499886303274903	0.137592
C	0.1838728393518679 0.3545457946580546 0.7499877985287886	-0.099899
C	0.3504526022234355 0.5152084083928985 0.7500022904728693	-0.109549
C	0.3455037005181383 0.1743396887884438 0.2500218579236043	-0.108527
C	0.1161844529770635 0.9507349439195740 0.2499828473342264	0.162758
C	0.1783846146780338 0.0142839929911575 0.2499920114065781	-0.098929
C	0.3797322287511366 0.2075129580309536 0.2500658784674625	0.169818
C	0.2126695709148340 0.0472783979860435 0.2499908451548277	0.126092
C	0.2815969003488557 0.1126438108655883 0.2499961797084464	0.138011
C	0.3159205571227590 0.1456740049521152 0.2499982451750636	-0.097846
C	0.1491478452246638 0.9852360438511392 0.2499786239029143	-0.106630
C	0.8453628940258273 0.6742496418340610 0.2500096660768613	-0.106165
C	0.6160628898756826 0.4510743296793421 0.2499667863797005	0.158264
C	0.6783988821719871 0.5143833786347695 0.2499535576742747	-0.104256
C	0.8794304134155456 0.7075776549285914 0.2500126061016064	0.165902
C	0.7127443958263010 0.5473041438703846 0.2499691641967592	0.126010
C	0.7816144017855224 0.6124985761735418 0.2499894643858263	0.136761
C	0.8158825836229809 0.6454993035886888 0.2499938635723623	-0.100927
C	0.6490881042600857 0.4854373767661976 0.2499268085035476	-0.105189
C	0.3455519783400018 0.8262702792396517 0.7499674825608906	-0.102181
C	0.1160161527065817 0.0494259644152662 0.7499910904438611	0.161450
C	0.1781670057707276 0.9858996560327955 0.7500057807732209	-0.099252
C	0.3797085286661165 0.7929872304806571 0.7499730042642089	0.165179
C	0.2124565088687660 0.9529121618778646 0.7499990985983366	0.126282
C	0.2814342565553651 0.8876855965663633 0.7499894688271537	0.136685
C	0.3158874281420160 0.8548370740424988 0.7499761255528395	-0.103734
C	0.1489427609665456 0.0149444382248662 0.7499980243282933	-0.108995
C	0.8451871491414781 0.3259153843497250 0.7499750954044904	-0.099364
C	0.6161184414799056 0.5495749823597011 0.7499993627270810	0.162353
C	0.6784362696845520 0.4862047928522201 0.7500096393515173	-0.095296
C	0.8792698838239945 0.2925663215265822 0.7499743649109691	0.165444
C	0.7125890060553627 0.4530619323285223 0.7500018778106875	0.125364
C	0.7813915502171429 0.3876875452477938 0.7500043892696129	0.137909
C	0.8157020340140699 0.3546761975726030 0.7499920152309634	-0.106018
C	0.6492733928102629 0.5153142373180211 0.7500056218188661	-0.109442
C	0.6543228024422701 0.1744664980992174 0.2500060409374473	-0.108063
C	0.8832948303409790 0.9506782613286013 0.2499836943377294	0.158014
C	0.8211116710096404 0.0142166653623974 0.2499794621194211	-0.100154
C	0.6201264142383854 0.2076313882182159 0.2500380973580947	0.168295
C	0.7870039405321542 0.0473772102804494 0.2499829833418831	0.128274
C	0.7182508757292899 0.1128329429335782 0.2499899359360374	0.136232
C	0.6839151618788951 0.1458263243578134 0.2500020021341674	-0.099022
C	0.8502171924284395 0.9850513980029801 0.2499715696607632	-0.103280
C	0.1541103571737945 0.6742017558255252 0.2500002397285441	-0.106175
C	0.3837730073806829 0.4511724509579126 0.2500043100543741	0.157812
C	0.3213766394168673 0.5144650138675303 0.2499798976406743	-0.102248
C	0.1200760817500399 0.7075805664118318 0.2499999703782569	0.170529
C	0.2870597524657157 0.5474420628076024 0.2499884755642479	0.126871
C	0.2181185408680910 0.6126930418952734 0.2499977731916481	0.138322
C	0.1837153310022420 0.6455761912114345 0.2499980503197277	-0.100235
C	0.3506810199381176 0.4855006712761201 0.2499843989743058	-0.106180
H	0.9462408311783305 0.1152964883312582 0.0069332155470732	0.102349
H	0.8885490300775928 0.0543909637494903 0.0175117644217562	0.119521
H	0.7834501701872196 0.9489952935193854 0.0164049754600672	0.106865
H	0.7223768319511398 0.8911752605652180 0.0161910926329650	0.115134
H	0.5558597347831105 0.7283190425460874 0.0068024509902593	0.097153
H	0.6149600029529754 0.7875225403148989 0.0171891860809358	0.123713
H	0.4469068457046868 0.6154088746569706 0.0057340527123904	0.090630
H	0.3888363737817932 0.5542980727809513 0.0174520432528511	0.119570
H	0.2834315848366655 0.4490126598024460 0.0164605905194504	0.107331
H	0.2224171220109011 0.3912061871453530 0.0161773475220063	0.115385
H	0.0557026418697930 0.2276866955531736 0.0057193408704711	0.097183
H	0.1150788421642450 0.2872031526465257 0.0170967557236369	0.125263
H	0.0546413800481007 0.8830635734641047 0.5057217916391102	0.091237
H	0.1114445206935015 0.9454234686310847 0.5174075371272789	0.119206
H	0.2165712371785737 0.0509669840224382 0.5164870721098147	0.106768
H	0.2776085077906193 0.1087421911276638 0.5162139318179412	0.115276
H	0.4457644127220385 0.2707575682465727 0.5058426920638259	0.089639
H	0.3852331133393490 0.2124199512415343 0.5171774570714633	0.123597
H	0.5548603543094995 0.3835580029407616 0.5069010131749403	0.097905
H	0.6112649150169729 0.4457627233780316 0.5174727818885513	0.117793
H	0.7165449537098781 0.5509211207880036 0.5164053034087078	0.106461
H	0.7776551407009847 0.6086868360845838 0.5161997621598549	0.115167
H	0.9451414253679173 0.7705572840991378 0.5068704723226251	0.096070
H	0.8848904108800910 0.7125049936140966 0.5172414774650617	0.123627
H	0.0545195399125990 0.1170876820883939 0.4942203218650500	0.099449
H	0.1113248110192609 0.0546880067681367 0.4826158105318195	0.120122
H	0.2163051216972168 0.9492363377275843 0.4836155204407471	0.105885
H	0.2773647487950237 0.8914629944748885 0.4837457883503605	0.114655
H	0.4439906933969481 0.7284587825678928 0.4931512632462512	0.097190
H	0.3849075634367679 0.7876486645297763 0.4827108890109195	0.123611
H	0.5529779638895007 0.6155929620723590 0.4942110944515565	0.091250
H	0.6110299200486115 0.5544207323622494 0.4825685865005881	0.119650
H	0.7162908086769176 0.4492811199328670 0.4835770507029212	0.106517
H	0.7773675994709633 0.3915044100279869 0.4838047402876348	0.114965
H	0.9450174500606248 0.2295769188358686 0.4931400804473757	0.102979
H	0.8847829636836299 0.2875917083339871 0.4827609167320170	0.124110
H	0.9461721617681502 0.8848426881582983 0.9931441592113632	0.097881
H	0.8884586069905940 0.9457060643220910 0.9824202007368252	0.118859
H	0.7832095548198955 0.0511625024768454 0.9834788000353574	0.107652
H	0.7221810384118739 0.1089964356721564 0.9838199552644802	0.114722
H	0.5540854411509605 0.2709063395648761 0.9944075692163548	0.089846
H	0.6146193598748088 0.2125391204160411 0.9829459247273370	0.123653
H	0.4450320054500302 0.3836541528323075 0.9932258702457605	0.097806
H	0.3886012754173906 0.4458178608003701 0.9824788774833704	0.118052
H	0.2832142672315368 0.5511691988183581 0.9834994773435566	0.107152
H	0.2221717213035022 0.6089696272021173 0.9838078819516122	0.115057
H	0.0556047210102888 0.7724140628451586 0.9942392610044938	0.088833
H	0.1149853629764249 0.7128776408366537 0.9828630160926685	0.124077
H	0.0546651847388366 0.8830747442406371 0.9942494211871475	0.091234
H	0.1114699181524208 0.9454365294050203 0.9825584692563547	0.119029
H	0.2165935232794686 0.0509870784413939 0.9834991216478216	0.107065
H	0.2776282017181286 0.1087645103203383 0.9837773481337349	0.115204
H	0.4458184083208839 0.2707849445181726 0.9944441804828579	0.089513
H	0.3852876124696909 0.2124428759052134 0.9829576649809825	0.123720
H	0.5548661299665376 0.3835439426556798 0.9931847596516646	0.097818
H	0.6112979628031590 0.4457316395878031 0.9824401744329928	0.117827
H	0.7165695283653877 0.5509473660900598 0.9835421050230263	0.106570
H	0.7776785287103705 0.6087143397634410 0.9837763717022179	0.115441
H	0.9451650442464143 0.7705730131826761 0.9931842435005097	0.096021
H	0.8849180347912190 0.7125273480545699 0.9827815062333033	0.123505
H	0.9462534991305571 0.1153179220773712 0.4930664851074463	0.103337
H	0.8885651032291768 0.0544131587565506 0.4825034520199684	0.119645
H	0.7834713120492349 0.9490199828098760 0.4835791946244335	0.106924
H	0.7223986665828788 0.8911988717755059 0.4837837823516128	0.115237
H	0.5558862490586963 0.7283367710730397 0.4930945127301201	0.096688
H	0.6149930013664212 0.7875419554410686 0.4827396938797296	0.123765
H	0.4469227816065076 0.6154275074463419 0.4942467519176012	0.091203
H	0.3888538530882787 0.5543178665147082 0.4825440071613538	0.119671
H	0.2834547647743576 0.4490300875327756 0.4835229231410847	0.107494
H	0.2224407842042029 0.3912241950645448 0.4838023500377958	0.115487
H	0.0557198881151382 0.2276998843697907 0.4942526829653643	0.096650
H	0.1150977750683091 0.2872182641871315 0.4828445918599714	0.125183
H	0.9461747712349520 0.8848328700335533 0.5068766496249963	0.097956
H	0.8884616952269914 0.9456956037804854 0.5175456856265315	0.118816
H	0.7832268859432453 0.0511469073874784 0.5164868206969433	0.107787
H	0.7221990529075204 0.1089802266751883 0.5161558458039849	0.114653
H	0.5541390519411108 0.2708849330377310 0.5058428085711475	0.089580
H	0.6146696408835245 0.2125164267551219 0.5171408119745972	0.123565
H	0.4450369887293436 0.3836639938981677 0.5068797906471419	0.098041
H	0.3886207871504735 0.4458342026436091 0.5175204299567855	0.118038
H	0.2832331552643028 0.5511514180778826 0.5164692912728446	0.107112
H	0.2221875587931428 0.6089492122809647 0.5161945848444607	0.114966
H	0.0556170456859020 0.7724084177965053 0.5057351404181675	0.088875
H	0.1150017292839688 0.7128720564003214 0.5171391416193648	0.123945
H	0.0545355756751705 0.1170732939516294 0.0057629273876610	0.099537
H	0.1113431680074781 0.0546728612055583 0.0173625443070296	0.120015
H	0.2163228918443972 0.9492154266998669 0.0163932080488187	0.105894
H	0.2773853691883356 0.8914447574075854 0.0162241432027170	0.114781
H	0.4440021375409375 0.7284462179063708 0.0068029025631979	0.097085
H	0.3849207523626255 0.7876321286013510 0.0172333880048681	0.123745
H	0.5529932156603429 0.6155790454430942 0.0057932621288221	0.091051
H	0.6110449626196699 0.5544030430752334 0.0174353373938045	0.119571
H	0.7163073460252175 0.4492676333739637 0.0164249475577872	0.106667
H	0.7773834854351902 0.3914900246669249 0.0162024350750286	0.115172
H	0.9450277440447681 0.2295629452731945 0.0068143990929840	0.102618
H	0.8847952094272584 0.2875761957791884 0.0171922610161861	0.124199
Fe	0.4999323189413211 0.6732115390636686 0.7499565040510436	0.823220
Fe	-0.0004119265511785 0.1729134918548068 0.7499804022743738	0.901720
Fe	0.4999562568367518 0.3274412471548472 0.2501293213305951	0.823558
Fe	-0.0003768882469627 0.8272314710216564 0.2500210160252767	0.826388
Fe	0.4999232996778963 0.6715871397680209 0.2499594183851049	1.505793
Fe	0.0016973236707932 0.1732682427106010 0.2499830233636142	1.289029
Fe	0.4999092257188908 0.3252951103982035 0.7501259679889798	1.507216
Fe	0.0017453906425798 0.8268313386344489 0.7500174138578167	1.507352
F	0.4998501175246662 0.6085911215202193 0.2500919725883248	-0.575444
F	0.9728520463040030 0.2290085314325420 0.2499604891270144	-0.565100
F	0.9727187995761516 0.1176382727934598 0.2500366380127163	-0.557493
F	0.4999019137348782 0.2623256344690238 0.7504140274981781	-0.577394
F	0.9729830273273949 0.7710057278433254 0.7500973402941840	-0.570451
F	0.9728532728598696 0.8825500726162260 0.7499403043236545	-0.567176
F	0.5541663647545249 0.7014055480381592 0.2498574473865932	-0.569416
F	0.0630196469731931 0.1731575250005544 0.2499964248503409	-0.583246
F	0.4455126963945291 0.3549811679934071 0.7498102561542318	-0.570014
F	0.4457526978555091 0.7015915955324656 0.2499323760780851	-0.569654
F	0.5542107435162080 0.3551192546354681 0.7499438150808446	-0.569417
F	0.0630913193509068 0.8269329405252189 0.7499960191671564	-0.577232
F	0.4998580077064009 0.6730997962721782 0.4970274160428229	-0.551607
F	0.0000325179639166 0.1731543801245830 0.4968878618092888	-0.542855
F	0.4999318403174946 0.3268837589007018 -0.0027789323436059	-0.550647
F	0.0000541658795787 0.8270311284242239 -0.0029678906703358	-0.550708
F	0.4998567884852916 0.6730709902886218 0.0028859370498242	-0.551445
F	0.0000554114703012 0.1731553339984424 0.0031004172179811	-0.542732
F	0.4999244516084289 0.3268761621633982 0.5028402240848883	-0.550670
F	0.0000592072988833 0.8270117474575133 0.5030488761054773	-0.550652
N	0.5526046582946217 0.7261672498091527 0.7499543939253162	-0.245901
N	0.9481767286713386 0.1186607941264524 0.7500022139828602	-0.252668
N	0.0526764079440646 0.2257893057130946 0.7499779173695273	-0.248108
N	0.4485894003755927 0.6185623655017803 0.7499931460039158	-0.242421
N	0.4476886862151052 0.2737421584838401 0.2501316021182002	-0.242856
N	0.0518838203515033 0.8810432760784368 0.2499843711495328	-0.241468
N	0.9472912761010187 0.7738939757306635 0.2500266546058150	-0.246925
N	0.5518176481164441 0.3813904774897006 0.2500155995071818	-0.247782
N	0.4472412170986535 0.7262651936404496 0.7499767958301603	-0.246899
N	0.0517651281930354 0.1191042564308119 0.7499908736656409	-0.247608
N	0.9471981362907783 0.2262398896968196 0.7499786665148627	-0.251422
N	0.5512733061026797 0.6186884686125103 0.7500042919120329	-0.241905
N	0.5521963601209258 0.2738455707371700 0.2501109172004327	-0.242346
N	0.9481032569642874 0.8814851817483657 0.2500109293123206	-0.248647
N	0.0526091543681017 0.7743249863203729 0.2499883853360343	-0.242876
N	0.4480604834279108 0.3814901177352413 0.2500423351146201	-0.247165
	  	
