#======================================================================

# CRYSTAL DATA

#----------------------------------------------------------------------

data_VESTA_phase_1


_pd_phase_name                         FeFFIVE_3_Ni
_cell_length_a                         14.03801
_cell_length_b                         14.03796
_cell_length_c                         7.98010
_cell_angle_alpha                      90.00125
_cell_angle_beta                       90.00076
_cell_angle_gamma                      90.16321
_symmetry_space_group_name_H-M         P 1
_symmetry_Int_Tables_number            1

loop_
_symmetry_equiv_pos_as_xyz
   x, y, z

loop_
   _atom_site_label
   _atom_site_fract_x
   _atom_site_fract_y
   _atom_site_fract_z
   _atom_site_charge
C	0.2701483239420676 0.4511926786029682 0.6400891029401560	0.060594
C	0.2292899780723576 0.0504251963513112 0.6388179740824823	0.063127
C	0.2300181182132824 0.4511832872665965 0.3606641764485328	0.053818
C	0.2704404361720688 0.0503584951555048 0.3601511369898608	0.065612
C	0.0503563504429537 0.2704418293974558 0.3601461904742216	0.065286
C	0.4511844107899074 0.2300177301574836 0.3606612728961855	0.053535
C	0.4511946783281888 0.2701469140951784 0.6400882206489413	0.060434
C	0.0504239920678217 0.2292910929608173 0.6388174328568872	0.062909
C	0.9511848526167563 0.2300193571561010 0.6393353077624933	0.053712
C	0.5503594853759680 0.2704400129910104 0.6398545794662401	0.065455
C	0.5504233496801708 0.2292918306750149 0.3611836858002294	0.063030
C	0.9511916988335325 0.2701472748959818 0.3599131117400410	0.060607
C	0.7292915705871998 0.0504318525762791 0.3611781774657922	0.063012
C	0.7701512343718748 0.4511850103961709 0.3599103942637182	0.060286
C	0.7704452008280880 0.0503684132313881 0.6398589843782732	0.065304
C	0.7300163498052060 0.4511797495971309 0.6393467032352877	0.053652
C	0.4511806448187894 0.7300163865777014 0.6393414060317831	0.053568
C	0.0503663522548987 0.7704476707550790 0.6398612975129943	0.065251
C	0.0504318910705489 0.7292911855622587 0.3611784843636352	0.063048
C	0.4511874959142225 0.7701525061140341 0.3599040715667844	0.060438
C	0.2292912646808881 0.5504251056102515 0.3611848124566958	0.063112
C	0.2701463171912058 0.9511911261131309 0.3599118941407878	0.060446
C	0.2704423089771869 0.5503608275281043 0.6398585799585268	0.065581
C	0.2300176346646842 0.9511844983046066 0.6393359405478909	0.053761
C	0.7701494833856051 0.9511883335652825 0.6400931062259119	0.060553
C	0.7292899743494297 0.5504323249230367 0.6388214357424666	0.062937
C	0.7300185344862918 0.9511779958327358 0.3606598391084149	0.053572
C	0.7704435903067437 0.5503639048297894 0.3601469585118752	0.065429
C	0.5503662509182121 0.7704432422934794 0.3601428618134095	0.065642
C	0.9511801159375985 0.7300201061610857 0.3606590220137796	0.053849
C	0.9511883016337421 0.7701488119154027 0.6400891486328615	0.060921
C	0.5504329972868860 0.7292921630413296 0.6388147620458057	0.063216
H	0.2834561412840467 0.4116223623455898 0.7548511878143179	0.110719
H	0.2122167608577262 0.0900336831069359 0.7524120049893388	0.110477
H	0.2151798230599274 0.4118522355031661 0.2456782765365161	0.116010
H	0.2857519608570147 0.0904178614595127 0.2466253360887213	0.105627
H	0.0904205962919814 0.2857489491714210 0.2466240955454354	0.105457
H	0.4118525153443499 0.2151793870665837 0.2456743542910586	0.115850
H	0.4116202847175287 0.2834548167211146 0.7548491717059375	0.110562
H	0.0900337231042840 0.2122177622126896 0.7524099816694957	0.110275
H	0.9118531337239705 0.2151820857434533 0.7543182349569428	0.115873
H	0.5904221545383529 0.2857480722485947 0.7533779880747187	0.105514
H	0.5900317556713506 0.2122186513800736 0.2475891605952646	0.110363
H	0.9116185604382561 0.2834521771683148 0.2451493629955845	0.110607
H	0.7122205666019544 0.0900328763273373 0.2475870137319137	0.110313
H	0.7834558010482212 0.4116162098439678 0.2451509917754481	0.110594
H	0.7857542926388897 0.0904222980529637 0.7533837816821484	0.105554
H	0.7151804149805395 0.4118568532347602 0.7543281635285528	0.115816
H	0.4118564093549244 0.7151775091611886 0.7543232812521167	0.115828
H	0.0904242103563074 0.7857553800641902 0.7533868493604583	0.105518
H	0.0900357810935113 0.7122180591770688 0.2475843955009198	0.110237
H	0.4116184237771120 0.7834598340555865 0.2451408366599397	0.110528
H	0.2122174921203381 0.5900321191907612 0.2475893638221292	0.110258
H	0.2834537335712314 0.9116162995996462 0.2451507223992547	0.110546
H	0.2857502617381371 0.5904245680975371 0.7533823479866153	0.105407
H	0.2151792806457648 0.9118538958658194 0.7543237929748176	0.115804
H	0.7834551554620958 0.9116233354517842 0.7548450265119138	0.110464
H	0.7122168147743945 0.5900363061586922 0.7524108205598866	0.110284
H	0.7151810369258136 0.9118562546727995 0.2456781309379376	0.115807
H	0.7857534221792917 0.5904174431550091 0.2466294489695918	0.105504
H	0.5904175075564737 0.7857514178554910 0.2466247751735608	0.105624
H	0.9118560404320500 0.7151805729154171 0.2456779643896936	0.115961
H	0.9116228758363820 0.7834571461034769 0.7548444820650793	0.110565
H	0.5900325190705014 0.7122193043673508 0.7524108831699525	0.110447
Ni	0.2506910562161706 0.2506992576648172 0.4989668522302574	0.764781
Ni	0.7506924441749160 0.2507014408223954 0.5010430099069451	0.764627
Ni	0.2507025260373205 0.7506920175025595 0.5010369228703538	0.764809
Ni	0.7506984851884921 0.7506971139120626 0.4989604093211934	0.764753
Fe	0.2487361137799040 0.2487355646470210 -0.0013593237110359	1.502806
Fe	0.7487391756345747 0.2487374518951478 0.0013503190348525	1.502808
Fe	0.2487438115265644 0.7487410907978151 0.0013569033906643	1.503234
Fe	0.7487426860390747 0.7487435022051937 -0.0013589374559123	1.502903
F	0.2510821630168273 0.2510895200129373 0.7503046487334802	-0.581911
F	0.2505543752028483 0.2505583555299404 0.2471113612780977	-0.582787
F	0.1557534712899896 0.1557540474555956 -0.0073358534018900	-0.564251
F	0.2125248230592840 0.3754317535909695 0.9999198711505426	-0.566707
F	0.3754366423145436 0.2125127193733527 0.9999127513059344	-0.566583
F	0.7505559228600827 0.2505714282556268 0.7528924560509477	-0.582667
F	0.7510770326112503 0.2510700219903442 0.2496708196646004	-0.581854
F	0.6557501471698040 0.1557810151839193 0.0073071651174490	-0.564122
F	0.7125507004684402 0.3754247229276103 0.0000975296514208	-0.566519
F	0.8754191870357333 0.2124975548261389 0.0000774144517927	-0.566563
F	0.2505672580774186 0.7505643955993898 0.7528899858084864	-0.582298
F	0.2510823067224686 0.7510826410009079 0.2496964397526656	-0.581450
F	0.1557777531725644 0.6557481283344019 0.0073020467782408	-0.562874
F	0.2125132842617617 0.8754382786064809 0.0000979113735214	-0.565404
F	0.3754372107814810 0.7125320877933410 0.0000870649536440	-0.565310
F	0.7510986636966434 0.7510860784040109 0.7503644909386119	-0.581923
F	0.7505559675773631 0.7505438801011137 0.2470737146491028	-0.582860
F	0.6557646863504735 0.6558071173897720 -0.0073624602832324	-0.564567
F	0.7125337077147240 0.8754087606126226 0.9999151643362176	-0.566785
F	0.8753973801177649 0.7125238830722580 0.9999194665945983	-0.566929
N	0.4015280881213918 0.2503871493219988 0.5002192680929287	-0.194262
N	0.1001155190791494 0.2499750805945908 0.4994014118349868	-0.194431
N	0.2503867137629242 0.4015283918568351 0.5002208176201498	-0.193817
N	0.2499739316239959 0.1001190224967949 0.4994027457582890	-0.194037
N	0.9015275759602775 0.2503877700730118 0.4997791142966637	-0.194037
N	0.6001178321058512 0.2499753961903927 0.5005987112132072	-0.194192
N	0.7503860260469771 0.4015362817773932 0.4997792807047867	-0.193978
N	0.7499758500164034 0.1001106962048603 0.5006026254865783	-0.194253
N	0.4015362450155553 0.7503870881302322 0.4997715113789073	-0.194056
N	0.1001132946534065 0.7499749281991654 0.5006029462755368	-0.194404
N	0.2503853168081540 0.9015253799727512 0.4997812994882152	-0.193910
N	0.2499754900318418 0.6001185709361344 0.5006024683016832	-0.194345
N	0.9015325393751930 0.7503866856629616 0.5002186685026849	-0.193917
N	0.6001155829743504 0.7499739521150648 0.4994033800206421	-0.194023
N	0.7503850365406708 0.9015348086497382 0.5002192967965150	-0.194308
N	0.7499737307283324 0.6001126681983864 0.4994061378985359	-0.194478
	  	
