#======================================================================

# CRYSTAL DATA

#----------------------------------------------------------------------

data_VESTA_phase_1


_pd_phase_name                         FeFFIVE_13_Ni_i
_cell_length_a                         15.26409
_cell_length_b                         15.26979
_cell_length_c                         7.78915
_cell_angle_alpha                      90.05952
_cell_angle_beta                       89.69381
_cell_angle_gamma                      89.90343
_symmetry_space_group_name_H-M         P 1
_symmetry_Int_Tables_number            1

loop_
_symmetry_equiv_pos_as_xyz
   x, y, z

loop_
   _atom_site_label
   _atom_site_fract_x
   _atom_site_fract_y
   _atom_site_fract_z
   _atom_site_charge
C	0.5434386246714281 0.6845296818273575 0.8691921788644981	0.112435
C	0.5471785064751212 0.7756064926054802 0.8671128082617354	-0.151211
C	0.4598518265873713 0.3195456179894427 0.8848543793663242	0.106219
C	0.4568041783611691 0.2285360261573379 0.8857387561230622	-0.143314
C	0.8201129702504656 0.9707405828998861 0.3623749772802236	0.109725
C	0.7291199972635802 0.9677719932029690 0.3587030868493900	-0.138392
C	0.3202208588596261 0.5459017276837533 0.8657293576380662	0.105721
C	0.2290709735652219 0.5498201294332433 0.8626858491528233	-0.148456
C	0.1846385343734626 0.9737027773949257 0.3595964339360284	0.096107
C	0.2756365909921635 0.9714278103930347 0.3575715994978306	-0.141086
C	0.6839942065217369 0.4612308070150984 0.8835006322325704	0.106394
C	0.7749782025909061 0.4577897160488489 0.8833579124875844	-0.142780
C	0.4555580650693430 0.6848255244412949 0.1133339681633092	0.108295
C	0.4521502954041058 0.7757792069689233 0.1154591958008843	-0.141986
C	0.5442757526884177 0.3222158818760021 0.1324034946586081	0.106470
C	0.5478231026207981 0.2311124954853740 0.1378810585179405	-0.150977
C	0.1819217338270650 0.0198488584968089 0.6436939170596182	0.112335
C	0.2728302391129868 0.0217830743821291 0.6513992632671675	-0.140592
C	0.6816492560517544 0.5462406848414537 0.1307813097730733	0.114535
C	0.7727464813149795 0.5498515022070726 0.1351488364742112	-0.151164
C	0.8192126293825118 0.0295685574883602 0.6379220772635068	0.105056
C	0.7282545615196212 0.0309496105825902 0.6433099784415781	-0.138999
C	0.3182573901977265 0.4577578931475533 0.1090045223060518	0.106135
C	0.2272394588618815 0.4547499082369236 0.1098988859241527	-0.141201
C	0.9669853507610285 0.8183542344612981 0.6327569098855403	0.110694
C	0.9652833910663943 0.7273723677034097 0.6381891944503316	-0.138149
C	0.9822986552367938 0.1822166811795293 0.6441003421994949	0.092597
C	0.9798038690721353 0.2731577750409326 0.6474418985479217	-0.140221
C	0.0240859105576533 0.8174246630927072 0.3553628702696285	0.105049
C	0.0261324361047691 0.7264978715538407 0.3511649002769906	-0.139171
C	0.0271114863879432 0.1812738979780646 0.3587779485264430	0.112389
C	0.0290754714238773 0.2721917478195105 0.3524930583490540	-0.141056
C	0.0039193553031367 0.3191624843786020 0.4992870191319611	0.044875
C	0.0023024505576133 0.4151451053757140 0.4984989147824342	0.253542
C	0.4997862217293556 0.8221114002610116 0.9914667022467312	0.054883
C	0.5007195998414510 0.9186067116299882 0.9976104868426990	0.248137
C	0.9963959363292971 0.6804628974366910 0.4955284180443403	0.038173
C	0.9984474563386396 0.5844133814818866 0.4970113978060887	0.246760
C	0.5023246834022095 0.1834447402219173 0.0136641587333594	0.055723
C	0.5019889325355904 0.0868771814769613 0.0138481631073955	0.248718
C	0.6822051458830748 -0.0010647837581737 0.5014317020552556	0.037633
C	0.5861264602758628 0.9974724323982894 0.5038585347068237	0.246725
C	0.1817505638430023 0.5025642893060668 0.9857052038411572	0.053033
C	0.0851867661983565 0.5031986126578117 0.9895807522437879	0.248848
C	0.3207291036648494 0.9965294075918349 0.5056478904071035	0.044519
C	0.4167654269862904 0.9962769011054058 0.5068778068750209	0.254642
C	0.8202407853732935 0.5037725896643734 0.0104091525359118	0.055799
C	0.9168488169399936 0.5037619564075190 0.0074573783337287	0.247053
H	0.5758986510564308 0.6451712713256034 0.7709721405584363	0.099459
H	0.5853859598878696 0.8094644322325049 0.7691606810758678	0.121948
H	0.4291866962714802 0.3572266811825996 0.7823063435017271	0.105383
H	0.4223503210309604 0.1928372321750811 0.7856499427841219	0.115814
H	0.8586534665780059 0.9482957594353659 0.2524627533512802	0.101433
H	0.6957706871175254 0.9424543972693948 0.2458584013178863	0.119795
H	0.3601600631419826 0.5787743486669924 0.7684872244852596	0.102467
H	0.1957455365548212 0.5882042580151418 0.7648932266948334	0.123443
H	0.1478264728890799 0.9571809217537947 0.2442762973104571	0.102621
H	0.3103934660118837 0.9518854261774841 0.2411845754770162	0.115779
H	0.6459825722509748 0.4313238069385175 0.7809049792529841	0.109886
H	0.8105869938973970 0.4230371348810414 0.7827150679667010	0.116954
H	0.4245226113265778 0.6460928766673123 0.2141633962540050	0.109784
H	0.4165646205721341 0.8104213480995834 0.2162368561439243	0.116561
H	0.5758121012078603 0.3623879327675067 0.2303595007532843	0.102347
H	0.5841854772628932 0.1980595495105985 0.2388734337292693	0.124044
H	0.1418764367654712 0.0354607698571825 0.7555163057456346	0.094337
H	0.3055689769215366 0.0408308315858858 0.7694869341498718	0.116982
H	0.6415597606609544 0.5773493180634683 0.2295427587337747	0.099224
H	0.8057543220367546 0.5866342653108568 0.2356677574007803	0.122429
H	0.8574159634179234 0.0509498127243923 0.7480126160301543	0.098028
H	0.6940990152897214 0.0549825575804265 0.7569769337014939	0.119797
H	0.3563640177073973 0.4257695583509379 0.2093011656838221	0.105397
H	0.1917666853150341 0.4190890994004746 0.2091917840779775	0.114304
H	0.9449341243848238 0.8570286330738303 0.7426436183355075	0.103743
H	0.9416570814544992 0.6940094264887308 0.7528965226669437	0.118842
H	0.9661325502156834 0.1448197280713694 0.7593727025829101	0.102124
H	0.9603836868794368 0.3071640644063866 0.7645589812982458	0.117971
H	0.0449032758687662 0.8554879861020337 0.2441843633802342	0.095085
H	0.0496223141597174 0.6925172870695194 0.2369630404385753	0.118806
H	0.0421097530826605 0.1418396605162061 0.2460381479551071	0.096697
H	0.0476071413710919 0.3056873169798988 0.2344256598165502	0.116312
N	0.9456738883026590 0.5420783966018019 0.6096293628339380	-0.134561
N	0.4231870997663865 0.0466305186181704 0.0135476391279244	-0.153153
N	0.5442291513929383 0.0505530422077622 0.6169190493786009	-0.136522
N	0.9576336535741183 0.4251777512943048 0.0033997025581765	-0.145282
N	0.0536912257231221 0.5436202210994099 0.3862492996976145	-0.135650
N	0.5801401795607448 0.0451981880640364 0.0132919741403096	-0.147288
N	0.9578909537089312 0.5820531015588154 0.0038622968506104	-0.145665
N	0.5448942062678653 0.9421486389446807 0.3951929244832227	-0.134966
N	0.0558013831650477 0.4574149086366048 0.3876088977858266	-0.130671
N	0.5794923094258572 0.9588356333888564 0.0006055710350228	-0.145963
N	0.4586570323359364 0.9417394941587506 0.3969008296590105	-0.127975
N	0.0442883386635686 0.5817551372475773 0.9904996101877678	-0.147660
N	0.9475018541464396 0.4558899189423448 0.6097500323379353	-0.129379
N	0.4226645844713031 0.9601010752105572 0.0084522222102006	-0.145784
N	0.0441921791693319 0.4249067142916417 0.9973308374022190	-0.153116
N	0.4579715236028968 0.0498307218639450 0.6184230019675666	-0.133169
N	0.0045215110344719 0.1369244612622628 0.5017052365386603	-0.223202
N	0.4995556925959337 0.6400639882597606 0.9911609187531567	-0.230411
N	0.9962868647463072 0.8625444246992190 0.4941271817115732	-0.221588
N	0.5017938760181748 0.3653620505205133 0.0072395440196864	-0.229402
N	0.8642901506621788 0.0007874233158928 0.4997179772835817	-0.220924
N	0.3637046072964605 0.5015576093434075 0.9879252787952997	-0.228109
N	0.1384569949014719 0.9969647269342651 0.5004545045269536	-0.221591
N	0.6382013378072743 0.5036875770390480 0.0063910817538399	-0.232586
Ni	0.0008445885882925 0.9993375774972050 0.4986623632397308	0.760186
Ni	0.5006708717762478 0.5025078015760632 0.9981717214891267	0.770273
Fe	0.9920852081088239 0.9907818568081812 -0.0001991495066080	1.524332
Fe	0.4941524670612169 0.4965434497539039 0.4982969708269864	1.533333
F	0.0019925639019855 0.0034073457690752 0.2416045924946637	-0.571144
F	0.5094491239130803 0.4940036342273825 0.7457862156717964	-0.579979
F	0.0004463319227150 0.9954501231019739 0.7558274862678208	-0.572400
F	0.4898585811107919 0.5103272528646375 0.2505263203988647	-0.580024
F	0.9055951735861359 0.9066714572833054 0.0025355873777472	-0.571079
F	0.4100596215743014 0.4086501300909834 0.4999345290087676	-0.598462
F	0.9361344199365870 0.0976780525373799 0.9933371845962961	-0.586327
F	0.4519381268666242 0.6110470034656013 0.5202333024856751	-0.607106
F	0.0976993868809770 0.9326238099788263 0.0016946063429482	-0.587471
F	0.6104233524673688 0.4593459185907069 0.4742139680734079	-0.607773
	  	
