#======================================================================

# CRYSTAL DATA

#----------------------------------------------------------------------

data_VESTA_phase_1


_pd_phase_name                         FeFFIVE_2_Cd
_cell_length_a                         14.35845
_cell_length_b                         14.35880
_cell_length_c                         8.35048
_cell_angle_alpha                      91.74828
_cell_angle_beta                       88.24287
_cell_angle_gamma                      89.60912
_symmetry_space_group_name_H-M         P 1
_symmetry_Int_Tables_number            1

loop_
_symmetry_equiv_pos_as_xyz
   x, y, z

loop_
   _atom_site_label
   _atom_site_fract_x
   _atom_site_fract_y
   _atom_site_fract_z
   _atom_site_charge
C	0.5022336581297742 0.7162294876046160 0.1404806433180003	0.094036
C	0.5031899216679074 0.8129735321764341 0.1451461348188848	-0.168215
C	0.4744886861935547 0.2930949679279097 0.1399042508733911	0.099689
C	0.4740447475363824 0.1964457072145003 0.1457080523496365	-0.166892
C	0.2874528441061215 0.5199740766999211 0.1296395997225939	0.097046
C	0.1907377835957622 0.5211480587654859 0.1346274739715322	-0.168874
C	0.7110481824179897 0.4926389556259135 0.1372996268614391	0.092829
C	0.8077082664302957 0.4933283513268817 0.1429631479670419	-0.163796
C	0.4925853514296567 0.7110518035657107 0.8626726344492528	0.092633
C	0.4932939809816416 0.8077065888771352 0.8569894311968734	-0.163817
C	0.5199544437700385 0.2874586776838121 0.8703252512619666	0.097029
C	0.5211385920111165 0.1907533764711547 0.8653373175120231	-0.168749
C	0.7162396197369293 0.5022680058965494 0.8595299718542856	0.093824
C	0.8129919275727068 0.5032228022779279 0.8548434915669030	-0.168037
C	0.2931351084954696 0.4745005767000834 0.8601346883008730	0.099852
C	0.1964755009651339 0.4740482408626081 0.8543107349843371	-0.166919
C	0.4980675042265758 0.1430051141251578 0.0059345994453896	0.171818
C	0.4987003214709038 0.0444725094639252 0.0052505208554309	-0.098789
C	0.4988298404142490 0.8609556200076741 0.0007865321939107	0.166560
C	0.4992073823139060 0.9595242702227064 0.0016549938547789	-0.091183
C	0.8609534131012561 0.4988590373687809 -0.0008173169881980	0.166605
C	0.9595210327949318 0.4992156117862099 -0.0017032796106138	-0.091297
C	0.1430288426548945 0.4980673540399853 -0.0059589645457780	0.171725
C	0.0444882935721523 0.4987042311969354 -0.0052801629105237	-0.098799
H	0.5045739158786904 0.6770345019732184 0.2505383532546006	0.102959
H	0.5071230888507379 0.8511565431517103 0.2592563934704216	0.125918
H	0.4558693817364122 0.3367360696101133 0.2459158548079430	0.101910
H	0.4551157405494440 0.1628895989845055 0.2570874643414965	0.127464
H	0.3271775872510356 0.5366393721028814 0.2361060573404110	0.099478
H	0.1524411559929602 0.5397866431986449 0.2456183082154814	0.125986
H	0.6683711529517152 0.4874271013438577 0.2474717941592098	0.106745
H	0.8410201206702315 0.4893376410035180 0.2579045887126898	0.127119
H	0.4873733410591045 0.6683679580518729 0.7525189501483998	0.106695
H	0.4893092629364113 0.8410594604232310 0.7421107647270252	0.127244
H	0.5366007351759057 0.3272211153314947 0.7638811198532730	0.099559
H	0.5397698068066592 0.1524468724380238 0.7543881181577040	0.125862
H	0.6770735732207646 0.5045994763775546 0.7494632119705074	0.102949
H	0.8511525275501205 0.5071404731008190 0.7406629264874193	0.125916
H	0.3367788302037812 0.4558760657444986 0.7541232537990786	0.101903
H	0.1629725529436880 0.4551045904558157 0.7428725028118534	0.127535
Cd	0.5021740473915804 0.5021752494367157 0.0000472225586012	0.828871
Fe	0.5009092999828834 0.5008757117269415 0.5000535718833985	1.513534
F	0.5078334111631012 0.4945538206618496 0.7323000485621094	-0.578765
F	0.4945970221660975 0.5077977362034919 0.2677326225911297	-0.579045
F	0.4674902180006178 0.6268636607890744 0.5179320027028834	-0.598171
F	0.4093456354812304 0.4093144268789491 0.5000497561274396	-0.607553
F	0.6269251819641348 0.4674147950399961 0.4821665692253617	-0.598352
N	0.4975371144978640 0.3376951704993469 0.0049053718306285	-0.234388
N	0.4973681855158106 0.6661983881772811 0.0017785857151165	-0.237612
N	0.6661923872568353 0.4974151072230639 -0.0017791078103235	-0.237634
N	0.3377195432128166 0.4975555231834953 -0.0048855889472753	-0.234408
	  	
