#======================================================================

# CRYSTAL DATA

#----------------------------------------------------------------------

data_VESTA_phase_1


_pd_phase_name                         FeFFIVE_4_Cd_i
_cell_length_a                         24.35332
_cell_length_b                         21.14827
_cell_length_c                         9.61119
_cell_angle_alpha                      89.99767
_cell_angle_beta                       90.00259
_cell_angle_gamma                      89.97453
_symmetry_space_group_name_H-M         P 1
_symmetry_Int_Tables_number            1

loop_
_symmetry_equiv_pos_as_xyz
   x, y, z

loop_
   _atom_site_label
   _atom_site_fract_x
   _atom_site_fract_y
   _atom_site_fract_z
   _atom_site_charge
C	0.4108217896006989 0.5930977441328232 0.6304656143198820	0.104551
C	0.3683503606610080 0.5493285440555226 0.6281795792929921	-0.170980
C	0.2762717074149403 0.4501322702330600 0.6277205105082327	-0.117571
C	0.2321219557725536 0.4086415421579269 0.6266557881141566	-0.114237
C	0.1350693740560151 0.3240668701022293 0.6254611866148265	-0.171199
C	0.0898656722921489 0.2841193226730753 0.6292101496277429	0.098911
C	0.9109151399914741 0.0930546671283099 0.6304961330763615	0.105090
C	0.8684097451612446 0.0493218367752431 0.6282018619177889	-0.171299
C	0.7762686694364799 0.9501466049832170 0.6277218363358990	-0.118102
C	0.7321189645485170 0.9086512105833051 0.6266875603433260	-0.113848
C	0.6350181356167782 0.8240954789998530 0.6254653022065479	-0.171286
C	0.5897897652717189 0.7841689069708881 0.6292329427338325	0.099289
C	0.5896441284244400 0.4062534415083047 0.1306583969271340	0.102608
C	0.6318727820361262 0.4503111917820071 0.1281609268590265	-0.175746
C	0.7241355119882051 0.5492786056838870 0.1277458628470505	-0.115726
C	0.7681425053919207 0.5909492395371969 0.1266534364228044	-0.113717
C	0.8646452515399271 0.6761979235880028 0.1254297334960799	-0.169602
C	0.9097222659906586 0.7163183823998207 0.1290004855504016	0.097063
C	0.0895306513501666 0.9064206766000347 0.1306485570895974	0.103159
C	0.1318064220494632 0.9504160600589810 0.1281682755685229	-0.174579
C	0.2241382892601498 0.0492824875161961 0.1277355911528828	-0.115472
C	0.2681482651299209 0.0909361668399808 0.1266194587109169	-0.113763
C	0.3647117851090433 0.1760711686144865 0.1253659136589365	-0.169687
C	0.4098195342924582 0.2161660514031583 0.1289192587244808	0.096138
C	0.5901103329171106 0.5941955538469739 0.8694734063166645	0.105322
C	0.6321249283972139 0.5497755347519476 0.8718548064359000	-0.176684
C	0.7240195822335603 0.4501811863990005 0.8722520598771727	-0.116829
C	0.7681446031126994 0.4086235337583002 0.8733241475871431	-0.112637
C	0.8655984594895098 0.3246653819044024 0.8745608185066142	-0.170698
C	0.9109801035320756 0.2849413701385319 0.8709494259234082	0.097980
C	0.0901290887092361 0.0942165169628248 0.8694765431321120	0.105526
C	0.1321408037338056 0.0498045215447076 0.8718455915889941	-0.176235
C	0.2239880924307345 0.9501651078023257 0.8722712452164477	-0.117074
C	0.2681135077442168 0.9086062045989013 0.8733180990397977	-0.112553
C	0.3656030138067856 0.8246883257272303 0.8745631265579533	-0.170783
C	0.4109968688541364 0.7849852392261959 0.8709336895695569	0.098211
C	0.4116818572367238 0.4076846693016654 0.3694573979787338	0.105687
C	0.3688498964345693 0.4510082189507071 0.3717930996652153	-0.173663
C	0.2760189847768338 0.5492976067864256 0.3722386720994218	-0.117908
C	0.2320003531743390 0.5910077129063964 0.3733286291992268	-0.114797
C	0.1358171850998545 0.6769505517914408 0.3744927012313702	-0.170077
C	0.0907889910229363 0.7171912591112140 0.3708165758436744	0.096372
C	0.9117043010167952 0.9076918830862172 0.3695020708016588	0.105865
C	0.8688660991054394 0.9510122936207677 0.3718604121276753	-0.174138
C	0.7760554047516072 0.0493225524525316 0.3722789417067952	-0.117962
C	0.7320338652780098 0.0910249067867453 0.3733658002339525	-0.114646
C	0.6358439227092959 0.1769169449408119 0.3745453067228853	-0.169875
C	0.5907954569894014 0.2171520194191568 0.3708613722930484	0.096245
C	0.5896327411519263 0.4062640150523635 0.3692984911269735	0.103058
C	0.6318611665006204 0.4503279037584458 0.3718163215043172	-0.175389
C	0.7241176023989436 0.5492925149568794 0.3722507303431130	-0.115595
C	0.7681266512048512 0.5909583247701221 0.3733596087104833	-0.113704
C	0.8646532172287710 0.6761937780343479 0.3746265591799087	-0.169764
C	0.9097320751834199 0.7163232596380541 0.3710558596478524	0.096948
C	0.0895021155330350 0.9064290595949683 0.3692861815536754	0.103473
C	0.1317789011431132 0.9504297385025847 0.3718111450376448	-0.174742
C	0.2241304896804381 0.0492973035690014 0.3722445547780345	-0.115571
C	0.2681419020121594 0.0909459921514907 0.3733612714637238	-0.113604
C	0.3647151145928768 0.1760755849517838 0.3746206350901779	-0.169703
C	0.4098251790026853 0.2161716954300097 0.3710579101361450	0.096420
C	0.4108236261243323 0.5931067140722376 0.8695254577034062	0.104751
C	0.3683504187525986 0.5493390125758100 0.8718078656063183	-0.170835
C	0.2762644870884111 0.4501444733378681 0.8722758318296064	-0.117900
C	0.2321107223210592 0.4086503062845956 0.8733325675791276	-0.114104
C	0.1350661854196552 0.3240663998174428 0.8745089549322385	-0.171151
C	0.0898648694909941 0.2841200537814173 0.8707522109986296	0.098871
C	0.9109208388339547 0.0930469509984298 0.8695766182741944	0.105292
C	0.8684183490115411 0.0493160906630581 0.8718308890196178	-0.171478
C	0.7762679508771683 0.9501478184260019 0.8722885285431470	-0.118050
C	0.7321175397722947 0.9086491150029662 0.8733227896939647	-0.113955
C	0.6350180168070563 0.8240926982992537 0.8745152028695546	-0.171037
C	0.5897896041815014 0.7841669008488108 0.8707515553288507	0.098857
C	0.4116688805162058 0.4076932534353287 0.1305091715224472	0.105227
C	0.3688369927996742 0.4510160807744737 0.1281983403844198	-0.173599
C	0.2760185645377885 0.5493026685751921 0.1277222685311488	-0.118323
C	0.2320004087751475 0.5910082587320988 0.1266364154990879	-0.114262
C	0.1358387676973575 0.6769593314849652 0.1254048223517309	-0.169796
C	0.0908071393304597 0.7171913640897619 0.1290354562814124	0.096426
C	0.9116763689594541 0.9076929267757907 0.1305682312720893	0.105745
C	0.8688453350415867 0.9510097496794875 0.1282567996949567	-0.173656
C	0.7760587677980453 0.0493124423173669 0.1277524962274653	-0.118036
C	0.7320346563187305 0.0910156681751456 0.1266486560689186	-0.114601
C	0.6358434095854961 0.1769181665438427 0.1254158256648117	-0.170064
C	0.5907984724199004 0.2171495899815072 0.1290685391495605	0.096340
C	0.5901055324570537 0.5942006931633521 0.6305191040810785	0.105459
C	0.6321172548805548 0.5497790740036884 0.6281323671122937	-0.176494
C	0.7240131880054332 0.4501888548191113 0.6277321459690982	-0.116818
C	0.7681397043516744 0.4086316796064702 0.6266435728908819	-0.112831
C	0.8655895771210779 0.3246726238364377 0.6254312273498788	-0.170604
C	0.9109697700001042 0.2849473425449220 0.6290379666992127	0.098154
C	0.0901325104431308 0.0942258857439303 0.6304919005392899	0.105545
C	0.1321465438941490 0.0498113089320747 0.6281261077191526	-0.176570
C	0.2239823778221046 0.9501692228068247 0.6277210498622431	-0.116923
C	0.2681079123795130 0.9086142537974053 0.6266561200333395	-0.112676
C	0.3655941612535700 0.8247030945524192 0.6254025829230462	-0.170429
C	0.4109898342183360 0.7849979028430656 0.6290179945945426	0.098173
C	0.3451510309578962 0.5235072257930073 0.7499996446114083	0.113250
C	0.2998996628407356 0.4750437292862097 0.7499963279120520	0.069380
C	0.2075692998194933 0.3873502756705303 0.7499863545220280	0.064802
C	0.1593085590669298 0.3450961098845330 0.7499871190075443	0.106025
C	0.8451844222106020 0.0235179115970309 0.7500163036902263	0.112954
C	0.7998945051902995 0.9750515989471845 0.7500094718738708	0.069210
C	0.7075558253070494 0.8873441680574059 0.7499954889219616	0.064710
C	0.6592809116436369 0.8451056821635310 0.7499934647436244	0.106056
C	0.6551477320716218 0.4761356401908668 0.2499889884917902	0.115867
C	0.7004321350782560 0.5244837796348768 0.2499948236037315	0.067173
C	0.7925117701889086 0.6124632507913463 0.2500205475621333	0.068827
C	0.8405388067183459 0.6550704270406853 0.2500369005953026	0.101168
C	0.1550943180064269 0.9761896881468044 0.2499960051101079	0.115291
C	0.2004181890877593 0.0244969454886782 0.2499926059262985	0.066592
C	0.2925397593554463 0.1124361363480057 0.2499970383399214	0.068544
C	0.3406007986735695 0.1550026959468377 0.2499918496528262	0.101477
C	0.6552489098758393 0.5237624790422297 0.7499960340592488	0.111135
C	0.7003790780712791 0.4751240814081982 0.7499893684477047	0.065519
C	0.7927154679441774 0.3873790322793411 0.7499958402431094	0.068278
C	0.8411930809116851 0.3454168537742953 0.7499863457217057	0.104347
C	0.1552457060222890 0.0237941877989568 0.7499905539983661	0.111181
C	0.2003726143983250 0.9751129655918118 0.7499880056135148	0.065274
C	0.2927034811325963 0.8873696837153324 0.7499875040767915	0.068031
C	0.3411985963475460 0.8454302523727508 0.7499834316712468	0.104419
C	0.3453430174666160 0.4765302905009530 0.2499980076488308	0.116484
C	0.2997643470026045 0.5245646892967056 0.2499873358075370	0.071917
C	0.2076801115737668 0.6126514640916021 0.2499704149948088	0.066649
C	0.1598321429494989 0.6555585198866544 0.2499682786091231	0.102604
C	0.8453674063556128 0.9765277365800966 0.2500539377243692	0.116331
C	0.7997975788834367 0.0245779219656846 0.2500364086255910	0.071480
C	0.7077044507516809 0.1126541913166893 0.2500000925086494	0.066714
C	0.6598463011863094 0.1555377398978611 0.2499808562272018	0.102628
H	0.4283264947083570 0.6118186555389890 0.5339961835686030	0.108921
H	0.3549741604383099 0.5372081435677000 0.5251665661000512	0.103863
H	0.2916301047723382 0.4621577714657855 0.5263267800991297	0.087088
H	0.2168841939155492 0.3932116440054541 0.5256968176888021	0.103783
H	0.1508491462553943 0.3381525715261142 0.5242679855989014	0.116642
H	0.0702950224534012 0.2663398311988229 0.5344737157374295	0.106082
H	0.9284405802466634 0.1117706573015246 0.5340205201902278	0.109182
H	0.8550378775379955 0.0372546874291982 0.5251572512145590	0.103787
H	0.7916210105662570 0.9621671410390359 0.5263048480185349	0.087258
H	0.7168932383791136 0.8932087874327848 0.5257222378408248	0.103644
H	0.6507989232047157 0.8381915015883304 0.5242689282112681	0.116521
H	0.5701924368802302 0.7664324236818528 0.5344859766646500	0.105962
H	0.5720976511505830 0.3871977752893586 0.0346359234349558	0.108830
H	0.6451280249240398 0.4628562185167427 0.0252488613329474	0.102680
H	0.7089920296787950 0.5369574311692643 0.0263466742344507	0.086016
H	0.7834327562685836 0.6063166547990780 0.0257317718266991	0.104714
H	0.8490506238140104 0.6620930379688259 0.0240277582036604	0.118546
H	0.9291026330437774 0.7339850131665425 0.0337779248498207	0.108693
H	0.0719323201933943 0.8874098232929142 0.0346563535125538	0.108263
H	0.1450868319064295 0.9629435501567074 0.0252793612190554	0.101659
H	0.2089925965173949 0.0369675511495854 0.0263270918348886	0.086007
H	0.2834448381819006 0.1063094904245637 0.0257036217019826	0.104707
H	0.3491181166845133 0.1619760867421004 0.0239865641600147	0.118717
H	0.4292217275106602 0.2337938057517585 0.0336765419896939	0.108872
H	0.5728546919927494 0.6133246703189653 0.9658573656236238	0.110339
H	0.6453250750100129 0.5372852227798679 0.9748603765893543	0.104195
H	0.7088185695342434 0.4623703973842734 0.9736986012487910	0.085809
H	0.7834111447230934 0.3932041504972798 0.9742686710135953	0.104439
H	0.8499167962402195 0.3388124746345664 0.9758595813874708	0.117972
H	0.9307134926487554 0.2676407378512402 0.9660054814090092	0.108703
H	0.0728817775505988 0.1134013942828375 0.9658202014121643	0.110294
H	0.1453524348530185 0.0373587068988737 0.9748576659083438	0.104115
H	0.2087896711768340 0.9623520329228141 0.9737152711233256	0.086187
H	0.2833806882914636 0.8931725072719551 0.9742585722723169	0.104336
H	0.3498980173128351 0.8388225409895157 0.9758339949237999	0.117929
H	0.4307233167487368 0.7676533182036958 0.9659742696643783	0.108651
H	0.4295955133899079 0.3892522619607049 0.4657123348851560	0.108892
H	0.3554770472785422 0.4632358602841430 0.4747583977729346	0.102832
H	0.2912081481572493 0.5370024514969577 0.4736378359033778	0.086678
H	0.2167111278514398 0.6063682637672896 0.4742788261366570	0.104047
H	0.1515764831165349 0.6629759039386424 0.4758537540520171	0.117711
H	0.0715847006549567 0.7352542354310897 0.4658738060075445	0.108040
H	0.9296546227348830 0.8892655036844380 0.4657059374597338	0.109011
H	0.8554891664730857 0.9632621461617575 0.4747888719761710	0.102819
H	0.7912551961076608 0.0370372074705280 0.4736949379007220	0.086894
H	0.7167432475281669 0.1063937385502620 0.4743293478714350	0.103913
H	0.6516140272090154 0.1629591704052459 0.4758867916726831	0.117570
H	0.5715844860670890 0.2352224894181157 0.4659089126658387	0.107888
H	0.5720780312554408 0.3872151905865251 0.4653347385912951	0.108659
H	0.6451071888221322 0.4628836364988152 0.4747158796751949	0.102185
H	0.7089593406136449 0.5369845623106512 0.4736361250875732	0.086124
H	0.7834068431282423 0.6063362614541846 0.4742998669392869	0.104561
H	0.8490645621223666 0.6620822068281772 0.4760284092060201	0.118590
H	0.9291086659975323 0.7339845597123437 0.4662900160105615	0.108851
H	0.0718811444051850 0.8874292512198597 0.4652734972572474	0.108175
H	0.1450368691239949 0.9629711210292536 0.4746960149361040	0.101550
H	0.2089767657534677 0.0369884526322277 0.4736465986605369	0.086053
H	0.2834306946982857 0.1063321495375993 0.4742804173185716	0.104604
H	0.3491271209061608 0.1619814869672303 0.4760080183909958	0.118706
H	0.4292277730881243 0.2338005264131143 0.4662944910845342	0.108836
H	0.4283264474289812 0.6118266654630410 0.9659860053377629	0.108935
H	0.3549696223253311 0.5372266166926117 0.9748372622628364	0.103702
H	0.2916082563072065 0.4621760008259252 0.9736811979802147	0.087177
H	0.2168679508362887 0.3932261534160399 0.9742696373016438	0.103776
H	0.1508465535235955 0.3381570406944278 0.9757051875650149	0.116578
H	0.0702929771015728 0.2663429602767693 0.9654898801071286	0.106179
H	0.9284446380228047 0.1117514588086499 0.9660387778544935	0.109444
H	0.8550437663489591 0.0372288247342770 0.9748981310423446	0.103699
H	0.7916151387075920 0.9621697484686925 0.9737066522225396	0.087299
H	0.7168916015348933 0.8932058243794443 0.9742733733879219	0.103745
H	0.6508012911609055 0.8381895078095659 0.9757214165798976	0.116435
H	0.5701950189561772 0.7664329667466182 0.9654962856122248	0.106127
H	0.4295776873433588 0.3892644772599124 0.0342533683754402	0.109154
H	0.3554531695237130 0.4632469764953607 0.0252372225948041	0.102848
H	0.2912066727345801 0.5370140871156434 0.0263339778044614	0.086894
H	0.2167094055421731 0.6063737981485028 0.0256598566202717	0.103767
H	0.1516117446956068 0.6630005440725910 0.0240684463943250	0.117604
H	0.0716109972584831 0.7352597117312887 0.0339552963737131	0.107949
H	0.9296074113674802 0.8892614581431206 0.0343694280744638	0.108878
H	0.8554460667228057 0.9632563564383233 0.0253028229423322	0.102811
H	0.7912536485098051 0.0370291976846490 0.0263632809737540	0.086774
H	0.7167392390417104 0.1063797882302277 0.0256680742842878	0.103903
H	0.6516132187173770 0.1629590541539515 0.0240807239729317	0.117559
H	0.5715878129030999 0.2352212035153972 0.0340154782388753	0.107839
H	0.5728462919262837 0.6133380022117608 0.5341344815908076	0.110214
H	0.6453120780710168 0.5372946698060889 0.5251249722135396	0.104170
H	0.7088084688754263 0.4623815465294935 0.5262891539883584	0.085960
H	0.7834015292886409 0.3932175738657017 0.5257101410269798	0.104541
H	0.8499021647958256 0.3388207787230553 0.5241342912961022	0.117879
H	0.9307007342939366 0.2676420968353845 0.5339752432039182	0.108576
H	0.0728872453055257 0.1134149492485714 0.5341356001882840	0.110214
H	0.1453591476983100 0.0373811569250170 0.5251265566641737	0.104322
H	0.2087705560348334 0.9623622689922452 0.5262624052062697	0.086052
H	0.2833694709439502 0.8931914288692129 0.5257174737152761	0.104474
H	0.3498848435969542 0.8388433275338575 0.5241415425008434	0.117698
H	0.4307135192960961 0.7676709128539810 0.5339777552341548	0.108533
Cd	0.4997270863807158 0.6891855120348203 0.7498446053530060	0.811965
Cd	0.9997853937031362 0.1892855739570087 0.7498077086993216	0.812308
Cd	0.4996437725215341 0.3102446915716436 0.2497373966920451	0.811934
Cd	0.9996873770342196 0.8102383477786611 0.2489584659349812	0.812041
F	0.4989405833051465 0.6864661669742899 0.4722349586154349	-0.646434
F	-0.0009512486197420 0.1867145366643697 0.4722012007379624	-0.646623
F	0.4982941785861266 0.3116646814704926 0.9723017387392602	-0.646594
F	0.9984641045071572 0.8116171509279226 0.9730668530445675	-0.646652
F	0.4989097533842540 0.6864427693329678 0.0279979822866615	-0.646433
F	-0.0009280882011233 0.1866872308287298 0.0280336728981056	-0.646598
F	0.4983291385938536 0.3116524098280318 0.5280040752825406	-0.646511
F	0.9984595325898171 0.8117464346351132 0.5283253418918589	-0.646220
F	0.4763741853286048 0.7677209573460498 0.2499621067517262	-0.615058
F	0.5692410783738936 0.6563220523331791 0.2500832891426277	-0.613070
F	0.9753440361503461 0.2680269479323292 0.2500366877948164	-0.615150
F	0.0699314408368214 0.1587832266744827 0.2501213348520333	-0.613440
F	0.5709681512090143 0.2937823152623256 0.7501849616304652	-0.616976
F	0.4711953940687930 0.3939189768438842 0.7500733322331307	-0.606562
F	0.0704649792473245 0.7899315672659561 0.7503474704410610	-0.616542
F	0.9742589984693973 0.8948915194050366 0.7506033048476560	-0.607494
F	0.4419481323332575 0.6239569892567618 0.2500627110651493	-0.604334
F	0.9430810755828511 0.1238010345485471 0.2500422940041513	-0.604226
F	0.4449006912885795 0.2482810044283787 0.7500404426647704	-0.612813
F	0.9434180869996669 0.7501012456029238 0.7499703063492620	-0.613143
N	0.4323891132230654 0.6144684272243752 0.7499945714711692	-0.229441
N	0.5677044553246091 0.7645115173430097 0.7499863911518555	-0.240287
N	0.9324970756796395 0.1144153371084724 0.7500384850191657	-0.230062
N	0.0677842948606571 0.2644709196114731 0.7499793056426416	-0.240349
N	0.5681597877728468 0.3846743761337428 0.2499791203010892	-0.229118
N	0.4317978580538132 0.2358256730844721 0.2499857764614722	-0.238401
N	0.0680244059553230 0.8848572297362178 0.2499560726015731	-0.228826
N	0.9317035047523771 0.7359867515945773 0.2500247915183997	-0.239835
N	0.5687462479254197 0.6158605942709239 0.7499923126572959	-0.229848
N	0.4330152886074147 0.7653286672980200 0.7499795709886566	-0.238614
N	0.0687474970122059 0.1158754790858068 0.7499745561384090	-0.229849
N	0.9329805610380072 0.2652798023690850 0.7499969381358003	-0.238621
N	0.4333616982476640 0.3864311839621057 0.2499818432326425	-0.231703
N	0.5686715470423472 0.2366853961464393 0.2499622570057024	-0.238200
N	0.9333717095713052 0.8864423829097412 0.2500325377096873	-0.231518
N	0.0686714854141069 0.7367434653935582 0.2499083340533925	-0.238852
Fe	0.4971609184909667 0.6838618137586358 0.2499500912707722	1.525002
Fe	0.9974461738140835 0.1846304704640097 0.2499700439817447	1.525379
Fe	0.4967772000279770 0.3118815176648313 0.7499372605104995	1.526557
Fe	0.9970577460198985 0.8117592628569246 0.7496761535207107	1.525472
	  	
