#======================================================================

# CRYSTAL DATA

#----------------------------------------------------------------------

data_VESTA_phase_1


_pd_phase_name                         FeFFIVE_7_Cu
_cell_length_a                         18.93071
_cell_length_b                         18.93081
_cell_length_c                         8.21257
_cell_angle_alpha                      89.88810
_cell_angle_beta                       90.11015
_cell_angle_gamma                      90.03291
_symmetry_space_group_name_H-M         P 1
_symmetry_Int_Tables_number            1

loop_
_symmetry_equiv_pos_as_xyz
   x, y, z

loop_
   _atom_site_label
   _atom_site_fract_x
   _atom_site_fract_y
   _atom_site_fract_z
   _atom_site_charge
C	0.6661250777049328 0.8693832386057926 0.6971513286093730	0.099413
C	0.6145359244838523 0.9215764348527948 0.7000264932247049	-0.175748
C	0.5810041338558473 0.8876243408648301 0.4293796931641500	-0.170160
C	0.6333771600808846 0.8365371124218579 0.4347999919604530	0.099219
C	0.8343124375658115 0.6306453426549423 0.6954433729598911	0.103859
C	0.8856847290966744 0.5783324671826233 0.6996054959644611	-0.175898
C	0.9191151243920210 0.6123914121546553 0.4289701944993323	-0.171027
C	0.8669029504704699 0.6637516293313090 0.4332027712090518	0.095077
C	0.6306531041920176 0.6655020585548284 0.6964859280631562	0.099221
C	0.5782749549312279 0.6140751266799350 0.6998899586019401	-0.173896
C	0.6120631804623955 0.5808326997729208 0.4292394793638079	-0.169482
C	0.6632230324687695 0.6332458742886893 0.4339888749922444	0.095121
C	0.8696266043471506 0.8331909360804247 0.6958761219004378	0.101762
C	0.9216356596272611 0.8849629054341721 0.6996741906325156	-0.175589
C	0.8870279949345686 0.9190393998816443 0.4294873323285360	-0.171251
C	0.8355192989330091 0.8669779682196295 0.4347000070889231	0.098647
C	0.3331931472414275 0.3696288595802309 0.3041315626187732	0.101847
C	0.3849643781837198 0.4216381121493209 0.3003316855145088	-0.175720
C	0.4190388636897359 0.3870277713529715 0.5705184108385464	-0.171236
C	0.3669778346555319 0.3355190052049653 0.5653057387050460	0.098674
C	0.1655062880745534 0.1306550447887923 0.3035162213253835	0.099226
C	0.1140792243107087 0.0782775210862796 0.3001115231843154	-0.173926
C	0.0808328789012867 0.1120621444066351 0.5707607088706372	-0.169431
C	0.1332462171433403 0.1632216862168754 0.5660122907142944	0.095068
C	0.3693849513696347 0.1661250190280668 0.3028460051957595	0.099267
C	0.4215766216022859 0.1145353629904835 0.2999694613006464	-0.175737
C	0.3876241791114759 0.0810029598879130 0.5706186302009247	-0.170126
C	0.3365379847630824 0.1333762678852044 0.5651986597301917	0.099228
C	0.1306463704804544 0.3343120002694195 0.3045580023115196	0.103881
C	0.0783335486328470 0.3856825814179857 0.3003920971624613	-0.175947
C	0.1123905295684793 0.4191131733577563 0.5710264687545533	-0.171023
C	0.1637506165052241 0.3669014037680466 0.5667943380687208	0.095229
C	0.4322440311621540 0.0707334893663810 0.4360721662960726	0.141045
C	0.4871423337739104 0.0168092559961902 0.4333786260157053	-0.121619
C	0.0676305708526161 0.4293728764120695 0.4362051880993523	0.141220
C	0.0126456413338124 0.4832226073084408 0.4333385909362936	-0.121031
C	0.4290261351717796 0.4320403771397772 0.4360776442478780	0.143703
C	0.4829749666611304 0.4870083871651570 0.4333812320663769	-0.124989
C	0.0704428655541942 0.0674780408118590 0.4360795972420013	0.138682
C	0.0165565612125349 0.0125105466622901 0.4333061858798098	-0.118848
C	0.5674771334014935 0.5704409557810993 0.5639213409909003	0.138554
C	0.5125095558814907 0.5165550771174926 0.5666940032607171	-0.118661
C	0.9320402585982112 0.9290261172745894 0.5639264737102336	0.143639
C	0.9870080484032353 0.9829731268455374 0.5666201823443398	-0.125002
C	0.5707336838906997 0.9322439370335134 0.5639249429524555	0.141035
C	0.5168100493203510 0.9871417329482232 0.5666179273651145	-0.121605
C	0.9293748191778690 0.5676307270403348 0.5637905779417266	0.141231
C	0.9832230859027222 0.5126463187071745 0.5666555890674049	-0.121112
H	0.7001251466370879 0.8595381316941285 0.8023132856953245	0.109568
H	0.6087557872147144 0.9542738959627974 0.8083342403482721	0.118641
H	0.5475429029344971 0.8915455777321035 0.3217645458019477	0.116301
H	0.6434354595948223 0.8015359009291058 0.3324562532848163	0.102840
H	0.8000034934821159 0.6409196078719861 0.7989358605857408	0.101923
H	0.8915268458895133 0.5456686835442514 0.8082121841082838	0.117035
H	0.9525723984693757 0.6086029473783664 0.3215677058173605	0.118800
H	0.8574601623025255 0.6986282571665818 0.3293520255349696	0.109606
H	0.6414497433732320 0.6986753981566233 0.8018387564954730	0.108084
H	0.5458411638218282 0.6081324980016332 0.8085592773771318	0.117898
H	0.6080578580290458 0.5476814704016951 0.3214533015708831	0.118078
H	0.6971906509367779 0.6437301580498459 0.3298204224618712	0.108294
H	0.8605330847754168 0.7978683892691680 0.7988637320759134	0.105968
H	0.9545831469680027 0.8906391482506895 0.8078642717150288	0.117490
H	0.8907410331528267 0.9527686462141297 0.3222419395116056	0.117582
H	0.7994183277827080 0.8581618015793134 0.3330062154771115	0.104873
H	0.2978717750037150 0.3605362066553650 0.2011456693575437	0.105911
H	0.3906425765611680 0.4545868400303396 0.1921411053268004	0.117493
H	0.4527678302823753 0.3907390270772372 0.6777630220284264	0.117578
H	0.3581618583993718 0.2994173231706380 0.6669998648084980	0.104861
H	0.1986807836209456 0.1414531277008494 0.1981640235734326	0.108118
H	0.1081385594474987 0.0458451659792458 0.1914409832122873	0.117888
H	0.0476792667420017 0.1080553931895278 0.6785462059433841	0.118064
H	0.1437288905781567 0.1971882560171089 0.6701785557173845	0.108316
H	0.3595411196827192 0.2001271714185474 0.1976854527753145	0.109651
H	0.4542756047432469 0.1087562591755283 0.1916589214262527	0.118647
H	0.3915448944291733 0.0475410938103503 0.6782351398955219	0.116284
H	0.3015357822208707 0.1434346564680164 0.6675418083332181	0.102858
H	0.1409205999201110 0.3000042154188753 0.2010701636115510	0.101940
H	0.0456707146353218 0.3915245374592251 0.1917873034828760	0.117072
H	0.1086017242892731 0.4525707135132492 0.6784262403709336	0.118738
H	0.1986258713274967 0.3574588029273127 0.6706445845536383	0.109605
H	0.5064114645032116 0.0016589351968907 0.3128205482990022	0.103534
H	0.9931774924614186 0.4986819477246721 0.3128567893313815	0.102908
H	0.4983194559516122 0.5063769299611017 0.3128354639251038	0.104542
H	0.0012535874007586 0.9931044678650349 0.3128412411185864	0.102305
H	0.4931015211615247 0.5012509957459553 0.6871589357405633	0.102251
H	0.0063745017682478 0.9983166907095022 0.6871641692121558	0.104560
H	0.5016592315520895 0.0064099701899675 0.6871750540406524	0.103525
H	0.9986832500643668 0.4931769251672837 0.6871338089713479	0.102973
Cu	0.2497529242931562 0.2498295899079072 0.4339516489137885	0.728574
Cu	0.7498295355571324 0.7497513390910576 0.5660484866171892	0.728436
Fe	0.2507724598230101 0.2507917458093656 0.9348725417968771	1.508332
Fe	0.7507891338192025 0.7507768387541671 0.0651251397360122	1.508395
F	0.2507965550902416 0.2493031086734071 0.1699909004018937	-0.601229
F	0.2488495063022978 0.2507025933645912 0.6994827771698593	-0.600479
F	0.7493085883331678 0.7507952741798622 0.8300091640750537	-0.601260
F	0.7507156423385363 0.7488364349532945 0.3005046196287269	-0.600438
F	0.1801157506471163 0.1808780676590431 0.9354770315847720	-0.614195
F	0.2275114679880003 0.3471923862913317 0.9376091309911988	-0.614026
F	0.3468580914173167 0.2261757282761699 0.9316278723249111	-0.613702
F	0.7261290173711508 0.8468453918699523 0.0683602856852492	-0.613732
F	0.8471947763373654 0.7275511124697615 0.0623475689571201	-0.614027
F	0.6808802093994206 0.6801091718511391 0.0645740373993128	-0.614209
N	0.3275592718678128 0.1751973211334204 0.4337507429242899	-0.221813
N	0.1725308275291210 0.3250715682655317 0.4354763744104599	-0.220737
N	0.3246072659402240 0.3272282656778907 0.4344928206412512	-0.220162
N	0.1748535446825162 0.1723190405912408 0.4345116736197694	-0.224324
N	0.6723196581626681 0.6748519623641399 0.5654896440213933	-0.224279
N	0.8272263607367176 0.8246055464062682 0.5655141593262683	-0.220144
N	0.6751985155707563 0.8275573651762855 0.5662473620430827	-0.221776
N	0.8250703256030354 0.6725322484778287 0.5645232433382871	-0.220596
	  	
