#======================================================================

# CRYSTAL DATA

#----------------------------------------------------------------------

data_VESTA_phase_1


_pd_phase_name                         FeFFIVE_2_Zn
_cell_length_a                         13.96495
_cell_length_b                         13.96492
_cell_length_c                         8.03844
_cell_angle_alpha                      90.05556
_cell_angle_beta                       89.94476
_cell_angle_gamma                      89.97581
_symmetry_space_group_name_H-M         P 1
_symmetry_Int_Tables_number            1

loop_
_symmetry_equiv_pos_as_xyz
   x, y, z

loop_
   _atom_site_label
   _atom_site_fract_x
   _atom_site_fract_y
   _atom_site_fract_z
   _atom_site_charge
C	0.5308504946404655 0.7036904798618069 0.1342790891946497	0.103215
C	0.5320058879200352 0.8030617178657053 0.1396643951013835	-0.168169
C	0.4685534865238210 0.2968910000166942 0.1342572749395299	0.098757
C	0.4678986414015626 0.1974530385098553 0.1393398440945614	-0.168585
C	0.2968281356875671 0.5310209899160294 0.1335405104070502	0.102225
C	0.1974309950032591 0.5320147118486588 0.1393151527834723	-0.168712
C	0.7035576107368170 0.4689514391669775 0.1337192369209910	0.096449
C	0.8029534887682187 0.4680459775468814 0.1388999521496599	-0.166781
C	0.4689526811196126 0.7035572870212166 0.8662808259408640	0.096440
C	0.4680483938946211 0.8029523142332824 0.8610976199669348	-0.166825
C	0.5310222694106635 0.2968271912119533 0.8664589814153800	0.102315
C	0.5320161878956676 0.1974302033119379 0.8606838843623936	-0.168781
C	0.7036898977063463 0.5308497568657783 0.8657208396807923	0.103188
C	0.8030615162729516 0.5320053993293853 0.8603351198484797	-0.168245
C	0.2968914760629308 0.4685520891136448 0.8657429774251996	0.098730
C	0.1974535148886004 0.4678973797183982 0.8606609599848428	-0.168563
C	0.5000097332609175 0.1453436922483441 0.0000082122913795	0.171589
C	0.5000987786152060 0.0438800624819823 -0.0000300697929449	-0.097264
C	0.5000158502074422 0.8550720804484717 0.0003485307192983	0.166788
C	0.5000869299565078 0.9565669389453110 0.0003083372177735	-0.090406
C	0.8550729613731224 0.5000148473255658 -0.0003491963513119	0.166884
C	0.9565664711452947 0.5000863509838513 -0.0003114739340922	-0.090675
C	0.1453447564457787 0.5000079416221275 -0.0000086924490286	0.171479
C	0.0438803485053403 0.5000966969602822 0.0000296870928491	-0.096973
H	0.5533386387541813 0.6612627565939634 0.2408885030659339	0.099915
H	0.5572236348139307 0.8398971790487036 0.2506794859938667	0.125621
H	0.4440381248249911 0.3393461722619993 0.2404806776698263	0.102920
H	0.4424299805306833 0.1605595002866535 0.2500397702627792	0.126411
H	0.3397172951607169 0.5552623104385325 0.2388618369107877	0.097070
H	0.1604780238680832 0.5574402861767692 0.2501914407361311	0.125469
H	0.6615274067775619 0.4464704782407493 0.2413711166035976	0.105588
H	0.8395642766730910 0.4428922158517354 0.2500314957055891	0.126690
H	0.4464699372804449 0.6615262375871737 0.7586294904172812	0.105622
H	0.4428930114581059 0.8395623019539266 0.7499673666440900	0.126706
H	0.5552619798928027 0.3397164526403510 0.7611388274098468	0.097049
H	0.5574409411654401 0.1604766387878171 0.7498086624786833	0.125473
H	0.6612625830993536 0.5533370350072361 0.7591101134984484	0.099931
H	0.8398966228320773 0.5572217800033374 0.7493199467867552	0.125650
H	0.3393464804210358 0.4440368207582923 0.7595183838550459	0.102932
H	0.1605600491998402 0.4424285536604614 0.7499587505491111	0.126397
Zn	0.5004954314736670 0.5004940201225760 0.0000025229678988	0.737898
Fe	0.4992563918978324 0.4992645359289840 0.5000015299088653	1.506742
F	0.4990894709537300 0.5013882561021799 0.7437554710971818	-0.565863
F	0.5013895988755038 0.4990885721274496 0.2562452267043482	-0.565847
F	0.4634365720440379 0.6276935518175183 0.4960550463933132	-0.597834
F	0.4050266524706467 0.4050289565103390 0.5000038018870171	-0.598803
F	0.6276923033370866 0.4634658932354441 0.5039485589992658	-0.597885
N	0.4998028446109277 0.3458191731476014 0.0003267635731583	-0.221794
N	0.4998608642954764 0.6547189484878828 0.0004095409040347	-0.226207
N	0.6547199465996543 0.4998602138724009 -0.0004098931148517	-0.226186
N	0.3458204952463296 0.4998016037957633 -0.0003263469180987	-0.221744
	  	
