#======================================================================

# CRYSTAL DATA

#----------------------------------------------------------------------

data_VESTA_phase_1


_pd_phase_name                         FeFFIVE_5_Co_i
_cell_length_a                         19.75793
_cell_length_b                         19.75261
_cell_length_c                         15.95693
_cell_angle_alpha                      89.98089
_cell_angle_beta                       89.96062
_cell_angle_gamma                      90.01714
_symmetry_space_group_name_H-M         P 1
_symmetry_Int_Tables_number            1

loop_
_symmetry_equiv_pos_as_xyz
   x, y, z

loop_
   _atom_site_label
   _atom_site_fract_x
   _atom_site_fract_y
   _atom_site_fract_z
   _atom_site_charge
F	0.2916329718989082 0.1635022129019671 0.3492263617056353	-0.600358
F	0.1589339192868260 0.2637821554381540 0.3471494724942359	-0.611845
F	0.3123736366602065 0.3232483766952810 0.3469707179547914	-0.602921
F	0.6763319958983791 0.6880043750214022 0.1515453063216973	-0.610823
F	0.7357702686250754 0.8408808057471011 0.1524862680825302	-0.599290
F	0.8363035495002065 0.7081500222053022 0.1502141085398339	-0.597697
F	0.6593415092217184 0.7640416589096357 0.6468025947867077	-0.617968
F	0.7915839244327612 0.6630994016735552 0.6459639527662521	-0.605943
F	0.8127886147381871 0.8232479381202230 0.6460221435945170	-0.612611
F	0.1771484797995708 0.1872468148241049 0.8544850079153244	-0.603861
F	0.3370356856439722 0.2085812570181510 0.8544104044104952	-0.599321
F	0.2370825567462299 0.3409036445831720 0.8540483789723784	-0.611362
F	0.2499112556464570 0.2499308242740636 0.4684560898429210	-0.561886
F	0.2505461755284885 0.2485362220835067 0.2266236351595129	-0.572438
F	0.7502828636217956 0.7501512378747999 0.0310570201824348	-0.530237
F	0.7517645000695921 0.7492597413962614 0.2732889511222363	-0.533923
F	0.7499286351449593 0.7488690551885664 0.5247251124723447	-0.587234
F	0.7508715713959555 0.7488571320844957 0.7665674178013839	-0.566768
F	0.2505487970630483 0.2499676881043634 0.9751086605869029	-0.571649
F	0.2509795473596727 0.2493416928086445 0.7338412020460878	-0.560995
N	0.3504561581223908 0.2479179806705791 0.6007364676376826	-0.185843
N	0.1495807616916690 0.2526573453624609 0.6021067969538799	-0.186089
N	0.2521358766276102 0.3504675474435043 0.6012463448107029	-0.189262
N	0.2473740365119893 0.1496388652851386 0.6021632523880793	-0.189678
N	0.6494029338493189 0.7478384704649481 0.8987822587457193	-0.187941
N	0.8505298172367938 0.7526268170584607 0.8977733571424857	-0.188372
N	0.7473494636267880 0.8504433610602988 0.8977301554619163	-0.187685
N	0.7521265617615761 0.6494786995278552 0.8993698426274879	-0.185478
N	0.6443344476500761 0.7526181660308188 0.3978561744693331	-0.246741
N	0.8559259667444649 0.7481393880597076 0.4001603475381648	-0.249970
N	0.7456983569143887 0.6442633989447911 0.3978457846092263	-0.248193
N	0.7537315563548130 0.8555686577480524 0.3995542860484158	-0.247447
N	0.3558411784119445 0.2526062869882064 0.1023418552277463	-0.254335
N	0.1442406524605865 0.2480671842625131 0.1008246924344507	-0.249319
N	0.2537165705145890 0.1442371303560177 0.0994289724368348	-0.255259
N	0.2456465005480840 0.3555281168662868 0.1018734552753115	-0.252326
C	0.3844196930647206 0.2193081452705856 0.6651044516316471	0.088857
C	0.4547184201327442 0.2176711826119377 0.6683439450787362	-0.174568
C	0.4934269230681890 0.2474267893991158 0.6043072681745507	0.103419
C	0.4570399409520360 0.2771073129568430 0.5380468446939941	-0.177546
C	0.3866350494413314 0.2760540599811446 0.5377677747593297	0.090753
C	0.5683415595256558 0.2481547239014253 0.6073434787298689	0.053917
C	0.6050846866912145 0.1919435769955483 0.6368455072421343	-0.127091
C	0.6755810209174280 0.1925987560836410 0.6391970466815839	-0.123015
C	0.7125536440446840 0.2499623699486641 0.6138205146098433	0.067226
C	0.6757740545915926 0.3065548938261448 0.5857433410843879	-0.118316
C	0.6053278073409425 0.3053923237159232 0.5816799060006764	-0.126068
C	0.1157145574044648 0.2812972233459746 0.6665294907048775	0.093584
C	0.0454345661468200 0.2827523996781448 0.6701734552378293	-0.177398
C	0.0066642568573338 0.2527294239084022 0.6063360366291695	0.106882
C	0.0429334613549070 0.2234621103805257 0.5397609461143671	-0.174464
C	0.1132844130830937 0.2249167557193804 0.5392017826448098	0.097389
C	0.9317511331278394 0.2519954144230857 0.6090640459115756	0.054490
C	0.8948602200826364 0.3082847272026085 0.6380121470136023	-0.130101
C	0.8243547375736742 0.3076883669654606 0.6396627712336456	-0.123881
C	0.7875256465756872 0.2503240618550355 0.6140853124813872	0.069538
C	0.8244550608043639 0.1937112001280436 0.5863277977546423	-0.117122
C	0.8949290734750812 0.1947966453432097 0.5829880606281277	-0.124835
C	0.2806455971594948 0.3844602330277578 0.6655440908959417	0.097331
C	0.2823120436762930 0.4547520444375693 0.6689135298894310	-0.170731
C	0.2525617182320848 0.4934565574068140 0.6049082430823991	0.106205
C	0.2228320485328122 0.4570604847179391 0.5386875929284825	-0.178810
C	0.2239521344490910 0.3866897200568821 0.5385189747299601	0.094983
C	0.2518728991784206 0.5683715523545863 0.6077855513116910	0.053012
C	0.3080761932595535 0.6051829392963640 0.6371259178594632	-0.128129
C	0.3074594876464707 0.6756880005547155 0.6391814658840749	-0.121902
C	0.2501071480939008 0.7125251077474251 0.6136968830617191	0.068065
C	0.1935269113877182 0.6757110889429478 0.5857029535377790	-0.117011
C	0.1946743683369941 0.6052528194638891 0.5819222295915408	-0.125619
C	0.2186758010027775 0.1157914307747365 0.6666974700213559	0.090754
C	0.2172847287874620 0.0454434827633648 0.6702455382584117	-0.178268
C	0.2472916034685576 0.0066006984271577 0.6064254691786302	0.103357
C	0.2766547630684904 0.0429306629265906 0.5399109216464810	-0.176430
C	0.2753241174258914 0.1133421385192797 0.5392630148617272	0.088987
C	0.2479925240132375 0.9316567438953035 0.6091225596498263	0.054524
C	0.1917386471470753 0.8946866023559138 0.6381169152632645	-0.129262
C	0.1923536372949813 0.8241651165260281 0.6396208815377824	-0.124877
C	0.2497268098841891 0.7874482035574991 0.6139057016919935	0.068122
C	0.3063406696363987 0.8243970582961283 0.5861488299231659	-0.117414
C	0.3051930237257425 0.8948765613875754 0.5829279158668412	-0.125002
C	0.6154047487599487 0.7193999433347003 0.8344214897898341	0.098170
C	0.5451394868045356 0.7177404708643353 0.8310613023728719	-0.174468
C	0.5064526623689649 0.7474082942051288 0.8951486562029904	0.103017
C	0.5427955862156906 0.7770727754237556 0.9614489538524753	-0.179068
C	0.6131554986293778 0.7759286918810442 0.9616125517745276	0.097103
C	0.4315788254917665 0.7480824464007864 0.8922670462538812	0.054839
C	0.3947808366846781 0.6918396858004022 0.8629077520260691	-0.129366
C	0.3242990088689557 0.6925035632200047 0.8607824383059950	-0.124179
C	0.2874706004990276 0.7499011869749255 0.8862454301236498	0.067015
C	0.3242825008927500 0.8064977907467649 0.9142847841344997	-0.118908
C	0.3947096301576278 0.8053218462089172 0.9181303328067268	-0.126237
C	0.8843894902450542 0.7812745564090575 0.8331964299951199	0.091173
C	0.9547001932316748 0.7826442720491119 0.8296363140960220	-0.181523
C	0.9934984232905471 0.7527376085082390 0.8935226850838869	0.100158
C	0.9572150363161035 0.7234396191386531 0.9600864224435526	-0.177904
C	0.8868112960460560 0.7247544665913621 0.9607336818998000	0.091458
C	0.0683935203106821 0.7520511485286285 0.8908223097009254	0.056172
C	0.1053501236024160 0.8083511959106314 0.8618692309899350	-0.130398
C	0.1758570793735739 0.8077049127385756 0.8603336317793873	-0.126510
C	0.2125498083268006 0.7502932277358506 0.8860080928653635	0.066472
C	0.1755858238657101 0.6936756387682522 0.9137870916167454	-0.118888
C	0.1051331951295328 0.6948292462212728 0.9170345714875088	-0.126024
C	0.7186805877479370 0.8843356666875900 0.8333635480241193	0.095404
C	0.7172885701064390 0.9546361814386150 0.8297185457934667	-0.180570
C	0.7472980351013948 0.9934352139393765 0.8935463157016346	0.104132
C	0.7765698707603804 0.9571585752316119 0.9600754520739210	-0.176153
C	0.7751243244658685 0.8867851703997786 0.9605969689840207	0.098661
C	0.7480051164337359 0.0683462054158153 0.8908719457700760	0.055134
C	0.6917288501799358 0.1052523581782542 0.8619475415719369	-0.130548
C	0.6923345806412553 0.1757562688604976 0.8603998272075513	-0.125840
C	0.7497015386407951 0.2124944418345398 0.8860633412738480	0.067409
C	0.8063157156515839 0.1756143755756669 0.9138253873678616	-0.118573
C	0.8051935039065166 0.1051433819457206 0.9170655770008243	-0.125293
C	0.7807848212258157 0.6154612681680028 0.8350493416220013	0.087974
C	0.7822923526579294 0.5451547417773763 0.8317400129693620	-0.178536
C	0.7524905156471963 0.5064419840665018 0.8957460671096842	0.101241
C	0.7228197314906297 0.5428684107347520 0.9619967274989822	-0.180271
C	0.7239033571112528 0.6133105951309570 0.9622935649506398	0.094973
C	0.7517821161702745 0.4315241578506679 0.8927016985070507	0.056750
C	0.8080094426850724 0.3947983058473084 0.8631798001577424	-0.130450
C	0.8073966314802008 0.3243023793661937 0.8609057562164369	-0.124020
C	0.7500327619660220 0.2873932456043071 0.8863568066659412	0.066302
C	0.6934168160526376 0.3241057492744735 0.9144811867251149	-0.119170
C	0.6945711534491876 0.3945527533637124 0.9184966061325582	-0.128057
C	0.6113198768477421 0.7814994999165483 0.3334529354411344	0.107268
C	0.5412672477060624 0.7829056956095172 0.3293116813950752	-0.181046
C	0.5033833689234308 0.7528390539688005 0.3937064798135287	0.105631
C	0.5385698809392482 0.7233158880018971 0.4606592081082963	-0.181070
C	0.6087085368757190 0.7245568881329224 0.4606838892095454	0.110115
C	0.4292361480080460 0.7521386206635761 0.3909259953718583	0.056867
C	0.3932894791353124 0.8088013755342774 0.3619159462509334	-0.131413
C	0.3230896995591226 0.8080785654012493 0.3598922951780255	-0.124917
C	0.2871788305615740 0.7503164302162288 0.3853656624473961	0.066638
C	0.3231334391416741 0.6933632697067855 0.4133049867853166	-0.121466
C	0.3932931869718459 0.6945151932796988 0.4168756889708013	-0.126360
C	0.8889967749066355 0.7191407710867983 0.3357846837673492	0.104464
C	0.9590426781960232 0.7174932073648478 0.3318078492325754	-0.178855
C	0.9968916720996648 0.7473679852640739 0.3961571208284752	0.104289
C	0.9616332741786050 0.7773086470340517 0.4629075325906625	-0.184053
C	0.8914295245501204 0.7765088650520224 0.4629514363338755	0.103417
C	0.0710141499803930 0.7480779553062070 0.3928195926358818	0.055966
C	0.1068084504451090 0.6915114773499338 0.3631896942155222	-0.130037
C	0.1769933745978410 0.6922470116362669 0.3603769241385961	-0.126338
C	0.2130251447739520 0.7499679834981537 0.3856251589465872	0.070847
C	0.1772241553884151 0.8069092562961540 0.4138892694060050	-0.122587
C	0.1070957159190214 0.8057241113897089 0.4182513576973733	-0.127018
C	0.7172706883328972 0.6111697417056833 0.3331125619368159	0.106168
C	0.7165652153073397 0.5410518941821867 0.3288956834163196	-0.180169
C	0.7468117232357281 0.5032916085207599 0.3932019352102503	0.102188
C	0.7761330688978624 0.5386504324659427 0.4601422411985900	-0.180497
C	0.7743592860413819 0.6088042563876550 0.4604913323550929	0.098402
C	0.7477800128562213 0.4291259164835033 0.3904965754586449	0.056350
C	0.6912123685913255 0.3930112553114991 0.3615765976418486	-0.131069
C	0.6919492025236035 0.3227927212253051 0.3598102094890319	-0.125365
C	0.7496942301043219 0.2869975256226979 0.3854098771851459	0.067094
C	0.8065628359903765 0.3231020718749270 0.4132833659278166	-0.122573
C	0.8053698432485570 0.3932921481030675 0.4166163170542583	-0.126083
C	0.7821212971803837 0.8887743960139393 0.3349920970462772	0.112086
C	0.7830820802240596 0.9588328577192516 0.3307006233605310	-0.176675
C	0.7529794670522223 0.9965461416620536 0.3951012121623922	0.107142
C	0.7233010385941570 0.9611674909084964 0.4619533230072270	-0.185674
C	0.7248907100186028 0.8910185032356170 0.4620130387195809	0.108871
C	0.7520045653168678 0.0706976574994827 0.3919764106654069	0.056034
C	0.8085693945315555 0.1066660811128524 0.3626313469847385	-0.131395
C	0.8078455461544634 0.1768773396394151 0.3602171273966728	-0.124689
C	0.7501119336383762 0.2128185409480333 0.3856167430591912	0.068318
C	0.6932012008024553 0.1768329064358426 0.4137413264649464	-0.120579
C	0.6943641554227281 0.1066615286152412 0.4176804247647112	-0.126493
C	0.3888339529228789 0.2815705088919411 0.1668299329434953	0.099836
C	0.4589241166924433 0.2829088349832178 0.1707844402690465	-0.183036
C	0.4968181596211783 0.2528907583445181 0.1064330084854250	0.101064
C	0.4615894512773445 0.2233074085998029 0.0395846379985085	-0.181796
C	0.3914216503777797 0.2244031328364695 0.0394912595417301	0.098587
C	0.5709586015401423 0.2522124113717039 0.1091737501748057	0.056113
C	0.6069600708081027 0.3088382059106549 0.1381837880687041	-0.133073
C	0.6771555322887823 0.3080871107280618 0.1401353395489877	-0.125288
C	0.7129734308293991 0.2503127443762880 0.1146280374769142	0.066818
C	0.6769733490193875 0.1933941312575786 0.0866901825063875	-0.122816
C	0.6068217583408628 0.1945936306650662 0.0831678580343904	-0.126999
C	0.1110648377029342 0.2192158164539093 0.1651369840422980	0.108111
C	0.0410288187432271 0.2174939201564073 0.1690603756854875	-0.178387
C	0.0032637890029343 0.2473000568427164 0.1045724240792841	0.105344
C	0.0385925103359502 0.2772517258461721 0.0378622051110797	-0.183737
C	0.1087438490067282 0.2763959086231774 0.0381047826611991	0.104842
C	0.9291282887529159 0.2479773556040435 0.1076489461702895	0.054598
C	0.8932411635685357 0.1913803464543688 0.1370934744975589	-0.132266
C	0.8230560527041048 0.1921451884196152 0.1397176146135128	-0.125692
C	0.7871230205713923 0.2499153514404771 0.1144129491714444	0.067699
C	0.8230311291181664 0.3068442906980634 0.0862229210161246	-0.121136
C	0.8931680749161175 0.3056460362920534 0.0820876001155086	-0.126748
C	0.2822475677712508 0.1111291994837914 0.1640367387264898	0.100604
C	0.2830962036848925 0.0410614152130440 0.1683673952951865	-0.180006
C	0.2529261350242614 0.0032341909990644 0.1041749548287602	0.101666
C	0.2232460875722095 0.0385590346049203 0.0373521706402048	-0.184101
C	0.2247664349018448 0.1087603364207588 0.0369721402332709	0.100245
C	0.2519100933104593 0.9290881462572839 0.1075552463990153	0.055461
C	0.3084349998688500 0.8932312224646507 0.1370800395193371	-0.131304
C	0.3077197924602940 0.8230306688150496 0.1397274657578464	-0.125095
C	0.2500357534187005 0.7870008162009805 0.1143876704301651	0.066616
C	0.1931302156184870 0.8228701420888188 0.0861924190998556	-0.121835
C	0.1942978026893868 0.8930327651589612 0.0820110765427460	-0.127223
C	0.2172183204988924 0.3886165231868482 0.1665299593845105	0.105118
C	0.2165304637694133 0.4586916020258530 0.1709879511430762	-0.179738
C	0.2468738448545606 0.4965024995205023 0.1067088681003102	0.102079
C	0.2761532775795043 0.4612101728956561 0.0396635998426235	-0.176715
C	0.2742225075351680 0.3910840388982695 0.0392991920191354	0.105122
C	0.2478533870186527 0.5706736954727405 0.1094755505507084	0.056021
C	0.1912341148898839 0.6067207963439004 0.1383866274103806	-0.132222
C	0.1919415080734719 0.6769396447080864 0.1402127921744201	-0.125494
C	0.2496883954971842 0.7128081529941582 0.1146370333148130	0.067278
C	0.3066014585291112 0.6767549839208862 0.0867408164580772	-0.120931
C	0.3054555265261333 0.6065609109569019 0.0833704795518509	-0.127687
H	0.3540474025304695 0.1995415790177530 0.7166795152329211	0.109944
H	0.4786913712927809 0.1949227018665771 0.7230108425169278	0.119579
H	0.4832801710407793 0.3002662982289980 0.4851990416171324	0.117622
H	0.3576393432804561 0.2973946256299692 0.4858949431134417	0.106340
H	0.5778241318535563 0.1466264807314285 0.6567758633319825	0.098576
H	0.7026234953792519 0.1482197249368198 0.6622868038601051	0.101573
H	0.7029329240228092 0.3514367369192776 0.5643303025232128	0.103123
H	0.5783784746700179 0.3500528417347182 0.5592293953166424	0.102970
H	0.1469179691865572 0.3023518310043201 0.7164021679888632	0.104190
H	0.0211355228830059 0.3058435498099248 0.7244302427121441	0.118164
H	0.0166666348469400 0.2009381717072935 0.4865869062173631	0.119175
H	0.1423311415294775 0.2054164071629012 0.4864793129741297	0.106811
H	0.9219625022381597 0.3536671266879071 0.6579455199257084	0.100110
H	0.7971941931272247 0.3521311784774475 0.6623546551355866	0.103330
H	0.7974372667699944 0.1488412704017341 0.5646546318300966	0.102473
H	0.9219950531368568 0.1501114467363727 0.5608198635353899	0.102872
H	0.3002994097516296 0.3535552334116990 0.7164486882634867	0.105434
H	0.3048790808989251 0.4789084172021653 0.7235465561418840	0.117576
H	0.1997476929437130 0.4833985511413769 0.4859409908920166	0.117117
H	0.2026872084740943 0.3572438781798572 0.4871589801837136	0.103754
H	0.3533736857644086 0.5779962793774980 0.6570870125972809	0.098182
H	0.3518273273309380 0.7028486019007678 0.6621045722017375	0.102273
H	0.1486740920154787 0.7027945935052958 0.5641763684682265	0.102550
H	0.1500442979314049 0.5781915791355576 0.5596239488525642	0.103073
H	0.1976269598871335 0.1464957919884842 0.7172254213437883	0.107254
H	0.1941143011393547 0.0213246808633994 0.7245940507377561	0.118698
H	0.2994149683105002 0.0167883744457281 0.4867648710861983	0.118832
H	0.2953046544999348 0.1419402132713304 0.4862101136431149	0.109472
H	0.1464009101702429 0.9217432311016388 0.6582486107763309	0.100253
H	0.1479539577369057 0.7968887185270832 0.6623182507767704	0.103011
H	0.3512020100591685 0.7974206155291548 0.5643734845894782	0.102745
H	0.3497921235142536 0.9220632378888379 0.5606961012553402	0.103154
H	0.6462642617093950 0.6998214186225511 0.7834121352388210	0.104966
H	0.5209716691113543 0.6952126440946352 0.7764308955073995	0.114568
H	0.5164463829836353 0.8000699365576253 0.0142651246578063	0.115358
H	0.6425268425513433 0.7971560753840555 0.0130537774449219	0.109576
H	0.4219482853162516 0.6465418104675761 0.8429511728755429	0.098035
H	0.2971205605677780 0.6481574737016370 0.8378421413671119	0.100582
H	0.2971601657135074 0.8513495924095145 0.9357702581939991	0.102062
H	0.4217257725681822 0.8499655077380851 0.9404242108338591	0.103513
H	0.8537391121789090 0.8022689920881523 0.7826206020586953	0.106866
H	0.9788502417329411 0.8057676795425489 0.7752641895248845	0.115195
H	0.9833485560286845 0.7007877646419955 0.0132619561185064	0.117208
H	0.8582466675478991 0.7047596619165761 0.0138313757680942	0.113407
H	0.0783100314928252 0.8536735963760232 0.8417607964138190	0.099790
H	0.2031557172333231 0.8520917552842537 0.8376493739183994	0.101030
H	0.2025815219080066 0.6488165161736625 0.9355305469563718	0.102159
H	0.0779608822512450 0.6502205137774497 0.9392276739831911	0.103981
H	0.6975377815089742 0.8531515753846830 0.7835158617442862	0.103084
H	0.6941847958306641 0.9789361378903579 0.7755085385415900	0.114383
H	0.7990657004349578 0.9834314038027435 0.0132550914007566	0.116940
H	0.7947199800022225 0.8577368326003049 0.0132491538221355	0.110453
H	0.6464188675011925 0.0781358228589456 0.8419390845068323	0.099531
H	0.6479393324781140 0.2029869976746953 0.8377386216960038	0.101645
H	0.8511347638947534 0.2026746728230165 0.9355542119739544	0.102047
H	0.8498118329481965 0.0780254193825583 0.9391955573124471	0.103566
H	0.8006640662597582 0.6458010608923388 0.7835471806808911	0.109502
H	0.8050382630795051 0.5211488203296659 0.7770651651593700	0.115746
H	0.6996616466024921 0.5166371581400794 0.0148347312711047	0.116037
H	0.7024598974938453 0.6423078106495705 0.0141553408442969	0.110821
H	0.8532296505484978 0.4220850302812277 0.8431428278901332	0.099003
H	0.8517433232579986 0.2972032065696258 0.8377904886100724	0.099443
H	0.6485726452286679 0.2968914739285614 0.9359184519936834	0.102329
H	0.6499466846466398 0.4215250440499355 0.9409297687342786	0.103545
H	0.6428762372834148 0.8030084252162311 0.2840460376388754	0.103147
H	0.5163042254173130 0.8055895535118707 0.2752768739848532	0.114862
H	0.5115245836772786 0.7010443510872953 0.5134544874328627	0.114251
H	0.6380677620713120 0.7044213833862443 0.5127973031658210	0.101104
H	0.4209280572096092 0.8539792981033639 0.3424389734517075	0.100507
H	0.2953263501516062 0.8521174359268358 0.3372188454822970	0.102857
H	0.2954704134764204 0.6488151217193008 0.4347144198651237	0.101701
H	0.4208981485864869 0.6501319629681661 0.4388330303124989	0.103828
H	0.8581584195336860 0.6989793124513017 0.2848775740273622	0.108410
H	0.9836461793691272 0.6950933082976449 0.2773249026623132	0.116302
H	0.9887365750757722 0.8001523651053483 0.5152406475655996	0.112969
H	0.8621466814302062 0.7984300996527217 0.5143321555927524	0.101770
H	0.0790053708301656 0.6464571947087453 0.3437261591922309	0.100441
H	0.2046341488586998 0.6482817052098917 0.3372552300600674	0.101066
H	0.2050051322075411 0.8514505812983846 0.4349843229478001	0.101755
H	0.0795836803993882 0.8500834119794155 0.4404605692390652	0.103153
H	0.6957635956151659 0.6422672421258503 0.2831559593482298	0.106197
H	0.6941058880013939 0.5161191215118938 0.2747107800192212	0.114530
H	0.7988624610002464 0.5118600598531307 0.5128077579253244	0.113286
H	0.7946759921373410 0.6378352596807392 0.5129911410223565	0.105342
H	0.6461052586623103 0.4206152003627624 0.3419428583043150	0.101208
H	0.6479627115910755 0.2949464919991576 0.3371793324345165	0.101991
H	0.8510997472857348 0.2955622456541951 0.4348275585771301	0.101783
H	0.8496453185323816 0.4210339651651926 0.4386261731621819	0.104163
H	0.8024231272744171 0.8574955123190012 0.2847593624283040	0.104107
H	0.8050254307063254 0.9837361924529305 0.2761163664626386	0.115548
H	0.7003074862815594 0.9882119415767259 0.5142463900121484	0.113872
H	0.7032290226807510 0.8612652973192894 0.5130100879876726	0.097084
H	0.8536819146137162 0.0789621313462033 0.3431684283204897	0.099879
H	0.8518520843005021 0.2046039022051863 0.3373214551417186	0.101983
H	0.6486505578140406 0.2045081515463283 0.4350183822735505	0.101382
H	0.6499788008441116 0.0790777099749666 0.4397499886211464	0.103483
H	0.3577592703867202 0.3029503276181628 0.2168974641771212	0.100142
H	0.4837488678513245 0.3056656466539094 0.2248472733162165	0.112290
H	0.4884722628384538 0.2008503205795991 0.9868166590820068	0.112988
H	0.3624760984622914 0.2038703177073412 0.9870718341901767	0.102903
H	0.5793380700323117 0.3539699812584387 0.1578009247462978	0.100986
H	0.7049782221518143 0.3520724891248564 0.1628453434855480	0.101847
H	0.7045645708169838 0.1488382807388786 0.0652544237926756	0.102675
H	0.5791220952255862 0.1502728758950531 0.0611798230819919	0.104154
H	0.1422660731767067 0.1992234401086286 0.2156226196617566	0.096205
H	0.0161663287515693 0.1952603632911468 0.2234768794850055	0.112578
H	0.0114755209434698 0.2999598542529632 0.9854573470557719	0.110894
H	0.1384638372974748 0.2982755675253222 0.9872356192015178	0.093617
H	0.9209325150866148 0.1462486123934794 0.1565580207518671	0.099392
H	0.7953102126459738 0.1481726548587975 0.1627014734919797	0.101793
H	0.7953351961353395 0.3514129323493633 0.0650533215294159	0.102590
H	0.9207461348916807 0.3500468213511468 0.0600187034076186	0.103162
H	0.3026558707627445 0.1420009182056561 0.2147315927879139	0.102899
H	0.3052046029300834 0.0164270385754383 0.2229920194066394	0.113502
H	0.2000681116418229 0.0115544777260115 0.9851965131635273	0.112158
H	0.2029397476625150 0.1380682997338475 0.9855563446880667	0.099393
H	0.3534596448890057 0.9210545740891866 0.1565678146373121	0.099423
H	0.3516926437041243 0.7954012943195360 0.1627804954275806	0.100902
H	0.1486146905691907 0.7951155887550241 0.0650045445316864	0.102456
H	0.1499445887959091 0.9205599701726405 0.0598070817502311	0.102877
H	0.1954795703279749 0.3570424994563306 0.2157505771459074	0.093579
H	0.1940948206781914 0.4837224281251496 0.2251430314191154	0.111066
H	0.2986857920442343 0.4881585288556528 0.9869759349557667	0.112251
H	0.2941094724016058 0.3617353568441047 0.9869875129815469	0.098919
H	0.1460724276753336 0.5790838492800948 0.1579138017694575	0.099996
H	0.1478928897029228 0.7047044742295089 0.1628307604733148	0.102822
H	0.3511368522973622 0.7043741597908350 0.0652313606893308	0.102195
H	0.3498251064304732 0.5789239581487327 0.0613901040379742	0.103881
Co	0.2499708958953484 0.2500804702107034 0.6008213210848201	0.603716
Co	0.7499520760605961 0.7500058284241241 0.8990531194995722	0.589185
Co	0.7502506958590357 0.7497754644352547 0.3993883611833418	0.830785
Co	0.2501419830454863 0.2498334755451276 0.1006208974842206	0.834912
Fe	0.2527380054619218 0.2499802394339841 0.3485661608510084	1.513985
Fe	0.7499999357494653 0.7472170394792574 0.1509246512681937	1.286148
Fe	0.7530534500841937 0.7498034449262373 0.6467506260584064	1.515479
Fe	0.2504315302272029 0.2470349009337558 0.8536372437911912	1.513984
	  	
