#======================================================================

# CRYSTAL DATA

#----------------------------------------------------------------------

data_VESTA_phase_1


_pd_phase_name                         FeFFIVE_2_Fe_i
_cell_length_a                         14.05667
_cell_length_b                         14.05609
_cell_length_c                         7.99821
_cell_angle_alpha                      89.94122
_cell_angle_beta                       89.99075
_cell_angle_gamma                      90.11179
_symmetry_space_group_name_H-M         P 1
_symmetry_Int_Tables_number            1

loop_
_symmetry_equiv_pos_as_xyz
   x, y, z

loop_
   _atom_site_label
   _atom_site_fract_x
   _atom_site_fract_y
   _atom_site_fract_z
   _atom_site_charge
C	0.0001922235019142 0.3056727124021978 0.3494095753017121	-0.162616
C	-0.0004512143168230 0.2070221587434047 0.3551903233178634	0.096847
C	0.5003307683973308 0.8055101196056831 0.8491328846417376	-0.162478
C	0.5000486586628645 0.7069064962468520 0.8550428876300972	0.096380
C	-0.0003442491271015 0.6969882335852668 0.3488785208669940	-0.165707
C	-0.0008204513089979 0.7956719715968334 0.3546864999691506	0.107011
C	0.4996643850033244 0.1962983795308943 0.8491655751128535	-0.164734
C	0.4990410080627298 0.2948848579119856 0.8551781198320245	0.105264
C	0.6969288830131599 -0.0002892959904954 0.3491507894582945	-0.166150
C	0.7955967721127828 -0.0007094837675361 0.3550040855352674	0.106593
C	0.1962375795756295 0.4996602021924675 0.8491396708379019	-0.164537
C	0.2948203399965889 0.4990344899134145 0.8552071295969632	0.105087
C	0.3056155044760827 0.0002642454134068 0.3493023305171226	-0.162507
C	0.2069637974267594 -0.0002633092253261 0.3550940031924112	0.097751
C	0.8054532318486278 0.5003375038511640 0.8491864730805206	-0.162766
C	0.7068622597795486 0.5000474810512066 0.8550499184902024	0.097014
C	0.0002380810148531 0.3055399891600761 0.6508489943092738	-0.162249
C	-0.0003720728538624 0.2068865867271003 0.6451361417337629	0.097435
C	0.5003249258092063 0.8053889443412410 0.1507343872054552	-0.162201
C	0.5000481516989548 0.7067926574205516 0.1449191267254235	0.096414
C	-0.0003861393586289 0.6968798981597392 0.6505728420057835	-0.165753
C	-0.0008869783337873 0.7955485948240778 0.6446333935903247	0.105808
C	0.4996461561951910 0.1961801706874890 0.1509203172681474	-0.164488
C	0.4990238495562068 0.2947738005625927 0.1447976936018426	0.104795
C	0.3056150967868163 0.0002039374662736 0.6507317801465905	-0.162477
C	0.2069685386548369 -0.0003888733015107 0.6449796168238198	0.097866
C	0.8054371982266786 0.5003399137363711 0.1507731002828720	-0.162609
C	0.7068486829649213 0.5000543146709071 0.1449163812568546	0.096410
C	0.6969112191809885 -0.0003774099369510 0.6508273353233093	-0.166263
C	0.7955789180502267 -0.0008613932061812 0.6449587877968894	0.106129
C	0.1962156104674043 0.4996718174969963 0.1508765351242452	-0.164495
C	0.2948030642952833 0.4990408245444957 0.1448081296400724	0.105163
C	0.0011240067276746 0.4579003106631402 0.5000187045835758	-0.094838
C	0.0008512069919611 0.3573805651995502 0.5001055139552061	0.158523
C	0.5008859722298799 0.9574984775095046 -0.0000876196688753	-0.093583
C	0.5006993739883338 0.8571004642608068 -0.0000935340645025	0.157820
C	0.0008836856347550 0.5447278465949983 0.4998574752772388	-0.100829
C	0.0002376618014568 0.6452354335812327 0.4997648859159467	0.161768
C	0.5008276715278011 0.0442847266354608 0.0000486068774568	-0.102474
C	0.5002996367569071 0.1446249481745758 0.0000713516924228	0.160032
C	0.5447123253185644 0.0008518903494123 0.4999928188780927	-0.100240
C	0.6452185443111741 0.0002384732762271 0.5000016884265817	0.161818
C	0.0442777506206905 0.5008544987588904 0.0000033792577942	-0.102404
C	0.1446123915831095 0.5003159201120047 0.0000172617830757	0.160048
C	0.4578978029768752 0.0010923102615530 0.4999799896258864	-0.095162
C	0.3573834587276358 0.0008392075572054 0.4999847659408195	0.158559
C	0.9574952584450939 0.5009146613201859 -0.0000276792280443	-0.093679
C	0.8571017550590110 0.5007169514634342 -0.0000355814253387	0.157869
H	-0.0003764108683813 0.3422006161678903 0.2292609098140881	0.117971
H	-0.0030371917066042 0.1657231549498576 0.2399986209147549	0.096019
H	0.4998797500901703 0.8420934526845328 0.7290179113565974	0.117759
H	0.4983123996746808 0.6658380771296717 0.7396821580960125	0.096672
H	-0.0005738276927357 0.6602851685026850 0.2290304251924389	0.119294
H	-0.0022683860369467 0.8375848821366905 0.2400269555087994	0.092173
H	0.4993818837671044 0.1595454887289467 0.7293406031755791	0.118528
H	0.4972017923608159 0.3368060081852464 0.7406721074016464	0.089061
H	0.6601832577772198 -0.0005269500172609 0.2292850563040245	0.119524
H	0.8374823546232533 -0.0020673436410670 0.2403734167426944	0.093232
H	0.1594480858724595 0.4993720431188639 0.7293069759208992	0.118388
H	0.3367185619118097 0.4971985894510452 0.7407262917660558	0.089008
H	0.3420847827428123 -0.0003191229631342 0.2291635221542114	0.117826
H	0.1656205274417507 -0.0026998206252628 0.2399427474720145	0.095132
H	0.8420027157743972 0.4998822340996525 0.7290902310426450	0.117982
H	0.6657583947862804 0.4983053462316097 0.7396793586321290	0.096407
H	-0.0003204082079821 0.3419746142358995 0.7709455762359040	0.117785
H	-0.0029292012480932 0.1655602053363199 0.7604446925285482	0.093888
H	0.4998785246750346 0.8418833646581516 0.2708049404395014	0.117877
H	0.4983110177222445 0.6656493038334312 0.2603422760903019	0.096342
H	-0.0006296343793180 0.6600992855761583 0.7704921142667194	0.119482
H	-0.0023555326895133 0.8373931230250278 0.7592018469030497	0.092719
H	0.4993631899492569 0.1593418952465115 0.2707952289424164	0.118377
H	0.4971970532979119 0.3366252495460019 0.2592449152399297	0.089006
H	0.3420879075157316 -0.0003795936065249 0.7708301147450519	0.117738
H	0.1656614531098555 -0.0029764094587766 0.7602021696971981	0.094022
H	0.8419718342619017 0.4998859799139178 0.2708481762290009	0.117946
H	0.6657325066254769 0.4983126151771151 0.2603110977519071	0.096513
H	0.6601532828350687 -0.0006426261027834 0.7707105448027060	0.119639
H	0.8374159741135134 -0.0023836487970602 0.7595996184184636	0.092774
H	0.1594100899601485 0.4993874956791708 0.2707239598191876	0.118292
H	0.3366873888617367 0.4972045760084091 0.2592697002073857	0.088976
Fe	0.0012228666362034 0.0012353748536264 0.4995080256220625	0.840288
Fe	0.5009330180114786 0.5009392897362988 -0.0000080690919137	0.838272
Fe	0.0002745460112473 -0.0003277378541446 -0.0004588148094123	1.515161
Fe	0.4984084388016952 0.4984011471238929 0.5000087150694656	1.505115
N	-0.0001794026007791 0.1575983677273092 0.5001841830212090	-0.246726
N	0.5001992114960510 0.6575452441972270 0.0000082635437070	-0.247223
N	-0.0005658110382209 0.8449184464353972 0.4996266225343270	-0.245624
N	0.4992656694912644 0.3442012256630467 -0.0000402350452150	-0.244272
N	0.8448984146288473 -0.0004974436143956 0.4999727003147886	-0.245929
N	0.3441863497874842 0.4992704311938895 -0.0000097917209226	-0.244301
N	0.1576061950807640 -0.0000782621789341 0.5000714783782544	-0.247186
N	0.6575491279084896 0.5002001602277262 -0.0000010224689407	-0.247524
F	0.0030062007464982 0.0012789334180653 0.7563643151854810	-0.548677
F	0.5004814516486215 0.5004307983338546 0.2526055752742361	-0.546114
F	0.0030557309851374 0.0041387216783621 0.2434195578793763	-0.549353
F	0.5004334852704145 0.5005028420910694 0.7474114815438281	-0.546482
F	0.6244537610050106 0.4615181117384081 0.5000972954060653	-0.561787
F	0.4615123373820385 0.6244469214865486 0.4999020551651496	-0.561778
F	0.4055779835463718 0.4055555623420549 0.5001788960863924	-0.573369
F	0.9075977347263122 0.9083038669971203 0.0018457538916086	-0.572780
F	0.9484953044347678 0.1194391338608506 -0.0002033595577682	-0.574731
F	0.1197709439586215 0.9478343509989278 0.0012968069232657	-0.574489
	  	
