#======================================================================

# CRYSTAL DATA

#----------------------------------------------------------------------

data_VESTA_phase_1


_pd_phase_name                         FeFFIVE_3_Zn
_cell_length_a                         14.32211
_cell_length_b                         14.32234
_cell_length_c                         8.04365
_cell_angle_alpha                      89.99952
_cell_angle_beta                       89.99883
_cell_angle_gamma                      91.40764
_symmetry_space_group_name_H-M         P 1
_symmetry_Int_Tables_number            1

loop_
_symmetry_equiv_pos_as_xyz
   x, y, z

loop_
   _atom_site_label
   _atom_site_fract_x
   _atom_site_fract_y
   _atom_site_fract_z
   _atom_site_charge
C	0.2593885729985336 0.4527374905742652 0.6369318357453522	0.056720
C	0.2362412220769938 0.0510490219459390 0.6446840193025611	0.063143
C	0.2378067846040205 0.4536994687397411 0.3530022141187904	0.051914
C	0.2587394409435325 0.0499234744224039 0.3614501515093038	0.060992
C	0.0499279162654110 0.2587089941454823 0.3614483998034744	0.061048
C	0.4536923553606053 0.2377976507813284 0.3530172642636792	0.051911
C	0.4527417645009495 0.2593541996246644 0.6369283096701730	0.056789
C	0.0510443838042360 0.2362344441260175 0.6446711029716518	0.063091
C	0.9536906498194412 0.2377974730004879 0.6469858200711689	0.051946
C	0.5499222613806553 0.2587236486578927 0.6385571433414937	0.060997
C	0.5510489161007023 0.2362390145921379 0.3552955952211753	0.062951
C	0.9527509848358059 0.2593512894446150 0.3630431757833346	0.056562
C	0.7362410456012521 0.0510446212440576 0.3552914130695557	0.063157
C	0.7593725449076396 0.4527547065358150 0.3630595728989352	0.056586
C	0.7587309375126242 0.0499314427292018 0.6385256739650460	0.061016
C	0.7378142496818159 0.4536883077964991 0.6469803778178347	0.052008
C	0.4537014287158168 0.7377898217304431 0.6470106613584798	0.052162
C	0.0499256430432179 0.7587283059158789 0.6385684372633480	0.061036
C	0.0510507486947098 0.7362301377092654 0.3553230045140768	0.063064
C	0.4527471159348940 0.7593622783710500 0.3630709987926364	0.056940
C	0.2362391871274866 0.5510458683770862 0.3553180748772811	0.063064
C	0.2593866397701950 0.9527444915197506 0.3630680969912647	0.056789
C	0.2587430814778596 0.5499125121040019 0.6385687645840954	0.060949
C	0.2378106043076025 0.9536997387511507 0.6470094075293175	0.051793
C	0.7593573091379153 0.9527507319328903 0.6369200454172272	0.056904
C	0.7362502271537035 0.5510435224601736 0.6446955774602087	0.062879
C	0.7377978626510834 0.9536880707485110 0.3529948692402982	0.051758
C	0.7587279404708145 0.5499346815506395 0.3614509958793239	0.061015
C	0.5499267478144478 0.7587269656644097 0.3614402967968101	0.060851
C	0.9537010848778539 0.7377904156971664 0.3530122816273096	0.052143
C	0.9527477652908251 0.7593679786542238 0.6369617509971828	0.056673
C	0.5510521753725224 0.7362294859515757 0.6447015165772154	0.063013
H	0.2655325254769230 0.4132663842563962 0.7518982828239517	0.113807
H	0.2248432555806065 0.0906060108936867 0.7584443175677663	0.109367
H	0.2293359028396109 0.4154983749515719 0.2362325840476971	0.117691
H	0.2660299850874992 0.0891065287800180 0.2460533679846002	0.107933
H	0.0891108807139267 0.2659915840378629 0.2460654121485938	0.107905
H	0.4154912166227361 0.2293304498456839 0.2362405581297738	0.117593
H	0.4132741290516280 0.2654965665830970 0.7518998259443725	0.113724
H	0.0905885180446278 0.2248387360337901 0.7584320572437824	0.109358
H	0.9154698035778475 0.2293374245857721 0.7637721735766013	0.117610
H	0.5891137334148664 0.2660004576766541 0.7539517665962338	0.107882
H	0.5906078583434378 0.2248361949609704 0.2415306449898613	0.109364
H	0.9132694712946989 0.2654928255448337 0.2480645704111688	0.113889
H	0.7248374062487077 0.0905968832542419 0.2415201871920372	0.109343
H	0.7655140764032577 0.4132889601153859 0.2480748035209595	0.113842
H	0.7660094015824944 0.0891251841137686 0.7539086552223522	0.107997
H	0.7293525784757262 0.4154733765273049 0.7637606133978652	0.117565
H	0.4154933352318873 0.7293208996304535 0.7637780462631387	0.117613
H	0.0891043874383204 0.7660097108583623 0.7539484994136522	0.108018
H	0.0906020676320316 0.7248271252844072 0.2415667250772908	0.109411
H	0.4132702471784702 0.7655077541653612 0.2481079259454304	0.113825
H	0.2248371467481220 0.5906116797625689 0.2415514806426828	0.109373
H	0.2655291783175257 0.9132649945263511 0.2480940121972880	0.113770
H	0.2660322777369448 0.5891046844970199 0.7539644692611154	0.107976
H	0.2293326356665119 0.9154897679199741 0.7637929828172847	0.117696
H	0.7655035171425383 0.9132797884335098 0.7519070390360324	0.113708
H	0.7248539748478793 0.5905895124951546 0.7584799430680272	0.109459
H	0.7293389847454587 0.9154713734855181 0.2362148515922621	0.117673
H	0.7659983547454599 0.5891259685476501 0.2460575927373639	0.107963
H	0.5891159255621151 0.7660152635542118 0.2460443732641045	0.108088
H	0.9154898948918844 0.7293254873776703 0.2362300565476194	0.117570
H	0.9132683844463181 0.7655219094676852 0.7519343187089840	0.113819
H	0.5906161388795225 0.7248312904558877 0.7584627110574935	0.109516
Zn	0.2518076305662414 0.2518014460518174 0.4961339759381462	0.734842
Zn	0.7518042808221960 0.2518173944132813 0.5038329572376659	0.734938
Zn	0.2518217020875023 0.7518096186638213 0.5038787393908977	0.734818
Zn	0.7518146208831253 0.7518117159832313 0.4961548737948898	0.734859
Fe	0.2504005079980874 0.2504239271553256 -0.0044829867828239	1.486548
Fe	0.7503863102887548 0.2504702859956974 0.0044426301738759	1.486395
Fe	0.2504069338600166 0.7504232568851559 0.0044817255773805	1.486875
Fe	0.7504236379027561 0.7504089488088375 -0.0044537764494890	1.486430
F	0.2553965511910873 0.2553998824783501 0.7499476165946231	-0.564463
F	0.2494623134014416 0.2494628197806308 0.2415037300862084	-0.566726
F	0.1582477011725846 0.1583141960549126 -0.0156227812866374	-0.568557
F	0.2157106700192113 0.3741476629614249 -0.0024430032052760	-0.567746
F	0.3741230704717798 0.2157021134438519 -0.0024877388979944	-0.567645
F	0.7494285712261168 0.2494665874163781 0.7584682388857867	-0.566693
F	0.7554503219477148 0.2554617769306276 0.2500070831016101	-0.564471
F	0.6582500380362013 0.1583609703693943 0.0156906246744257	-0.568275
F	0.7156605031526062 0.3742074347349233 0.0024556083324919	-0.567693
F	0.8741377109661839 0.2157771354892820 0.0023767306570855	-0.567541
F	0.2494549777114112 0.7494665151208389 0.7585022740233397	-0.566679
F	0.2554358573094478 0.7554543893926280 0.2500420261444842	-0.564417
F	0.1582582161272562 0.6583128644131307 0.0157417294670699	-0.568313
F	0.2156655146091081 0.8741542203579674 0.0024342721088921	-0.567650
F	0.3741464320523347 0.7156952967020267 0.0024432035316088	-0.567662
F	0.7554415505495028 0.7554343523460215 0.7499786427664380	-0.564453
F	0.7494516456700766 0.7494616379616181 0.2415385918856157	-0.566690
F	0.6583710410678005 0.6582115899704079 -0.0156542039824869	-0.568240
F	0.7156852414721067 0.8741372068366838 -0.0024649304164658	-0.567528
F	0.8741804808711682 0.7157672766658598 -0.0024315670107770	-0.567472
N	0.4047925379361481 0.2498552132377493 0.4939041990809143	-0.187860
N	0.0989913758097321 0.2477431544424420 0.5021401417124378	-0.187035
N	0.2498681246935692 0.4048127934040783 0.4939043104842613	-0.187865
N	0.2477650540665158 0.0989735494789157 0.5021461868635302	-0.186887
N	0.9048097761863027 0.2498545654732271 0.5060750164091756	-0.188060
N	0.5989809830439390 0.2477535147315029 0.4978539081654104	-0.187031
N	0.7498774557037194 0.4048013250452532 0.5060738476787615	-0.187704
N	0.7477507131098515 0.0989912272980977 0.4978192157357565	-0.186941
N	0.4048130699877174 0.7498582080412813 0.5061082196049120	-0.188022
N	0.0989830937100709 0.7477507984496181 0.4978641188601246	-0.187005
N	0.2498711435849719 0.9048172168174438 0.5061049417950808	-0.187900
N	0.2477692501663710 0.5989601131814530 0.4978625229344756	-0.187070
N	0.9048198157745521 0.7498627302528641 0.4939204714280264	-0.187852
N	0.5989764015739369 0.7477507749860903 0.5021499629520930	-0.186984
N	0.7498651054033229 0.9047983844635086 0.4939051137928819	-0.187870
N	0.7477556726107659 0.5989908411908107 0.5021619662746712	-0.186921
	  	
