#======================================================================

# CRYSTAL DATA

#----------------------------------------------------------------------

data_VESTA_phase_1


_pd_phase_name                         FeFFIVE_16_Fe_i
_cell_length_a                         25.22802
_cell_length_b                         25.22845
_cell_length_c                         7.83490
_cell_angle_alpha                      89.99734
_cell_angle_beta                       89.98241
_cell_angle_gamma                      89.99502
_symmetry_space_group_name_H-M         P 1
_symmetry_Int_Tables_number            1

loop_
_symmetry_equiv_pos_as_xyz
   x, y, z

loop_
   _atom_site_label
   _atom_site_fract_x
   _atom_site_fract_y
   _atom_site_fract_z
   _atom_site_charge
C	0.4781356432253873 0.3859993526712095 0.3701762072982068	0.098978
C	0.4773028704489685 0.3309538282839674 0.3652026214189195	-0.173214
C	0.9551946992618439 0.6128179653463518 0.9436621217098531	-0.126707
C	0.9553427692954531 0.5577485213469128 0.9443810948247274	-0.122863
C	0.5218626209943464 0.6143871652367492 0.3686556955344741	0.105056
C	0.5228426829581633 0.6693786013334491 0.3636076370852424	-0.172315
C	0.0448295245857784 0.3873342981053686 0.9436079212401537	-0.127936
C	0.0446713047985988 0.4423993799437393 0.9443176923163735	-0.121874
C	0.6142731995642169 0.4781572846136760 0.3711774487651803	0.099275
C	0.6692776072595963 0.4772415609562038 0.3659671731989267	-0.172900
C	0.3873448832877870 0.9551864539193224 0.9436651931658865	-0.127161
C	0.4424019661682087 0.9553330223084807 0.9443953287228546	-0.121737
C	0.3859893586221172 0.5218602613833438 0.3695679163436300	0.101685
C	0.3309750224273116 0.5227378921233521 0.3641924503945446	-0.173789
C	0.6128070801733734 0.0448179629218753 0.9436428458209303	-0.127098
C	0.5577437906394050 0.0446488735430442 0.9443359626578289	-0.123002
C	0.5218634668850485 0.3859819828921738 0.6303823672873182	0.101970
C	0.5227419504291297 0.3309578636277490 0.6357998204862091	-0.174020
C	0.0448112034687752 0.6128006397947309 0.0563596921444805	-0.127033
C	0.0446472034103512 0.5577322890687332 0.0556556352600113	-0.122983
C	0.4781453099766584 0.6142634940729880 0.6287893212515760	0.099661
C	0.4772413868754671 0.6692713486295605 0.6340036623309764	-0.172533
C	0.9551821088020931 0.3873345060336887 0.0563465795205820	-0.127467
C	0.9553300563724938 0.4423964055425407 0.0556263637837201	-0.121587
C	0.3859928078489155 0.4781296594078860 0.6298079837428128	0.098563
C	0.3309544910555530 0.4772954085472608 0.6348280782147487	-0.172697
C	0.6128142197975949 0.9551873916767701 0.0563530381598097	-0.126863
C	0.5577509610601818 0.9553344630743907 0.0556249391351173	-0.122645
C	0.6143725084638978 0.5218590723015851 0.6312852364726127	0.105438
C	0.6693584419560069 0.5228301294667805 0.6363243619278970	-0.172847
C	0.3873350629723796 0.0448255120746291 0.0563926139683912	-0.127925
C	0.4423939462022656 0.0446633951668943 0.0556884289955588	-0.121807
C	0.5448199144766830 0.8873464353142363 0.5563810611697227	-0.127545
C	0.5446717968897165 0.9424059209695053 0.5556825835502893	-0.121861
C	0.0218191457426481 0.1142611049328075 0.1311955175885194	0.104915
C	0.0227939400139631 0.1692692847001227 0.1363001611941264	-0.172866
C	0.4551851227329913 0.1127998427437185 0.5563490611337129	-0.126909
C	0.4553267319294147 0.0577425742662362 0.5556359567276827	-0.122608
C	0.9781415039775403 0.8860710716453865 0.1300081055871897	0.098031
C	0.9773016953509139 0.8310139126891822 0.1348539556362538	-0.172475
C	0.1127844861555323 0.5448088567364027 0.5563645323244877	-0.127387
C	0.0577281975184832 0.5446569575167572 0.5556663035472487	-0.123401
C	0.8860854391215910 0.0218634582779579 0.1303697416710385	0.101720
C	0.8310516905668763 0.0227222508187822 0.1358134157235814	-0.173715
C	0.8873486662913936 0.4551831339903280 0.5563447573867492	-0.126865
C	0.9424013359358283 0.4553264467707029 0.5556333638539187	-0.121770
C	0.1141758989149106 0.9782055559718249 0.1290770762030870	0.098078
C	0.1692073338358153 0.9772858304605908 0.1340699541287390	-0.172535
C	0.4551915894402929 0.8873505421970734 0.4436699704621718	-0.127030
C	0.4553306164859439 0.9424074510852312 0.4443895573073797	-0.121735
C	0.9782223807828390 0.1141856901134548 0.8709240641847055	0.098367
C	0.9772867987537951 0.1692141168953217 0.8659468818685626	-0.172505
C	0.5448193290448611 0.1127875714875808 0.4436339162498881	-0.127712
C	0.5446642359016577 0.0577281898827402 0.4443276878704968	-0.122616
C	0.0218651986529350 0.8860876927443536 0.8696546591512887	0.101787
C	0.0227254657840854 0.8310566654898147 0.8642184526401924	-0.173613
C	0.8873530755972464 0.5448217798270428 0.4436207736383572	-0.127599
C	0.9424076787833399 0.5446749172409435 0.4443257432594001	-0.121804
C	0.1142716757310949 0.0218023033941934 0.8687502289918221	0.104591
C	0.1692840021207587 0.0227910372294522 0.8636515244137034	-0.172523
C	0.1128056522088571 0.4551874469223664 0.4436601825964124	-0.127064
C	0.0577502717246995 0.4553320570861653 0.4443657973462460	-0.123136
C	0.8860936766211053 0.9781515168046601 0.8700439799463678	0.098203
C	0.8310337685666899 0.9773097275839197 0.8652035279086997	-0.172628
C	0.4999834765796144 0.3020660055142240 0.5005656498089680	0.171103
C	0.5000015883608567 0.2458407718024963 0.5005046270397607	-0.115149
C	0.5000149643751037 0.1974830895969384 0.5002137886526625	-0.097953
C	0.5000091413762842 0.1412823398570646 0.5000320461801270	0.126399
C	0.4999949777128825 0.0292469383187231 0.4999965597644667	0.065915
C	-0.0000257792346534 0.8021219392619988 -0.0005612013037396	0.170803
C	-0.0000003852278486 0.7458890240044450 -0.0005336394238683	-0.115846
C	0.0000176861191523 0.6975311969493206 -0.0002197851287686	-0.096620
C	0.0000105939916917 0.6413213973429747 -0.0000258837984536	0.125368
C	-0.0000048099468385 0.5292492063923752 0.0000061074947932	0.065954
C	0.4999938583464747 0.6981796376889873 0.4988389455035973	0.169279
C	0.5000175430916858 0.7543635347545866 0.4992283983774000	-0.114328
C	0.5000266819435141 0.8027145701472366 0.4997204505773798	-0.098469
C	0.5000122565420074 0.8588958104236416 0.4999841097954397	0.125904
C	0.4999991086098950 0.9708815952795880 0.5000262322956841	0.063772
C	-0.0000192361426141 0.1981238045548767 0.0011400779726477	0.169675
C	0.0000063992188821 0.2543260841313500 0.0008390314395992	-0.114807
C	0.0000272116270488 0.3026737641379531 0.0003156072577729	-0.097900
C	0.0000118115263500 0.3588540257914793 0.0000229395702416	0.125938
C	-0.0000010291157644 0.4708779999635365 -0.0000181334297663	0.063946
C	0.6981747477767394 0.4999850391393258 0.5011249826725021	0.169788
C	0.7543637613428174 0.5000039939312695 0.5007422494911556	-0.114611
C	0.8027081515113703 0.5000179251531123 0.5002696869765038	-0.098434
C	0.8588975174321596 0.5000064563422809 0.5000169584857203	0.125745
C	0.9708822481579712 0.4999999930970133 0.4999868045479084	0.062980
C	0.1981252929745898 -0.0000144358662379 -0.0011598506484957	0.169698
C	0.2543259911744436 0.0000135357746119 -0.0008558402991744	-0.114767
C	0.3026740844098347 0.0000313267099777 -0.0003299564680530	-0.097950
C	0.3588489600841733 0.0000147413147465 -0.0000218771963029	0.125725
C	0.4708813903055469 -0.0000046623911215 0.0000297380878131	0.064192
C	0.3020692652739120 0.4999766928475533 0.4994481831455880	0.170951
C	0.2458496286724097 0.4999910561341810 0.4995401252069732	-0.115293
C	0.1974872682425669 0.5000056833102107 0.4998173998198441	-0.097726
C	0.1412862020246041 0.5000022748784143 0.4999811313705628	0.126129
C	0.0292462570093396 0.4999951696003549 0.5000055052613080	0.068282
C	0.8021292991033288 -0.0000209762727677 0.0006202853362606	0.171219
C	0.7458972808115349 0.0000039145666541 0.0005902225551653	-0.115767
C	0.6975357675183916 0.0000218084806816 0.0002588540345944	-0.096839
C	0.6413299955970319 0.0000117821863019 0.0000458517780760	0.125549
C	0.5292514156007341 -0.0000092454768959 -0.0000045497795137	0.065754
H	0.4613369420623841 0.4094232074789765 0.2660116979309989	0.101402
H	0.4593839112308106 0.3105015214311944 0.2572772790010265	0.124361
H	0.9205895499156176 0.6344877976810517 0.8982405350018189	0.111373
H	0.9208227994584322 0.5362679856416712 0.8969404796576718	0.105460
H	0.5383848634235944 0.5908883533316305 0.2648186739378994	0.095080
H	0.5408777796870643 0.6898809302504328 0.2559740258965955	0.122984
H	0.0794335772097391 0.3656404182397388 0.8982101680957026	0.111387
H	0.0792007376194605 0.4638882103598999 0.8969070874979803	0.105049
H	0.5909007390432940 0.4621112311553297 0.2660298081795060	0.103096
H	0.6896573886671418 0.4594293630497547 0.2576670980655382	0.124588
H	0.3656429665961347 0.9205994638933859 0.8982666217795107	0.111642
H	0.4638906808877955 0.9208132366537143 0.8969447440975703	0.105216
H	0.4096461989674330 0.5390659068519169 0.2668013969624519	0.094678
H	0.3104967856909353 0.5407687115563407 0.2565177258755993	0.123826
H	0.6344651025585829 0.0794376573134580 0.8982208452619657	0.111124
H	0.5362417576803642 0.0791640145825582 0.8969013175676604	0.105247
H	0.5390583440688430 0.4096301393903988 0.7331196202842259	0.094573
H	0.5407634913291053 0.3104830600343390 0.7434695077076178	0.123947
H	0.0794246200064150 0.6344530629015183 0.1017741965308105	0.111188
H	0.0791607844933068 0.5362312794947313 0.1030877360286528	0.105182
H	0.4620834449411202 0.5908887329388354 0.7339435306585301	0.102950
H	0.4594288399824411 0.6896399823271545 0.7423163932679948	0.124429
H	0.9205891234139296 0.3656322583555908 0.1017573588651465	0.111783
H	0.9208048005032717 0.4638796514783367 0.1030936939978130	0.105228
H	0.4094177286142947 0.4613389081171784 0.7339918116146094	0.101303
H	0.3104927150156823 0.4593809159561719 0.7427983329845512	0.124288
H	0.6344820572756931 0.9205774173641239 0.1017852741061174	0.111386
H	0.5362610196777374 0.9208123515003864 0.1030716954373382	0.105388
H	0.5908629217329718 0.5383834679396996 0.7351121767207834	0.095074
H	0.6898571440630755 0.5408659316008675 0.7439383227616684	0.123102
H	0.3656329185010403 0.0794260095304331 0.1017827459920961	0.111423
H	0.4638824171495362 0.0791844110413349 0.1030888140169184	0.105015
H	0.5794071644284507 0.8656438187115688 0.6017544465010387	0.111380
H	0.5791998467918885 0.9638991196797791 0.6030924812682324	0.105089
H	0.0382802936084548 0.0907707456107659 0.2351616433936338	0.094493
H	0.0408141843963794 0.1897261465679174 0.2439316033925530	0.123139
H	0.4205831553550105 0.1344848530807044 0.6017623171094822	0.111431
H	0.4207943292842023 0.0362518468439361 0.6030997954232296	0.105373
H	0.9613482287659542 0.9094756694187630 0.2343056183101336	0.101280
H	0.9593837901096687 0.8105737027042363 0.2427879939600779	0.123977
H	0.1344523582852461 0.5794118335598166 0.6017611066820678	0.111244
H	0.0362194164872418 0.5791824928172665 0.6031207993444462	0.105156
H	0.9097192754370550 0.0390388449627598 0.2331850009489755	0.094230
H	0.8106151581030994 0.0407391085505097 0.2435256037100701	0.123493
H	0.8656347648847528 0.4206007486185359 0.6017344415979328	0.111641
H	0.9638916274911662 0.4207964766595816 0.6031047378235581	0.105200
H	0.0908434223982422 0.9622078085808995 0.2344765146163008	0.103508
H	0.1895718062813571 0.9594633814525187 0.2422652896110291	0.124405
H	0.4206136484664210 0.8656423923913248 0.3982927134396879	0.111642
H	0.4208045539825147 0.9638990594928166 0.3969296222121654	0.105144
H	0.9622253358767346 0.0908531958346643 0.7655590456902426	0.103314
H	0.9594593873731452 0.1895849060754596 0.7577467194057949	0.124322
H	0.5794289915048307 0.1344575458047608 0.3982366466550286	0.111370
H	0.5791902810701665 0.0362235480590475 0.3968683968048228	0.105243
H	0.0390419971398091 0.9097381776361074 0.7668204897609046	0.094040
H	0.0407449336058641 0.8106283936831474 0.7564865080134270	0.123504
H	0.8656486773253091 0.5794106271800717 0.3982451046104219	0.111431
H	0.9639053285564479 0.5792102844333752 0.3969079087352478	0.105041
H	0.0907982749121848 0.0382586966284613 0.7647619567386699	0.094555
H	0.1897506611608467 0.0408085954901052 0.7560155294088843	0.123033
H	0.1344944510316955 0.4205891974732536 0.3982504869285808	0.111412
H	0.0362618747686516 0.4208029713160779 0.3969083025477199	0.105252
H	0.9094981839926126 0.9613619388024549 0.7657382922271909	0.101283
H	0.8106044784105710 0.9593992510246120 0.7572987339353305	0.123815
Fe	0.5001782352704650 0.5001847003673339 0.4999642744128537	0.804003
Fe	0.0001704499849087 0.0001619244390045 0.0000074561177355	0.803764
Fe	0.4989253468076619 0.4989686917467404 -0.0000279234430843	1.527057
Fe	-0.0011584793751901 -0.0011487746672235 0.5000132892892367	1.525058
F	0.5017547247577265 0.4983756781528105 0.2478105252473167	-0.546305
F	-0.0018143488491740 0.0013106179857088 0.7491737370319510	-0.545810
F	0.4983384516047551 0.5017116485343381 0.7521309419820905	-0.546483
F	0.0013206027067862 -0.0018175010879154 0.2508484744285702	-0.545867
F	0.4468431502201585 0.4469677263855100 0.0001340982137246	-0.595096
F	0.9467252006894485 0.9467992862773745 0.5000486426395284	-0.592709
F	0.4784042422822198 0.5696606098666782 0.0070479763785117	-0.597546
F	0.9783000629538596 0.0696073949924348 0.4929763383336536	-0.595963
F	0.5696463747337369 0.4785273686569796 0.9928204835735628	-0.597944
F	0.0696044174813701 0.9783044739320341 0.5070171929985638	-0.596034
N	0.4999924443475137 0.4132360959243490 0.5004321707765481	-0.243893
N	0.0000070104661785 0.9133275446055850 -0.0002719378918837	-0.242984
N	0.4999919098782898 0.5870682417992595 0.4984406445148372	-0.248380
N	0.0000248239212839 0.0869487630070312 0.0012702012327037	-0.247745
N	0.5870613407845304 0.4999986016996715 0.5015113304446985	-0.248079
N	0.0869510850705135 -0.0000019396170469 -0.0013018890118851	-0.247627
N	0.4132436491986728 0.4999862611287123 0.4995168408314695	-0.243523
N	0.9133361005919791 0.0000093947054668 0.0003028218420506	-0.243127
	  	
