#======================================================================

# CRYSTAL DATA

#----------------------------------------------------------------------

data_VESTA_phase_1


_pd_phase_name                         FeFFIVE_1_Fe
_cell_length_a                         11.10590
_cell_length_b                         11.24624
_cell_length_c                         8.19340
_cell_angle_alpha                      90.09998
_cell_angle_beta                       89.89050
_cell_angle_gamma                      89.99081
_symmetry_space_group_name_H-M         P 1
_symmetry_Int_Tables_number            1

loop_
_symmetry_equiv_pos_as_xyz
   x, y, z

loop_
   _atom_site_label
   _atom_site_fract_x
   _atom_site_fract_y
   _atom_site_fract_z
   _atom_site_charge
C	0.2571962503594069 0.4576718088718491 0.3700702742590218	0.096824
C	0.1321019674069440 0.4571211604819874 0.3660434161066161	-0.174432
C	0.7433813477208037 0.5419276902360401 0.3707836385532981	0.101533
C	0.8684101934819716 0.5429607142800019 0.3662440023842942	-0.172943
C	0.5417453644844490 0.2539154230801101 0.3703184167180333	0.099221
C	0.5427341381458609 0.1303373038862936 0.3655459685736041	-0.174059
C	0.4580741075942711 0.7461703956586920 0.3701366260027690	0.095088
C	0.4573029535932746 0.8697406814377673 0.3658807597255752	-0.172961
C	0.7431021085624179 0.4578717979855928 0.6294485476332031	0.095291
C	0.8681523257843426 0.4570876715847427 0.6334654438021444	-0.172982
C	0.2569344902575011 0.5420492414879978 0.6291600276246894	0.098705
C	0.1318852524278269 0.5429768473282162 0.6337840039361252	-0.174312
C	0.4579305464988878 0.2541371491176626 0.6303597082636806	0.096422
C	0.4572950397769561 0.1305232787703502 0.6345748685542206	-0.173966
C	0.5416554400528749 0.7464076931937960 0.6296992817643425	0.100095
C	0.5427457424104291 0.8699633500486462 0.6343883206275934	-0.173545
C	0.0666210776436597 0.5001127546405392 0.4999281342912991	0.100223
C	0.9336465475324379 0.5001100100546196 0.4998894168443461	0.094944
C	0.5000891497402213 0.0658936402615749 0.5000577074883290	0.099423
C	0.5000993254872487 0.9343821678110527 0.5001081385618402	0.096492
H	0.3101344390075002 0.4253508887265610 0.2667968857316236	0.105958
H	0.0861516112066895 0.4215116590776906 0.2593477860927298	0.123728
H	0.6902904909856676 0.5725593847481704 0.2676812323990361	0.102327
H	0.9142780881126392 0.5781505585869904 0.2591563833041612	0.120884
H	0.5740400046561364 0.3076970464000804 0.2687059028949441	0.101567
H	0.5784807634708392 0.0848476299709224 0.2584803926011449	0.121670
H	0.4276533274761884 0.6935900448330182 0.2661763108783324	0.108168
H	0.4218139105808155 0.9145231734928730 0.2584710496972312	0.123213
H	0.6908014982190760 0.4275727525148879 0.7340665621532032	0.108129
H	0.9136287034940785 0.4218816592192508 0.7406520625234219	0.123209
H	0.3105282184538952 0.5741939195395686 0.7313074603662353	0.101493
H	0.0856708820980540 0.5784002562574777 0.7406156942633649	0.121588
H	0.4255092149497878 0.3072994101204852 0.7330905289704648	0.105959
H	0.4214564570498420 0.0852782851670305 0.7415684010881892	0.123667
H	0.5724779885529150 0.6931094888534645 0.7322176691947326	0.103590
H	0.5782229889225203 0.9151284108511328 0.7416953365244615	0.121313
Fe	0.5000215522026409 0.5000540263484767 0.4999324916155133	0.551906
Fe	0.4993799729500676 0.4997313398135612 -0.0000128090624177	1.500256
F	0.5003811513006343 0.5001449165228244 0.7616896697104045	-0.545319
F	0.4995490180986518 0.5011721457240381 0.2383791014796410	-0.545392
F	0.3815797851198305 0.3813975084690555 0.0000690023792254	-0.603893
F	0.6613425198490933 0.4552745620335145 0.0017105360600309	-0.603423
F	0.4559410589368716 0.6601712278687243 0.9982661900092690	-0.604809
N	0.3190453174930059 0.4997734525595587 0.4996794908969089	-0.186491
N	0.6812127912113985 0.4999726189311022 0.5001310263004219	-0.190517
N	0.4998154540278237 0.3147568379445960 0.5003134226564886	-0.184834
N	0.4998994406115346 0.6855060762074016 0.4999256775562094	-0.189009
	  	
