#======================================================================

# CRYSTAL DATA

#----------------------------------------------------------------------

data_VESTA_phase_1


_pd_phase_name                         FeFFIVE_16_Cd_i
_cell_length_a                         25.53416
_cell_length_b                         25.53848
_cell_length_c                         8.04876
_cell_angle_alpha                      90.56975
_cell_angle_beta                       89.58044
_cell_angle_gamma                      90.30330
_symmetry_space_group_name_H-M         P 1
_symmetry_Int_Tables_number            1

loop_
_symmetry_equiv_pos_as_xyz
   x, y, z

loop_
   _atom_site_label
   _atom_site_fract_x
   _atom_site_fract_y
   _atom_site_fract_z
   _atom_site_charge
C	0.4802582225509409 0.3816968103543521 0.3741667152854526	0.104273
C	0.4795809070954740 0.3273068673739464 0.3665883610030536	-0.169254
C	0.9560683596629883 0.6118258644126316 0.9437662046437175	-0.116913
C	0.9561589745090688 0.5574095703497988 0.9444809586938891	-0.125801
C	0.5151820971794179 0.6197481401222903 0.3628657758910443	0.100240
C	0.5160242747046668 0.6741082515039969 0.3592437743585030	-0.168179
C	0.0441194734532693 0.3893276113551844 0.9444161566100301	-0.118153
C	0.0440080882569720 0.4437363236201595 0.9448944292934971	-0.126841
C	0.6195477859981143 0.4845538086685618 0.3638325732856485	0.096173
C	0.6739169611654764 0.4835468097110975 0.3579466893060769	-0.171288
C	0.3892938839538018 0.9556137530645469 0.9428001580063314	-0.117242
C	0.4436957694072909 0.9558005901221935 0.9441427215735056	-0.127258
C	0.3815571568633313 0.5186600852080471 0.3658978987207722	0.102009
C	0.3271730866693974 0.5197982541572194 0.3633615690329632	-0.167811
C	0.6125192469070841 0.0440198415105985 0.9442153536068697	-0.117287
C	0.5580926270211721 0.0438293336757526 0.9452400883106039	-0.127889
C	0.5186440307300985 0.3815475403463228 0.6348365042660726	0.102773
C	0.5198098152884107 0.3271735883047772 0.6370670588617579	-0.168434
C	0.0440736216026841 0.6125529247395319 0.0557642906376380	-0.117074
C	0.0438735516008633 0.5581266810494036 0.0547606532468589	-0.127905
C	0.4845570758818202 0.6196768099419219 0.6354558880499076	0.096280
C	0.4835573520843341 0.6740348193674381 0.6416421761325083	-0.171599
C	0.9556795789321610 0.3893323817014332 0.0570571753222669	-0.116337
C	0.9558480897916287 0.4437346967935931 0.0556938916744571	-0.128356
C	0.3817910845845479 0.4803601431740371 0.6264703729293988	0.103297
C	0.3274012206587371 0.4796445394605135 0.6336318290663562	-0.168593
C	0.6118816645123312 0.9561079475054807 0.0561190326848644	-0.116976
C	0.5574669938655130 0.9562019589821236 0.0554385937838018	-0.126073
C	0.6197141718019239 0.5151260684589190 0.6367703958137825	0.100360
C	0.6740801471660350 0.5159822430924754 0.6406578049368045	-0.168246
C	0.3893600268517723 0.0441060716527859 0.0556168140328557	-0.118022
C	0.4437659926920383 0.0440157975656823 0.0551232795027179	-0.126515
C	0.5438405124527541 0.8895692628638227 0.5557892778196813	-0.118800
C	0.5439105815682118 0.9439487532744284 0.5548640587829485	-0.128840
C	0.0135244120384057 0.1196642764831504 0.1335920217933066	0.099335
C	0.0146481804837915 0.1740236192798002 0.1395023526339743	-0.170927
C	0.4557613255665270 0.1117820874667621 0.5558897445480454	-0.120277
C	0.4559879378659898 0.0573968981052346 0.5555872005064995	-0.126595
C	0.9812010708583885 0.8825018740893363 0.1354438267820736	0.105600
C	0.9803691370795837 0.8280804874086443 0.1393443699754973	-0.167452
C	0.1119805236468909 0.5442572291130003 0.5567368697178424	-0.120851
C	0.0575865140395172 0.5441590300316551 0.5554876785881281	-0.126422
C	0.8820488908020704 0.0178129606456061 0.1312746829489516	0.102962
C	0.8276779550640332 0.0188666022788930 0.1360307791930276	-0.165971
C	0.8890469235416008 0.4557808369348212 0.5561800058524879	-0.119696
C	0.9434402246155131 0.4560875991185097 0.5552335317588344	-0.128578
C	0.1190487252857737 0.9848887502000913 0.1398753313251200	0.099197
C	0.1734843747408382 0.9842034282978345 0.1435218101607895	-0.172503
C	0.4557591750252102 0.8890291930927645 0.4436405133671253	-0.119144
C	0.4560881780361666 0.9434202507444018 0.4445467831913690	-0.127976
C	0.9849060435924225 0.1189940733380945 0.8598872633403274	0.098348
C	0.9841511367296741 0.1734310520240140 0.8564338343438735	-0.172079
C	0.5442576314113392 0.1119383296889180 0.4431249298942727	-0.121698
C	0.5441845976315616 0.0575470084297115 0.4444338802126183	-0.126497
C	0.0180063047021078 0.8820442593349896 0.8701148573042564	0.101403
C	0.0190392047611755 0.8276700599655465 0.8648752327448426	-0.166494
C	0.8895186697288541 0.5437680790157886 0.4441846330066601	-0.119037
C	0.9439035549403555 0.5438132144988439 0.4450865532481010	-0.129449
C	0.1195411496510166 0.0132509431500603 0.8661892959724626	0.100916
C	0.1738956743328811 0.0144518783522059 0.8604437560766184	-0.170519
C	0.1117583990186281 0.4556998743812748 0.4438642226703847	-0.120197
C	0.0573651906264237 0.4559065811637464 0.4441859276852739	-0.127197
C	0.8824933176802193 0.9813849792855805 0.8651510081120405	0.103863
C	0.8280779364788521 0.9805962867578383 0.8606544075913047	-0.166628
C	0.4997139086532378 0.2988301973670107 0.5005350520397723	0.172373
C	0.4997848692113500 0.2432641219665069 0.4986281465671897	-0.108641
C	0.4998585832945462 0.1955150521454791 0.4986266712762047	-0.096040
C	0.4999438243684289 0.1399682382503643 0.4990728032191006	0.124247
C	0.5001024360211035 0.0293678999298216 0.5000502878404882	0.064578
C	-0.0002656819052609 0.7994058189671178 0.0019183858985238	0.171261
C	-0.0001777693119323 0.7437803513032446 0.0012847817407968	-0.109754
C	-0.0000009603974610 0.6959905493578927 0.0005048028967831	-0.092203
C	0.0000746059344476 0.6403934867170578 -0.0000520277527109	0.124287
C	-0.0000213296481333 0.5296021030490011 -0.0003377959130518	0.065309
C	0.4997332915135386 0.7024629907905509 0.5011182726214578	0.171032
C	0.4995295612726968 0.7579775193929429 0.5016652988858543	-0.108110
C	0.4994830513362703 0.8057198055999379 0.5006406796290662	-0.096334
C	0.4996754583304988 0.8612248333908227 0.4999891784385844	0.123519
C	0.5000636172959690 0.9717618013915337 0.4998848144131591	0.066582
C	-0.0004468165990349 0.2022000432656140 -0.0017485436622729	0.172192
C	-0.0003201127639002 0.2577790268787059 -0.0006991316638523	-0.111955
C	-0.0002331275859937 0.3055766952310785 0.0004329116625373	-0.090034
C	-0.0001340269364190 0.3611590732405022 0.0008254284135826	0.122371
C	-0.0000730697541966 0.4719003053743708 -0.0000098789697128	0.070371
C	0.7024017494676775 0.4997135986432364 0.4987674231665198	0.170275
C	0.7579195221076905 0.4995256415475575 0.4984025720677738	-0.108020
C	0.8056747093229424 0.4994848697598356 0.4993649776308318	-0.096332
C	0.8611943018890560 0.4996598239016523 0.4999464775063558	0.124063
C	0.9717593747078599 0.5000061665705984 0.4999633569655820	0.069479
C	0.2021709926270943 -0.0004904693983290 0.0017659649117545	0.172655
C	0.2577717487569801 -0.0003526108087992 0.0007750127692117	-0.113031
C	0.3055728568325883 -0.0002934009479006 -0.0004019380876237	-0.089045
C	0.3611571645994925 -0.0001855349815434 -0.0008376800440699	0.121970
C	0.4719044239172816 -0.0000832973192367 -0.0000611706104491	0.070196
C	0.2988678425856516 0.4997247056001150 0.4996616966891684	0.171622
C	0.2433035174189576 0.4997760893411991 0.5012940724647634	-0.107703
C	0.1955365153921013 0.4998447340846950 0.5011809978127447	-0.096174
C	0.1399870376693242 0.4999265307097646 0.5007126357074743	0.124143
C	0.0293642650857692 0.5000432022795839 0.4998042924056114	0.063766
C	0.7994216992888166 -0.0002314016422548 -0.0016789884056479	0.171800
C	0.7437898449124574 -0.0001563063925505 -0.0014167944367664	-0.110962
C	0.6959864333473272 -0.0000138674065238 -0.0006794599554473	-0.091770
C	0.6403864634341486 0.0000567545309564 -0.0000633577241147	0.124378
C	0.5296077590530249 -0.0000200146995641 0.0002818631963960	0.065030
H	0.4658800134117173 0.4051314534718573 0.2712407240966708	0.105158
H	0.4637732282361055 0.3071270011489310 0.2579632413289450	0.119640
H	0.9220548976521562 0.6329117738946054 0.8988646648624163	0.102219
H	0.9222037928849101 0.5359289855805006 0.8975445186815975	0.108700
H	0.5252859709366808 0.5965389711673222 0.2528896201962655	0.106083
H	0.5286721273530429 0.6943725673831851 0.2473843643433378	0.117670
H	0.0783160398202346 0.3679518935256750 0.8994403304740092	0.103028
H	0.0781305523809214 0.4649558552839460 0.8978622349704252	0.109819
H	0.5959081701526854 0.4732765296647234 0.2564462503234345	0.108033
H	0.6941116910113705 0.4704465300423057 0.2455039984462451	0.119723
H	0.3679086410540715 0.9213816617948428 0.8973237277742818	0.103179
H	0.4649235954358704 0.9217099794088913 0.8971278895176754	0.108943
H	0.4048900026562189 0.5335768679374490 0.2621181269534565	0.098418
H	0.3067886465707004 0.5358418740405393 0.2570297055860292	0.116864
H	0.6341204547902806 0.0780315249326107 0.8992760612856292	0.102745
H	0.5370937193441577 0.0777145266094636 0.8986437243242957	0.109761
H	0.5336123699729531 0.4048951296715190 0.7388400791271175	0.098234
H	0.5359076603535364 0.3068268851481890 0.7433542921268261	0.117119
H	0.0781309037309498 0.6341843792570520 0.1007766492688163	0.102761
H	0.0777942284673491 0.5371792980956310 0.1014165008716674	0.109741
H	0.4732781464449384 0.5960576609192525 0.7425384678233321	0.107465
H	0.4704518177694303 0.6942557280035324 0.7540772408937515	0.119894
H	0.9214767315345784 0.3679714854571935 0.1024585712848815	0.102828
H	0.9217674982105246 0.4649684732876524 0.1026049289486950	0.109417
H	0.4052390591708340 0.4659752553776991 0.7294935687932096	0.105639
H	0.3072370898533944 0.4638327208367786 0.7420247913596961	0.119920
H	0.6330101237452265 0.9221367753275286 0.1009634085155041	0.102158
H	0.5360029049627224 0.9222925215833409 0.1023356878388740	0.108962
H	0.5965104561799530 0.5252454472720313 0.7466736250966545	0.106004
H	0.6943859251743644 0.5286462215196834 0.7527060331273747	0.117987
H	0.3680096904433937 0.0783162807443234 0.1006682732092795	0.102868
H	0.4650331273315183 0.0781684265368801 0.1022004051841945	0.109278
H	0.5777511141553864 0.8683179876607867 0.6006215674989922	0.102765
H	0.5779026863093696 0.9654034107630595 0.6014779347364008	0.107823
H	0.0231519727215566 0.0963338901338313 0.2418421749313277	0.099021
H	0.0266824328618212 0.1944324144911836 0.2524615824923288	0.116172
H	0.4216100470489673 0.1331572408956667 0.6011212567525724	0.103249
H	0.4219729134115556 0.0360913785360185 0.6030633480438116	0.106631
H	0.9670967860383104 0.9058224657288955 0.2414102092063333	0.109520
H	0.9649409531412126 0.8079911574511225 0.2481469302678878	0.119781
H	0.1334983589422887 0.5784266841570347 0.6020313805777259	0.102783
H	0.0363974478913557 0.5782945628617766 0.6023547836882370	0.107023
H	0.9052844778261067 0.0315703760688332 0.2366584762611909	0.108006
H	0.8072979796367111 0.0340476665102214 0.2455423009238744	0.117920
H	0.8674221340045283 0.4217883331438987 0.6011688460275769	0.102856
H	0.9645241534465449 0.4223139572478566 0.6020647844438941	0.106557
H	0.0956126049651577 0.9741250333429756 0.2490071744630692	0.111052
H	0.1936522141679418 0.9719162650452556 0.2552759829941638	0.120837
H	0.4217213915497522 0.8673853961076450 0.3986251185630773	0.102626
H	0.4222812420532556 0.9644687564725309 0.3976640841785121	0.106750
H	0.9740504675390375 0.0955029737829748 0.7506248287609510	0.110993
H	0.9717471530432837 0.1935266218733201 0.7447519021183960	0.121314
H	0.5783943519017547 0.1334179081998036 0.3978709629677927	0.103452
H	0.5783023426484416 0.0363374957065621 0.3976304946189471	0.107164
H	0.0318896856142558 0.9052877940798802 0.7651800756006802	0.108753
H	0.0343704189314793 0.8073267413714046 0.7554708216543879	0.117722
H	0.8682351727284349 0.5776550319162257 0.3994166243853189	0.102700
H	0.9653408888092299 0.5777686235244135 0.3985467758029166	0.108029
H	0.0961806745898807 0.0227364201817902 0.7577518743743673	0.097432
H	0.1942523828614200 0.0264157313040574 0.7475536076086224	0.115725
H	0.1331224092403999 0.4215286594663527 0.3985915993677037	0.103531
H	0.0360263851839563 0.4218545197770979 0.3966552174926935	0.106842
H	0.9058343098855589 0.9674590374789811 0.7591625534071702	0.110448
H	0.8079803015027643 0.9653592698450150 0.7513083020175767	0.119943
Cd	0.5008855941583354 0.5009399454949701 0.5000217853174235	0.822770
Cd	0.0005252298814069 0.0006082898230348 0.0002895721017603	0.826069
Fe	0.4971308341065835 0.4971077554614680 0.0000916602967002	1.359511
Fe	-0.0023636225659200 -0.0022036354804146 0.4996569350839997	1.295862
F	0.5098418800598200 0.4863769670368003 0.2318492685852247	-0.512158
F	0.0019638536591756 0.0029885298015295 0.7293418710779660	-0.519898
F	0.4877104284413400 0.5110505214371478 0.7684271931211090	-0.511678
F	0.0048590397052654 0.0036888563587187 0.2708404464495818	-0.519908
F	0.4452769726827420 0.4454430122578376 -0.0024132618463339	-0.596187
F	0.9447053109818658 0.9456504908070620 0.4953009950103650	-0.590690
F	0.4769394951076679 0.5663113397648269 0.0466471849394175	-0.592950
F	0.9648194050669900 0.0630793985167779 0.5004035232305138	-0.583075
F	0.5665475676788331 0.4771109003584123 0.9562930716400598	-0.592071
F	0.0625792202635800 0.9646309723385447 0.5010970135881239	-0.582391
N	0.4992595984280379 0.4082742190129111 0.5061695289387681	-0.237843
N	-0.0003871217955838 0.9088856441647951 0.0028790199497612	-0.239579
N	0.4999655468134911 0.5930642964230842 0.4983258696433398	-0.239908
N	-0.0006331130250029 0.0927044536114968 -0.0035923383392211	-0.240013
N	0.5929777122285949 0.4999423686136605 0.5009741230312638	-0.240685
N	0.0926678253769661 -0.0008179977807795 0.0032591147172554	-0.239690
N	0.4083211474543630 0.4993435734374268 0.4946965480618403	-0.238033
N	0.9088666194168100 -0.0004154886551352 -0.0016523107863462	-0.239688
	  	
