#======================================================================

# CRYSTAL DATA

#----------------------------------------------------------------------

data_VESTA_phase_1


_pd_phase_name                         FeFFIVE_6_Ni_i
_cell_length_a                         17.70963
_cell_length_b                         17.70964
_cell_length_c                         15.52920
_cell_angle_alpha                      90.00008
_cell_angle_beta                       90.00033
_cell_angle_gamma                      89.97708
_symmetry_space_group_name_H-M         P 1
_symmetry_Int_Tables_number            1

loop_
_symmetry_equiv_pos_as_xyz
   x, y, z

loop_
   _atom_site_label
   _atom_site_fract_x
   _atom_site_fract_y
   _atom_site_fract_z
   _atom_site_charge
N	0.2438619093876576 0.1319358332949671 0.1278260168330757	-0.237450
N	0.2558757732446152 0.3681819175177594 0.1288301824435395	-0.239203
N	0.3681075519747500 0.2441955712028989 0.1286596536521853	-0.237613
N	0.1318805157537007 0.2562043987648733 0.1273858455771270	-0.237858
N	0.7557993982704004 0.6318952376980094 0.3713358136188690	-0.237556
N	0.7437972009039258 0.8681183105250276 0.3726110577878660	-0.237791
N	0.6318196412950046 0.7441292156276650 0.3711655850019165	-0.239272
N	0.8680632858901931 0.7561370404179816 0.3721698165644489	-0.237516
N	0.7558700287266515 0.8681805767603498 0.8711630124058033	-0.239286
N	0.7438626669491786 0.6319363305689021 0.8721700916748498	-0.237595
N	0.6318799483792374 0.7562014404940705 0.8726102834658395	-0.237814
N	0.8681058325030239 0.7441992905088770 0.8713352854321305	-0.237629
N	0.2438021490377153 0.3681198986437293 0.6273950088186346	-0.237886
N	0.2557972046577197 0.1318924823237435 0.6286671978474371	-0.237665
N	0.3680632250454646 0.2561340680618930 0.6278327684194325	-0.237429
N	0.1318163617951409 0.2441338981577580 0.6288430697850826	-0.239372
C	0.2005964556231215 0.0953772373314683 0.1855061033672172	0.110526
C	0.1922459326226260 0.0173966046377022 0.1850637792356615	-0.182320
C	0.2323125217321021 0.9741831303555681 0.1248344389494122	0.111773
C	0.2787179854965415 0.0127578822249807 0.0663848807133594	-0.180844
C	0.2819211848031276 0.0911228056885856 0.0690627979838481	0.105438
C	0.2264323203007683 0.8913102522658990 0.1236716636046783	0.060769
C	0.2909138566885849 0.8471731111719832 0.1208855503313130	-0.172906
C	0.2864571639396243 0.7675675976582922 0.1219846307502037	0.085186
C	0.1480528394638423 0.7785726909518403 0.1246033561770560	-0.122921
C	0.1544042820257432 0.8559579801882555 0.1267039437867691	-0.137136
C	0.2993427638888786 0.4045799359989923 0.1866366892412294	0.100231
C	0.3077786382825085 0.4826051767189438 0.1858080731293686	-0.184898
C	0.2675956171300630 0.5258285808651363 0.1256065533954439	0.109008
C	0.2212790697016933 0.4872481656645399 0.0671847453422455	-0.182490
C	0.2180953240896777 0.4089005704362518 0.0696501970087056	0.101826
C	0.2736281699213579 0.6086579708727053 0.1239609464523818	0.061635
C	0.2091273006996364 0.6527994611840791 0.1209301447174487	-0.172793
C	0.2135420935679032 0.7324084623069399 0.1219623471716433	0.085717
C	0.3519212036642297 0.7213814008587270 0.1245730370091715	-0.123020
C	0.3456585997465670 0.6439956342451381 0.1267593982716753	-0.137634
C	0.4045844661653424 0.2005844382925253 0.1861655677302766	0.102119
C	0.4826052771482888 0.1922470704360925 0.1857349101354207	-0.184584
C	0.5258354038807382 0.2324736695403294 0.1255768423467428	0.112390
C	0.4872603640832610 0.2787704368236159 0.0671018805761051	-0.179659
C	0.4089332108638391 0.2820269138257602 0.0697741718646968	0.111193
C	0.6086819312332045 0.2264280803499043 0.1239807358920044	0.061108
C	0.6527861593562559 0.2909162755036337 0.1209466597492023	-0.173759
C	0.7323946521558192 0.2864364579013081 0.1219578023578524	0.088189
C	0.7214220270266114 0.1480522959292827 0.1245929406729454	-0.123319
C	0.6440419389102772 0.1543818026187598 0.1267673777535681	-0.136192
C	0.0953774028707974 0.2993849650804782 0.1853370026445497	0.102563
C	0.0173852733245646 0.3077408345002477 0.1847598817543496	-0.182190
C	0.9741842085015952 0.2676609210140468 0.1245960400870488	0.108288
C	0.0127823855133588 0.2212265859175452 0.0661505825930438	-0.183674
C	0.0911939633371528 0.2180876109832093 0.0684522062292185	0.098678
C	0.8913174413555165 0.2735034658590182 0.1235849076848546	0.062295
C	0.8471932815538534 0.2090422290334740 0.1208708763743004	-0.173739
C	0.7675824005951106 0.2135041785335020 0.1220081382488555	0.084910
C	0.7785418869680304 0.3518965499842736 0.1245960281835316	-0.123459
C	0.8559335721581786 0.3455445915156337 0.1266880184152850	-0.138462
C	0.7994132675687656 0.5954175455813155 0.3138330835200757	0.102106
C	0.8077518632804154 0.5173965640538427 0.3142647144047409	-0.184539
C	0.7675253318330565 0.4741655818699983 0.3744214840222781	0.112386
C	0.7212298062018233 0.5127426751922420 0.4328960926805677	-0.179644
C	0.7179717224194363 0.5910694975207655 0.4302226175205258	0.111212
C	0.7735717915908303 0.3913183561298127 0.3760171884437464	0.061154
C	0.7090841516010268 0.3472137784227310 0.3790518927841316	-0.173790
C	0.7135638144639003 0.2676061856609449 0.3780423628456593	0.088392
C	0.8519458322378205 0.2785788587743124 0.3754070940918720	-0.123171
C	0.8456171831198150 0.3559578614151450 0.3732316856485376	-0.136175
C	0.7006153918796139 0.9046244363651857 0.3146614964843609	0.102552
C	0.6922588524579515 0.9826149961239781 0.3152376859078743	-0.182155
C	0.7323383550285667 0.0258163438667367 0.3754016073533505	0.108354
C	0.7787717457918466 0.9872150679197094 0.4338476542861035	-0.183726
C	0.7819114484208692 0.9088050940561174 0.4315463798408102	0.098684
C	0.7264967274830189 0.1086826906478573 0.3764130202546759	0.062263
C	0.7909574573060026 0.1528064055435993 0.3791277157460339	-0.173675
C	0.7864953612152406 0.2324166488537442 0.3779919922338568	0.084683
C	0.6481045784041500 0.2214570016053483 0.3754039123004731	-0.123468
C	0.6544561326866795 0.1440664550288461 0.3733107600149985	-0.138406
C	0.5954199033320692 0.7006589676648324 0.3133623492610428	0.100099
C	0.5173953759954583 0.6922213987843659 0.3141909952448247	-0.184768
C	0.4741714686295755 0.7324050303284931 0.3743908157094998	0.108969
C	0.5127540146557137 0.7787214030317303 0.4328121422676012	-0.182597
C	0.5911003132960920 0.7819070086289279 0.4303457749271102	0.102016
C	0.3913422828315543 0.7263720435620306 0.3760365991000791	0.061839
C	0.3472006424115609 0.7908721221600450 0.3790682531277592	-0.172856
C	0.2675925372147028 0.7864573370237383 0.3780378846762060	0.085717
C	0.2786192085408397 0.6480802050315362 0.3754271833452208	-0.122922
C	0.3560038678336218 0.6543423499981682 0.3732393832824032	-0.137701
C	0.9046242555261679 0.7994035350169334 0.3144912558768438	0.110557
C	0.9826040638185609 0.8077534359138067 0.3149337286008608	-0.182323
C	0.0258177838794384 0.7676864968743585 0.3751621554146972	0.111959
C	0.9872402333081386 0.7212812212384851 0.4336108257432400	-0.181059
C	0.9088764151790243 0.7180794106804512 0.4309328065593291	0.105636
C	0.1086900778676874 0.7735672731715579 0.3763266478155581	0.060708
C	0.1528272875958911 0.7090863245241428 0.3791137232184248	-0.172957
C	0.2324316035450816 0.7135432871424080 0.3780157444245114	0.085128
C	0.2214269157619552 0.8519457221764624 0.3753966871219882	-0.122910
C	0.1440428105967295 0.8455947960291247 0.3732950067293162	-0.137037
C	0.7993413122952064 0.9045793448189042 0.8133603695706919	0.100216
C	0.8077787306533989 0.9826038975015899 0.8141896820171083	-0.184881
C	0.7675946562115087 0.0258272957121821 0.8743904063226033	0.109029
C	0.7212787183798546 0.9872456727089228 0.9328114257049731	-0.182655
C	0.7180923135549981 0.9088996523770579 0.9303438140182032	0.102044
C	0.7736272747036147 0.1086571695464568 0.8760372308957952	0.061781
C	0.7091271399856677 0.1527993439724584 0.8790689339467903	-0.172807
C	0.7135419021342431 0.2324078611302116 0.8780387543073388	0.085695
C	0.8519197106465140 0.2213806950917782 0.8754278035975486	-0.122957
C	0.8456572326222714 0.1439960346863325 0.8732401889456872	-0.137806
C	0.7005967785487557 0.5953754058429349 0.8144903172882445	0.110678
C	0.6922463343828364 0.5173964027267842 0.8149329459625386	-0.182286
C	0.7323134951292564 0.4741833810968331 0.8751625496420947	0.111837
C	0.7787191153953035 0.5127607106875616 0.9336112162518863	-0.181037
C	0.7819218624982861 0.5911244291748352 0.9309332199495438	0.105661
C	0.7264321880400864 0.3913102982544002 0.8763273034385914	0.060866
C	0.7909133059128809 0.3471730588075176 0.8791138320889678	-0.173002
C	0.7864565219831937 0.2675678829742540 0.8780164716322940	0.085191
C	0.6480535158362056 0.2785727482435745 0.8753974366014521	-0.122874
C	0.6544046240480158 0.3559573834308092 0.8732957732147333	-0.137086
C	0.5953754591083903 0.7993835513243853 0.8146598837440716	0.102476
C	0.5173849130539642 0.8077405753370819 0.8152363564998362	-0.182169
C	0.4741843503109031 0.7676614333657271 0.8754013417763382	0.108336
C	0.5127850884526405 0.7212283222638712 0.9338474225718643	-0.183778
C	0.5911946133296957 0.7180877945006208 0.9315458389000202	0.098775
C	0.3913173202730449 0.7735039922757024 0.8764135858123552	0.062311
C	0.3471935150363979 0.7090426626942049 0.8791281548159398	-0.173653
C	0.2675827935689548 0.7135046582935164 0.8779925468480515	0.084712
C	0.2785416070779160 0.8518957642609803 0.8754043932558995	-0.123439
C	0.3559328247674802 0.8455443468003816 0.8733112474790737	-0.138432
C	0.9045830043064647 0.7005859038266737 0.8138312204300939	0.102263
C	0.9826034963338376 0.6922475114946153 0.8142632691151208	-0.184597
C	0.0258341359621887 0.7324747220097468 0.8744208436790951	0.112336
C	0.9872579775281252 0.7787714718238429 0.9328948464196245	-0.179689
C	0.9089313759475462 0.7820290257959008 0.9302210891697754	0.111145
C	0.1086815582809265 0.7264273995080458 0.8760178702378110	0.061147
C	0.1527858489246364 0.7909156861666096 0.8790526723444885	-0.173775
C	0.2323940828999243 0.7864361703696617 0.8780430116135026	0.088303
C	0.2214221056206324 0.6480534858734993 0.8754077581344046	-0.123235
C	0.1440424663711308 0.6543820601790198 0.8732325978170744	-0.136216
C	0.2006183918030154 0.4046260162473077 0.6853438236573273	0.102583
C	0.1922585020067542 0.4826178652336648 0.6847653994856655	-0.182238
C	0.2323377038470349 0.5258166112897821 0.6245996602579280	0.108355
C	0.2787701560047383 0.4872150529958729 0.5661542083390707	-0.183720
C	0.2819133650428237 0.4088047417698955 0.5684570760900909	0.098746
C	0.2264948663805483 0.6086830692707575 0.6235866947063835	0.062286
C	0.2909572277492499 0.6528065014515293 0.6208714755004737	-0.173716
C	0.2864952089283005 0.7324169767703446 0.6220056719003919	0.084892
C	0.1481025682414194 0.7214587149457847 0.6245943979743169	-0.123415
C	0.1544540125334407 0.6440672553232801 0.6266887599038128	-0.138521
C	0.2994130734051932 0.0954154911509830 0.6861706244320126	0.102160
C	0.3077526257181198 0.0173941033820181 0.6857378441746591	-0.184487
C	0.2675253027542197 0.9741657858039799 0.6255792541074893	0.112308
C	0.2212293449371031 0.0127415049209313 0.5671044582375689	-0.179701
C	0.2179697379450481 0.0910689335384311 0.5697787018324696	0.111258
C	0.2735725337512055 0.8913186710753505 0.6239821871245406	0.061201
C	0.2090837568583190 0.8472139753958382 0.6209468241439809	-0.173879
C	0.2135636448859239 0.7676055600176026 0.6219551698654679	0.088276
C	0.3519477842751926 0.7785774293487460 0.6245909494484664	-0.123336
C	0.3456183098600783 0.8559574061818659 0.6267670223093526	-0.136234
C	0.4046246441471136 0.2994015206438236 0.6855130211470470	0.110601
C	0.4826055725227515 0.3077537047582948 0.6850699006999988	-0.182216
C	0.5258173973230701 0.2676867472558215 0.6248405625465016	0.111832
C	0.4872399061285601 0.2212815368660855 0.5663909456991414	-0.180899
C	0.4088754275801887 0.2180776865810481 0.5690695943130234	0.105492
C	0.6086900960510662 0.2735688455686618 0.6236745928536731	0.060702
C	0.6528269957298030 0.2090868461045061 0.6208860437039082	-0.173955
C	0.7324320862296660 0.2135432589803666 0.6219818543975181	0.088311
C	0.7214279160128017 0.3519478001662375 0.6246014965040951	-0.122906
C	0.6440428140437139 0.3455967852992477 0.6267045607158512	-0.137146
C	0.0954179428202187 0.2006603855460654 0.6866440962393026	0.100231
C	0.0173926760120279 0.1922207056835940 0.6858128976969377	-0.184887
C	0.9741713836455156 0.2324054640696915 0.6256110400609473	0.109037
C	0.0127531193299774 0.2787216486870304 0.5671905634822424	-0.182741
C	0.0910998230267532 0.2819102734644511 0.5696591930565975	0.102183
C	0.8913420432246519 0.2263708934490634 0.6239628463041336	0.061816
C	0.8472004279505571 0.2908721574411166 0.6209306199912085	-0.172976
C	0.7675916333051548 0.2864576814392776 0.6219597781838401	0.084861
C	0.7786178579978341 0.1480784044982831 0.6245710616490036	-0.123927
C	0.8560036224828939 0.1543407670459301 0.6267596561095782	-0.137791
H	0.1733176290399917 0.1303351213119146 0.2340909646370511	0.098495
H	0.1566637355689656 0.9901672716667758 0.2331822013952482	0.112613
H	0.3105816806551663 0.9817118899055660 0.0179118511348879	0.111416
H	0.3152595572438427 0.1232415917732113 0.0227974756825403	0.096381
H	0.3463958760720250 0.8739150415986161 0.1202754556591954	0.106937
H	0.0926089821549816 0.7516970227701623 0.1253808005441960	0.109793
H	0.1040020066713658 0.8913568893754168 0.1288204702677560	0.099470
H	0.3272883627325249 0.3696345238609683 0.2350575415054103	0.102119
H	0.3439498368414313 0.5098579465675885 0.2333001344234908	0.112119
H	0.1897018459168589 0.5178852902096612 0.0181303757594841	0.114042
H	0.1864907620293949 0.3774101052115496 0.0212017172199773	0.104450
H	0.1536507865555488 0.6260613550569410 0.1202670109270692	0.107698
H	0.4072949865947613 0.7483779829676589 0.1253760293096995	0.106249
H	0.3961113510989895 0.6086398345630756 0.1289284481570206	0.100358
H	0.3692031407674683 0.1720631724577233 0.2335476192846715	0.097828
H	0.5099891907947602 0.1561402044535012 0.2332292690765956	0.111449
H	0.5180183759772405 0.3101745753243922 0.0180143072341833	0.113813
H	0.3771411388874804 0.3141442847997863 0.0222127357287600	0.098753
H	0.6260077006346233 0.3463925488882222 0.1203262647596984	0.108177
H	0.7483183690731621 0.0926023226692965 0.1253456319305833	0.107592
H	0.6087476531416505 0.1039208201169540 0.1288431743778971	0.100799
H	0.1298085566009581 0.3259647137130822 0.2350301470169440	0.104875
H	0.9903690362295715 0.3433192164228452 0.2330496279682864	0.113630
H	0.9817592989438051 0.1891778797778094 0.0178520569228570	0.112303
H	0.1231090632693634 0.1849621967776942 0.0215887480648013	0.101374
H	0.8739451562037709 0.1535408357564408 0.1202107407607428	0.106059
H	0.7515400265764768 0.4072957833704216 0.1254054945641537	0.108031
H	0.8913607584561490 0.3959082964861700 0.1288900259666591	0.099243
H	0.8279355481504622 0.6307979474717832 0.2664529132949118	0.097848
H	0.8438594216933689 0.4900150441643014 0.2667680538492591	0.111439
H	0.6898246599607357 0.4819827403903271 0.4819816335383575	0.113848
H	0.6858529564613234 0.6228596224775010 0.4777855962217999	0.098752
H	0.6536079955447991 0.3739922266854340 0.3796724932532222	0.108184
H	0.9073959990487920 0.2516830844223622 0.3746540902189064	0.107536
H	0.8960784784984170 0.3912518299873152 0.3711556163510978	0.100808
H	0.6740358088863111 0.8701928508247569 0.2649694547942550	0.104929
H	0.6566802468434147 0.0096309992173657 0.2669449175459490	0.113658
H	0.8108222313510222 0.0182411564323038 0.4821432174198320	0.112289
H	0.8150401538666082 0.8768896884030198 0.4784082703434266	0.101385
H	0.8464585552429260 0.1260546243130007 0.3797879791175350	0.106073
H	0.5927055399957047 0.2484587521102043 0.3745943810931258	0.107975
H	0.6040920103843699 0.1086397970714747 0.3711086674131953	0.099247
H	0.6303650999361434 0.6727122388938283 0.2649430089898874	0.102165
H	0.4901435744364620 0.6560491351792778 0.2666960711202178	0.112149
H	0.4821134534452379 0.8102990098609405 0.4818639954608175	0.114070
H	0.6225894258718719 0.8135138663260263 0.4787955719649519	0.104455
H	0.3739383954415307 0.8463483575114010 0.3797316707614034	0.107691
H	0.2516229184424024 0.5927063435168428 0.3746238405030033	0.106269
H	0.3913597523822519 0.6038891926230732 0.3710703298352585	0.100388
H	0.8696665275191039 0.8266828041827845 0.2659078435203293	0.098506
H	0.0098323941331939 0.8433367091991292 0.2668130370736539	0.112619
H	0.0182888859910451 0.6894176460121861 0.4820829837087428	0.111503
H	0.8767582788237372 0.6847404518419020 0.4772001195409397	0.096362
H	0.1260853220755687 0.6536049162121144 0.3797232442027046	0.106993
H	0.2483020005647617 0.9073896426773645 0.3746189594015054	0.109813
H	0.1086437117373241 0.8959972749424151 0.3711781509919978	0.099407
H	0.8272900651706335 0.8696335438345277 0.7649425712110017	0.102091
H	0.8439514521039905 0.0098566880115799 0.7666963731234498	0.112106
H	0.6897019407823813 0.0178853735620744 0.9818638508549460	0.114052
H	0.6864873992122400 0.8774096675569735 0.9787935424122852	0.104432
H	0.6536508111399317 0.1260615706835010 0.8797318583117794	0.107679
H	0.9072939464721007 0.2483764145634305 0.8746238394024166	0.106277
H	0.8961104179387759 0.1086396564428783 0.8710708807934268	0.100384
H	0.6733165630240860 0.6303336431583304 0.7659067398384221	0.098408
H	0.6566628932910986 0.4901679939716173 0.7668128996437880	0.112606
H	0.8105824605755957 0.4817129264455532 0.9820828276842136	0.111432
H	0.8152602144530473 0.6232435611203396 0.9771999381989706	0.096312
H	0.8463951269477692 0.3739146906507836 0.8797233752245235	0.106956
H	0.5926098827866604 0.2516980956674107 0.8746190391448603	0.109769
H	0.6040021951875255 0.3913566805872671 0.8711789488221493	0.099367
H	0.6298074820733995 0.8259654040953597 0.7649690269825037	0.104940
H	0.4903685682650692 0.8433200572313706 0.7669450795821415	0.113640
H	0.4817602606792832 0.6891796003233129 0.9821431755029582	0.112253
H	0.6231109232135514 0.6849609562382689 0.9784088412674711	0.101375
H	0.3739452534512945 0.6535417072986435 0.8797881840160537	0.106063
H	0.2515405843395727 0.9072945560497530 0.8745939916648403	0.107970
H	0.3913599332061671 0.8959084378313814 0.8711089421025123	0.099235
H	0.8692026195326026 0.6720621575908328 0.7664512200014890	0.097783
H	0.0099864798854035 0.6561394455786468 0.7667678355245066	0.111435
H	0.0180175691129686 0.8101756020188746 0.9819812415245587	0.113840
H	0.8771404016461972 0.8141465686100783 0.9777842781434334	0.098752
H	0.1260076279190784 0.8463919720217197 0.8796726904681652	0.108190
H	0.2483172023705125 0.5926035872802804 0.8746540468760616	0.107530
H	0.1087481271982859 0.6039210611409482 0.8711560991824081	0.100814
H	0.1740386890318353 0.3701948167726461 0.7350344747659552	0.104912
H	0.1566795814081533 0.5096317134861252 0.7330589415018133	0.113632
H	0.3108181838738491 0.5182409734493137 0.5178603373278657	0.112252
H	0.3150392544119434 0.3768888685958552 0.5215929342469701	0.101391
H	0.3464577494272336 0.6260536935369985 0.6202121832413366	0.106067
H	0.0927037780759311 0.7484610415042106 0.6254047568281903	0.107994
H	0.1040898469423655 0.6086396379055250 0.6288914311450439	0.099263
H	0.3279353681519148 0.1307961947593177 0.7335505461285032	0.097805
H	0.3438594987435305 0.9900126513419145 0.7332353822457262	0.111468
H	0.1898249105921168 0.9819814602447168 0.5180198861769761	0.113834
H	0.1858528407023623 0.1228612977344768 0.5222153069377443	0.098756
H	0.1536081536710114 0.8739927580130407 0.6203275729630129	0.108205
H	0.4073978874947997 0.7516810291993629 0.6253451252784116	0.107596
H	0.3960798653990568 0.8912521622400552 0.6288441892724969	0.100802
H	0.3696674768439377 0.3266804948160275 0.7340951755687842	0.098409
H	0.5098326958163640 0.3433370581756612 0.7331914584393626	0.112592
H	0.5182888519537697 0.1894195802297861 0.5179210727649780	0.111371
H	0.3767565045405634 0.1847395305162379 0.5228009607371296	0.096327
H	0.6260843516955862 0.1536057156250506 0.6202769905304887	0.106941
H	0.7483039058640084 0.4073913239153364 0.6253801022635169	0.109762
H	0.6086436980455046 0.3959995149658386 0.6288220180309720	0.099455
H	0.1303638945403085 0.1727121235334785 0.7350612403049059	0.102089
H	0.9901419359723500 0.1560483977088800 0.7333075698677537	0.112155
H	0.9821135589291005 0.3102976275099199 0.5181384001682370	0.114063
H	0.1225903606131600 0.3135129141199638 0.5212077418838093	0.104415
H	0.8739392076333684 0.3463478848708825 0.6202684582514076	0.107685
H	0.7516210991910435 0.0927047927392850 0.6253752933756092	0.106213
H	0.8913598781188906 0.1038877395718562 0.6289297578166635	0.100369
F	0.2570004427913636 0.1455761400536590 0.3777467785514634	-0.618374
F	0.1563003187847141 0.2998654372009325 0.3786909836831280	-0.612463
F	0.3379963909706395 0.3098820692952658 0.3787417560612195	-0.615518
F	0.6901194753819913 0.6620160340574996 0.1212887394630215	-0.615632
F	0.7001426949466830 0.8437022643546190 0.1213168295285013	-0.612591
F	0.8544267779798519 0.7429902190524296 0.1222585337047808	-0.618482
F	0.6563202068785247 0.7998861333879168 0.6213101427941968	-0.612624
F	0.7569842758071885 0.6455716081101438 0.6222623098143898	-0.618469
F	0.8380100348250326 0.8098439745361014 0.6212730543846344	-0.615612
F	0.1901255347034541 0.1620111480444965 0.8787213785906480	-0.615524
F	0.3544287592147251 0.2429939246520111 0.8777436651434638	-0.618457
F	0.2001258162466779 0.3436987453199308 0.8786856541055321	-0.612536
F	0.2491138220528386 0.2499500908086761 0.2544940975769677	-0.575570
F	0.2492442287526948 0.2493216069870381 0.5023227602390391	-0.575948
F	0.7500633764320864 0.7508865260910339 0.2454841846941785	-0.575575
F	0.7506670053081368 0.7507346241914092 -0.0023021655770130	-0.576032
F	0.7491182027185479 0.7499362975887255 0.7454925439489217	-0.575629
F	0.7492776724639436 0.7493227398041760 0.4976921642983439	-0.576058
F	0.2500595914845862 0.2508717591719830 0.7545157399341245	-0.575507
F	0.2506557548638376 0.2507499533292909 0.0023075217137969	-0.576015
Ni	0.2497764799861303 0.2504241062007295 0.1284655583681567	0.772818
Ni	0.7495752353976167 0.7502251931203285 0.3715302146820352	0.772850
Ni	0.7497704445457318 0.7504217065744372 0.8715327098698348	0.772802
Ni	0.2495718698582915 0.2502248799449726 0.6284695619839746	0.772683
Fe	0.2503121930536478 0.2510226938793396 0.3784716255891919	1.543163
Fe	0.7489821090964652 0.7496896776486853 0.1215358170521416	1.543414
Fe	0.7503158862508553 0.7510175699137610 0.6215167110525316	1.543394
Fe	0.2489779164548371 0.2496906531659710 0.8784711813700177	1.543243
	  	
