#======================================================================

# CRYSTAL DATA

#----------------------------------------------------------------------

data_VESTA_phase_1


_pd_phase_name                         FeFFIVE_2_Co_i
_cell_length_a                         13.74830
_cell_length_b                         13.74871
_cell_length_c                         8.21613
_cell_angle_alpha                      90.00899
_cell_angle_beta                       90.00249
_cell_angle_gamma                      89.75951
_symmetry_space_group_name_H-M         P 1
_symmetry_Int_Tables_number            1

loop_
_symmetry_equiv_pos_as_xyz
   x, y, z

loop_
   _atom_site_label
   _atom_site_fract_x
   _atom_site_fract_y
   _atom_site_fract_z
   _atom_site_charge
C	0.0002466399004320 0.3023464628216967 0.3525091821072399	-0.156346
C	0.0005749228243723 0.2018102065321717 0.3581823837267008	0.090753
C	0.5002230321789610 0.7987002587519503 0.8538240812562313	-0.158557
C	0.5000697599288558 0.6976767848467098 0.8588405713246912	0.085514
C	-0.0001064229935712 0.6981599191185170 0.3525213893929464	-0.162564
C	-0.0009170215353553 0.7986732011298279 0.3583798721909270	0.099520
C	0.4999484161527712 0.2019226584803687 0.8537333389336127	-0.160683
C	0.4996796749699950 0.3029352703913716 0.8589189537025180	0.094388
C	0.6983185746736709 -0.0000788649570982 0.3524944800882158	-0.162803
C	0.7988344830371822 -0.0008822209689098 0.3583347125556651	0.100289
C	0.2019501261919161 0.4999351976671987 0.8537421285947867	-0.161039
C	0.3029687957440809 0.4996605564726139 0.8589259330391702	0.094936
C	0.3024955663271391 0.0002511620367686 0.3525276645251784	-0.157593
C	0.2019531984543660 0.0005910733583340 0.3581983904326471	0.090072
C	0.7987128124922157 0.5002071796096660 0.8538189307535932	-0.158563
C	0.6976863497825182 0.5000490469177782 0.8588526818517808	0.085890
C	0.0002455204961223 0.3023815047596634 0.6474497649187076	-0.157033
C	0.0005651105964868 0.2018456294060939 0.6417564363260293	0.090992
C	0.5002209288705772 0.7987242502260087 0.1461985328925343	-0.158275
C	0.5000653662213310 0.6977001386456272 0.1411630038381090	0.085635
C	-0.0000881544888095 0.6981872317095418 0.6475644866057370	-0.162463
C	-0.0009025343340847 0.7986998787947381 0.6417211988718571	0.099802
C	0.4999489047740942 0.2019439808608521 0.1462531857199467	-0.161017
C	0.4996797916213427 0.3029565467425240 0.1410799955938722	0.094892
C	0.3025093983040166 0.0002589694116559 0.6474508479955192	-0.157650
C	0.2019611643116792 0.0005954140560492 0.6417595041001511	0.089876
C	0.7987204309683019 0.5002041391303960 0.1461831697810752	-0.158557
C	0.6976942512738934 0.5000462237760206 0.1411520114610457	0.085819
C	0.6983315228143679 -0.0000602129440423 0.6475338829658496	-0.162537
C	0.7988451589690840 -0.0008640779823861 0.6417090713563411	0.100187
C	0.2019606784633648 0.4999360042683120 0.1462563335331588	-0.161285
C	0.3029782022604496 0.4996604220347825 0.1410667069074055	0.095335
C	0.0003017688960903 0.4560563770302704 0.4999857467985757	-0.091656
C	0.0004117801339503 0.3541334023208095 0.4999798191337636	0.156448
C	0.5005209929533532 0.9557997518263097 0.0000124765823319	-0.088370
C	0.5004468577894566 0.8525054510112546 0.0000125405891377	0.157501
C	0.0006819745697612 0.5444434605859771 0.5000138661675061	-0.100282
C	0.0003173255611875 0.6463634859635834 0.5000437323413117	0.161580
C	0.5005449573272626 0.0448693141704003 0.9999891502956954	-0.099068
C	0.5003732114153140 0.1481243830166033 0.9999928191322095	0.161174
C	0.5445875219478576 0.0006288111772074 0.5000079513759998	-0.099796
C	0.6465130895782315 0.0003111209639442 0.5000114998751962	0.161612
C	0.0448890806697001 0.5005399927637062 0.9999950982186074	-0.099692
C	0.1481387568569190 0.5003613766407035 0.0000011972113399	0.161178
C	0.4562017154100355 0.0002450174332838 0.4999980629470110	-0.092961
C	0.3542732277850861 0.0003909991555666 0.4999946165765430	0.158235
C	0.9558116179057448 0.5005103445707557 0.0000034061748224	-0.088230
C	0.8525189304840320 0.5004326330522774 0.0000010848570231	0.157428
H	0.9994880747141383 0.3402222534063157 0.2361826421382812	0.120223
H	0.9993813073603305 0.1591595216898798 0.2465645542392054	0.106656
H	0.4997232648300438 0.8350875929041990 0.7361417500314458	0.121908
H	0.4985425283309277 0.6559248275791012 0.7463625622776709	0.108107
H	0.9998588053597145 0.6599476726457841 0.2365008920954872	0.121075
H	0.9973546608978746 0.8422439270523705 0.2477519851312039	0.100906
H	0.4994580167239844 0.1651884908171681 0.7363482848695146	0.121677
H	0.4979944650367647 0.3457526100860464 0.7476188584064439	0.101910
H	0.6601333283706253 0.9998642719809839 0.2364423472214206	0.121251
H	0.8423837334127533 0.9973623767416279 0.2477081796883193	0.100842
H	0.1652375374271988 0.4994415558641698 0.7363442641390947	0.121629
H	0.3458009469283838 0.4979676517022802 0.7476388332530269	0.101741
H	0.3403924016769764 0.9994976312502395 0.2361930116276263	0.120564
H	0.1592902347407818 0.9994596398329857 0.2465982976060243	0.107116
H	0.8350887766153777 0.4997047600899164 0.7361190350134715	0.121780
H	0.6559250177523772 0.4985201539315500 0.7464030249492671	0.108033
H	0.9994753233077384 0.3402905861883412 0.7637501921731753	0.120499
H	0.9993592612631589 0.1591974325230529 0.7533869043666526	0.106648
H	0.4997210050481756 0.8351287899605454 0.2638798076704360	0.121673
H	0.4985400089109893 0.6559611989595139 0.2536353506857353	0.108039
H	0.9998680920641443 0.6600022303630468 0.7636179219348133	0.120917
H	0.9973563107274004 0.8422745163719038 0.7523348194598846	0.100757
H	0.4994557680454471 0.1652264620288595 0.2636310480583457	0.121716
H	0.4979892920938419 0.3457863262627408 0.2523886757031416	0.101645
H	0.3404023840560778 0.9994902251736411 0.7637702353065161	0.120595
H	0.1593000375270761 0.9994577479994144 0.7533785601618788	0.107191
H	0.8351052234363454 0.4997023026273584 0.2638799204550689	0.121750
H	0.6559418325979032 0.4985182021768629 0.2536030177889907	0.108058
H	0.6601416744216922 0.9998735121462162 0.7636048892340476	0.121098
H	0.8423837712057061 0.9973705908176995 0.7523274829954764	0.101023
H	0.1652531693047683 0.4994421463655454 0.2636540266781919	0.121649
H	0.3458156571589230 0.4979672490015412 0.2523560536891390	0.101551
Co	0.0005130368424976 0.0004309061553866 0.5000004319757787	0.591907
Co	0.5003279867451257 0.5003102323703762 -0.0000102974570880	0.597201
Fe	-0.0006738283049179 0.9998576063399730 -0.0000208216451073	1.486733
Fe	0.4997173375572034 0.4997221974896284 0.4999701631037711	1.490357
N	0.0010561952011789 0.1524431209992810 0.4999701415379397	-0.184377
N	0.5001936806141869 0.6467690838476090 0.0000002609034600	-0.179583
N	-0.0010628920556429 0.8481818983586656 0.5000539332739148	-0.185144
N	0.5000555190316853 0.3539571927535312 0.0000011434661497	-0.180845
N	0.8483335277905775 -0.0010594911220912 0.5000261148477568	-0.186069
N	0.3539958912654919 0.5000375407030550 -0.0000034277939986	-0.181007
N	0.1525573602180487 0.0010599834651546 0.4999747187099006	-0.183544
N	0.6467643312580597 0.5001737276491526 0.0000025919819043	-0.179669
F	0.0008801222097050 0.0006212150159110 0.7569151083552266	-0.570029
F	0.5007169146599445 0.5007003600883783 0.2636037146888646	-0.565702
F	0.0008089670129074 0.0004143049028900 0.2430267944336061	-0.569995
F	0.5006501433660844 0.5006136268222566 0.7363592667120972	-0.565750
F	0.6302667194494675 0.4622834499499622 0.4999954932131520	-0.580372
F	0.4623450939172460 0.6302635168976359 0.5000454757044180	-0.580307
F	0.4041052251288654 0.4042239168189312 0.4998658400418231	-0.591425
F	0.9039065532149467 0.9056801255665883 -0.0003244119277715	-0.584999
F	0.9617227943974774 0.1290863994240975 0.0002726752707442	-0.574110
F	0.1290499475964814 0.9636047351752667 0.0000118409342035	-0.575531
	  	
