#======================================================================

# CRYSTAL DATA

#----------------------------------------------------------------------

data_VESTA_phase_1


_pd_phase_name                         FeFFIVE_13_Cu_i
_cell_length_a                         15.15147
_cell_length_b                         15.15077
_cell_length_c                         8.15114
_cell_angle_alpha                      90.38313
_cell_angle_beta                       89.57679
_cell_angle_gamma                      89.88847
_symmetry_space_group_name_H-M         P 1
_symmetry_Int_Tables_number            1

loop_
_symmetry_equiv_pos_as_xyz
   x, y, z

loop_
   _atom_site_label
   _atom_site_fract_x
   _atom_site_fract_y
   _atom_site_fract_z
   _atom_site_charge
C	0.5394589608864455 0.6810106393511595 0.8736538728643148	0.110552
C	0.5429613240535449 0.7727640680952833 0.8717445967990100	-0.146380
C	0.4637126320262385 0.3217890431544773 0.8798269778600485	0.106588
C	0.4604166029177756 0.2300167348854130 0.8803685671998848	-0.140946
C	0.8218692160655620 0.9730894281193310 0.3659303317452534	0.107903
C	0.7302205022144714 0.9705365282315135 0.3626782926451952	-0.136087
C	0.3223403086942685 0.5416396693453428 0.8718946601738640	0.108281
C	0.2305482593153181 0.5452462963207269 0.8687568219467601	-0.149325
C	0.1819375420336248 0.9745741749628334 0.3608674798939394	0.095193
C	0.2736002031146190 0.9724402941142674 0.3589239031044474	-0.134392
C	0.6811192768698426 0.4643713975291234 0.8815585611244803	0.105154
C	0.7728215062220157 0.4610304396622611 0.8814677769824378	-0.139315
C	0.4572210982069468 0.6820667303880499 0.1162457876178515	0.106675
C	0.4535234492472608 0.7737698185992361 0.1178214947464477	-0.137493
C	0.5397455962506672 0.3246096391561387 0.1275209666739671	0.107905
C	0.5425321316518543 0.2328327114028545 0.1328539710203822	-0.148648
C	0.1788553621263262 0.0175074182226279 0.6358987155339463	0.108299
C	0.2703842825143842 0.0201430583400025 0.6423285240408987	-0.133869
C	0.6783582751357935 0.5423481143053164 0.1288561848058473	0.111228
C	0.7701102683065290 0.5461080307425998 0.1326912831392458	-0.145992
C	0.8208488164337343 0.0277849870629911 0.6337180907132115	0.104375
C	0.7292328813141979 0.0286816224153839 0.6396240597340775	-0.137035
C	0.3203367038187664 0.4599510208187558 0.1133652325411130	0.107024
C	0.2285743580201987 0.4570881930374904 0.1142859974052565	-0.140316
C	0.9673166613857254 0.8196474091639543 0.6325832157081847	0.108621
C	0.9653849373564114 0.7279106647071448 0.6369592926835619	-0.136875
C	0.9848536995227399 0.1787687939693242 0.6376106762116072	0.092717
C	0.9818944597768734 0.2703113698943305 0.6408657763110580	-0.135970
C	0.0211074975655134 0.8181526341399901 0.3641480936881580	0.103936
C	0.0228327297643349 0.7265915155656971 0.3594956959599412	-0.136883
C	0.0268798244830269 0.1771257574754147 0.3620526083490018	0.109592
C	0.0285754704768094 0.2687842599237813 0.3567485257423159	-0.134776
C	0.0043019339977013 0.3163229877993352 0.4981540731635725	0.043020
C	0.0018935045601913 0.4130200321829193 0.4979914363790495	0.256044
C	0.4984046017836118 0.8200296514794158 0.9949575003196951	0.057419
C	0.4993454614888587 0.9175033877877008 0.9993623054797683	0.248503
C	0.9948064733008699 0.6804012064472562 0.4987792207927210	0.040324
C	0.9970305890284377 0.5835047958355118 0.4989362490691008	0.247886
C	0.5012383092134645 0.1846786306691353 0.0082323889474562	0.057708
C	0.5007030371848976 0.0871244684037128 0.0091674510131775	0.249780
C	0.6829138997442158 -0.0009030684506362 0.5016949742633789	0.040865
C	0.5860417104617174 0.9974964104780378 0.5033371288217381	0.247077
C	0.1828171404290945 0.5015266262730779 0.9911594989092919	0.058978
C	0.0853302814425591 0.5024818716204371 0.9941272904582337	0.250254
C	0.3187971362541708 0.9963187849400945 0.5017426791235184	0.040298
C	0.4155208061997844 0.9962667698914204 0.5036229504588124	0.256770
C	0.8181959421952454 0.5037040285519556 0.0079691912344029	0.056542
C	0.9157244787682647 0.5035841766949953 0.0061171274187480	0.248707
H	0.5687162161186641 0.6406772275509158 0.7763994273339507	0.107134
H	0.5787577661809660 0.8064703922333145 0.7742603728859355	0.123703
H	0.4369531242698673 0.3602134558002234 0.7786167500796544	0.112679
H	0.4289882431442999 0.1941192215877278 0.7804755263305783	0.120034
H	0.8615885851063360 0.9525757215065852 0.2601764148700943	0.110320
H	0.6964995898273256 0.9472130325562806 0.2532185912136256	0.122388
H	0.3630040039910993 0.5715201813239807 0.7761221164529007	0.106858
H	0.1971900301319551 0.5806772446914340 0.7711548895170316	0.125369
H	0.1448223210073494 0.9607043475081767 0.2494556891747664	0.109221
H	0.3084255523444879 0.9539002708647397 0.2465109345679747	0.117672
H	0.6425781273969431 0.4376693752930118 0.7803069942906021	0.114144
H	0.8087274376165287 0.4284119609963393 0.7818931749955939	0.119398
H	0.4290420903002289 0.6429270204057602 0.2154051273167669	0.114106
H	0.4195324216449622 0.8089155408347838 0.2166709646382926	0.118445
H	0.5676387127096498 0.3656188258407474 0.2247105400091692	0.106665
H	0.5751611709339357 0.1998196272287615 0.2341476869041490	0.124930
H	0.1382742880077997 0.0312741307049324 0.7436758715588887	0.109601
H	0.3029960292081491 0.0389524985487067 0.7558105479990204	0.120826
H	0.6375349448575319 0.5694422263871343 0.2275380846806724	0.108094
H	0.8030375840692434 0.5801392043349435 0.2331474584043772	0.124035
H	0.8601641212816555 0.0472496737419704 0.7390557930530394	0.101544
H	0.6948661892447874 0.0506352028396663 0.7503547846363393	0.122054
H	0.3591012715732594 0.4309668881814356 0.2118843678040211	0.112249
H	0.1929312528716114 0.4237491687906464 0.2124080381678296	0.118247
H	0.9470041892437773 0.8594609640453988 0.7383862339127214	0.110872
H	0.9426421522264905 0.6944468879996768 0.7472119460013588	0.122339
H	0.9714048751260567 0.1410369051236995 0.7484913193448073	0.108658
H	0.9632902852337610 0.3044846051147717 0.7538492780272243	0.120887
H	0.0397651234432309 0.8573462066824723 0.2580886602714054	0.101090
H	0.0449679801001774 0.6921383104579398 0.2490497055913724	0.120139
H	0.0406563175647865 0.1370452465417946 0.2536416920262850	0.110063
H	0.0464480453491631 0.3021034986612046 0.2433401396946671	0.120890
N	0.9484709426716116 0.5407591874338671 0.6133897023854841	-0.135535
N	0.4212220088540759 0.0467517091005836 0.0093125760561125	-0.148005
N	0.5433624080965765 0.0465474234710891 0.6185010669761217	-0.138176
N	0.9565766221831946 0.4241935592240557 0.0023706760856014	-0.141953
N	0.0482012709444624 0.5426793648080085 0.3845530390714997	-0.136072
N	0.5794303586520648 0.0451448432167600 0.0102078837030738	-0.150851
N	0.9571962506543158 0.5823925298914268 0.0048421750752884	-0.146984
N	0.5451898151102789 0.9461976737899375 0.3906123364168655	-0.134089
N	0.0511499717134843 0.4558115258278979 0.3848365787405676	-0.132128
N	0.5787510622163824 0.9578870402397853 0.0006935050444705	-0.147041
N	0.4583118118721587 0.9455389434847183 0.3911926629444229	-0.128394
N	0.0444289590683578 0.5817997667769984 0.9945771831162761	-0.151458
N	0.9505140591827316 0.4538732302461191 0.6119671104556573	-0.129766
N	0.4206612457686170 0.9594598822669751 0.0080749469969180	-0.141357
N	0.0438665222052528 0.4236248492976268 0.9996912976960479	-0.149093
N	0.4564336920497342 0.0460497454594231 0.6183454202960392	-0.134336
N	0.0054898035832953 0.1333724942941510 0.4999540643229036	-0.210779
N	0.4985882805344082 0.6370044006921015 0.9951467949174561	-0.220727
N	0.9952396146715643 0.8635031574744878 0.4986918747996645	-0.208094
N	0.5017348521443057 0.3676199383217998 0.0025070014748831	-0.218728
N	0.8659274416027303 0.0010983673489858 0.4994057294830737	-0.207553
N	0.3657709639350291 0.5006960040581775 0.9931877030463445	-0.218076
N	0.1358177883521136 0.9957318533052905 0.4975144051025102	-0.211086
N	0.6352114128904123 0.5033100670265035 0.0043425267172359	-0.222462
Cu	0.0008613014378194 0.9985334965032354 0.4988005677937002	0.721948
Cu	0.5004781108165303 0.5023337378254572 0.9986996594024203	0.737562
Fe	0.9970815360294747 0.9951604800854628 0.9988589008921329	1.501365
Fe	0.4968478367264365 0.5002539082552745 0.4989320104391204	1.518122
F	0.0005455711171889 -0.0024593331564830 0.2351050134920528	-0.599069
F	0.5064915869057341 0.4961981569934404 0.7360634289230455	-0.609366
F	-0.0015982141293694 0.9975043569368107 0.7625190834413905	-0.598684
F	0.4919406616288878 0.5078832881364636 0.2616493790515176	-0.610286
F	0.9095829165835094 0.9084264271529908 0.0002859788953965	-0.596621
F	0.4122961832811480 0.4100291317813622 0.4999371234892643	-0.617169
F	0.9630272279188813 0.1141043545380230 0.9985655847669970	-0.593581
F	0.4574838034312034 0.6176336798934089 0.5174118256056611	-0.621215
F	0.1157018351409633 0.9600984784202512 -0.0021308765694174	-0.593383
F	0.6166922292034230 0.4687439284912042 0.4803475068787109	-0.621449
	  	
