#======================================================================

# CRYSTAL DATA

#----------------------------------------------------------------------

data_VESTA_phase_1


_pd_phase_name                         FeFFIVE_18_Cd
_cell_length_a                         14.46869
_cell_length_b                         14.35477
_cell_length_c                         8.15489
_cell_angle_alpha                      90.01102
_cell_angle_beta                       95.02863
_cell_angle_gamma                      89.89772
_symmetry_space_group_name_H-M         P 1
_symmetry_Int_Tables_number            1

loop_
_symmetry_equiv_pos_as_xyz
   x, y, z

loop_
   _atom_site_label
   _atom_site_fract_x
   _atom_site_fract_y
   _atom_site_fract_z
   _atom_site_charge
F	0.5034054797197558 0.3453029980891640 0.5022834788461088	-0.586862
F	0.5308385039837960 0.4820378142521997 0.7334244666315604	-0.571751
F	0.3833755535923486 0.5323286147594687 0.5288057455676816	-0.563446
F	0.0034656288268751 0.8453488680737957 0.5020581524475048	-0.586651
F	0.0310437648997589 0.9818601820706778 0.7332153806655273	-0.571470
F	0.8834593369853445 0.0324288654585709 0.5287036481452339	-0.564010
F	0.6115300939231942 0.5399749589282242 0.4730018263833154	-0.564170
F	0.4681181020607920 0.4792581680855974 0.2694185248065542	-0.571895
F	0.1117958064523834 0.0401265602643677 0.4729428498536180	-0.564418
F	0.9682321846920108 0.9794677178368427 0.2694235764286012	-0.571309
C	0.6801734506492859 0.1702554331064481 0.6606912881570389	-0.420186
C	0.7502940401960663 0.1607553343534301 0.8045384881665999	0.201004
C	0.7522988708168497 0.1982274061816023 0.9634989482584330	-0.151196
C	0.6843283007549483 0.2599273270604686 0.0293683933373069	-0.143912
C	0.6727988764097188 0.3564636900020033 0.9969534465838059	0.212615
C	0.7252823578496317 0.4161925365784024 0.8879986381889161	-0.428373
C	0.8748505090681516 0.1885097257759837 0.2179635399291253	-0.434592
C	0.8371608316657209 0.1676645183160148 0.0460141722250963	0.210495
C	0.6201995598153669 0.2383616702640878 0.1428106775162634	0.204488
C	0.5984802609666952 0.1481647114478636 0.2210179584330955	-0.426503
C	0.1801410147902889 0.6702435393186524 0.6605768144956548	-0.419903
C	0.2502271855542966 0.6607066103943600 0.8044743391107239	0.201230
C	0.2522249650238201 0.6982140878480184 0.9633893903186874	-0.151370
C	0.1843066729929327 0.7599097132284950 0.0293786619394937	-0.143969
C	0.1728591653052681 0.8564842160388130 0.9970284651925141	0.212719
C	0.2253920187961020 0.9162139901121358 0.8881207059364404	-0.428401
C	0.3748172148629998 0.6885446685882806 0.2178074393051241	-0.434191
C	0.3371065251629372 0.6676713518475074 0.0458716820263299	0.210669
C	0.1202120830009661 0.7383285588007952 0.1428664475067300	0.204559
C	0.0984937444061012 0.6481218568946808 0.2209115245363897	-0.426208
C	0.3216459133911048 0.1672617653480279 0.3365871865309971	-0.423228
C	0.2503728137593914 0.1600313486667303 0.1940381364520913	0.202304
C	0.2483594122580575 0.1968784653013124 0.0345723031065689	-0.151935
C	0.3162995172320986 0.2586018162165352 0.9692885559904129	-0.144262
C	0.3274855701875387 0.3548796801672718 0.0049348831086671	0.214608
C	0.2730881184891581 0.4136200620732976 0.1131372329226461	-0.428572
C	0.1233604416103361 0.1909479276244575 0.7834886876590941	-0.434643
C	0.1620749680193965 0.1688479933644413 0.9543234795244797	0.212463
C	0.3808130914059508 0.2381718168373559 0.8558654743291971	0.202362
C	0.4034497274072952 0.1489814609887171 0.7747522083793210	-0.425958
C	0.8216657098963580 0.6672839176695372 0.3366138150977098	-0.423077
C	0.7504097577230932 0.6600506126715419 0.1940925852257820	0.202300
C	0.7483597378445047 0.6968827334370995 0.0346130211937718	-0.152312
C	0.8163052050408111 0.7585960583484983 0.9692780683844797	-0.144132
C	0.8275306362881567 0.8548649255820653 0.0050133240771547	0.215103
C	0.7731300055984386 0.9135924068963205 0.1132439256605376	-0.429359
C	0.6233564646436605 0.6909480874636125 0.7835589989296402	-0.434903
C	0.6620650131580749 0.6688463882850099 0.9544137527618374	0.212678
C	0.8808589149077556 0.7381534161957324 0.8559346396621851	0.202708
C	0.9035139459620465 0.6489696751627857 0.7748302869836513	-0.426079
H	0.7130511488677513 0.1877927359816087 0.5482615402239838	0.144937
H	0.6302577116989038 0.2254955318084998 0.6827088873743706	0.143538
H	0.6415292397541407 0.1048980130910965 0.6365906804930824	0.131268
H	0.6800143244824798 0.4421222054500939 0.7826233163071949	0.149224
H	0.7822348852711053 0.3759463399815953 0.8421623366123857	0.132777
H	0.7544456202361605 0.4772980310963624 0.9554339691732464	0.132011
H	0.8520272038899041 0.0750894486389321 0.6988601210287471	0.284838
H	0.8652132000673802 0.1298317271685024 0.3013195302651126	0.144955
H	0.8390505284151356 0.2496595968091970 0.2633346589611389	0.132697
H	0.9495909560740282 0.2031312439753836 0.2241470288256137	0.138901
H	0.5694993589360473 0.1591577447976066 0.3394526009036576	0.140552
H	0.6613354180944224 0.1051881615686331 0.2415007937696489	0.149492
H	0.5473884131467888 0.1079300939535839 0.1419216770992753	0.132940
H	0.5304360620640592 0.3316884277131966 0.2588081679626046	0.275573
H	0.2130486930260732 0.6877734959494441 0.5481427858443190	0.144695
H	0.1302341054949226 0.7254996395427254 0.6826775422101043	0.143441
H	0.1414774317723244 0.6048976194194133 0.6364536996566776	0.131228
H	0.1801652056761966 0.9421659783868280 0.7828021973473982	0.149080
H	0.2823478431852784 0.8759788544609803 0.8424481162342917	0.132940
H	0.2545088644133023 0.9772882850098941 0.9556813033409540	0.132396
H	0.3519897635458512 0.5750657371322037 0.6987978751459882	0.284803
H	0.3652079578533594 0.6298216619104190 0.3012689719351384	0.144735
H	0.3390324421527689 0.7496933883922777 0.2633021252807837	0.132685
H	0.4495735010368614 0.7032031935261007 0.2238785057784390	0.138705
H	0.0694820360566610 0.6590863493546064 0.3393072222492044	0.140487
H	0.1613256256207210 0.6051379304463320 0.2414989344102695	0.149572
H	0.0473946605222889 0.6079097600650043 0.1417001966632248	0.132924
H	0.0305149058834651 0.8316364336943454 0.2589990892938990	0.275229
H	0.2892654465327210 0.1803728620933278 0.4512905908290045	0.145683
H	0.3698959724808575 0.2244392522132886 0.3180533132201501	0.143800
H	0.3622797265961513 0.1024530618510070 0.3536514514738415	0.132610
H	0.3176052328367497 0.4442935620428238 0.2148940540542684	0.150243
H	0.2196114712024562 0.3711156316468311 0.1646183467563051	0.132487
H	0.2386266796465655 0.4712730292485038 0.0428346007473919	0.131766
H	0.1462804312945630 0.0798574133738632 0.3037879769623073	0.284263
H	0.1306110950092796 0.1323287423958156 0.6987295387106880	0.147131
H	0.1599302095207778 0.2512796757178425 0.7374838841611908	0.132374
H	0.0491138567432013 0.2075995367795583 0.7805704578839863	0.138349
H	0.4334390289084401 0.1615218595811570 0.6577356397897313	0.141159
H	0.3409453035798125 0.1061051660438441 0.7508837327388911	0.149314
H	0.4541612469627766 0.1080173965320478 0.8537500881485132	0.132959
H	0.4718056167430568 0.3321725540003958 0.7456287134215747	0.273922
H	0.7893000533239133 0.6804388524517144 0.4512971853471435	0.145816
H	0.8699958929839037 0.7243890042035991 0.3180122056127862	0.143658
H	0.8622175373198652 0.6024177732447346 0.3536301721389364	0.132720
H	0.8176419271361308 0.9442493312102751 0.2150496535959683	0.150203
H	0.7196305689249213 0.8710911972908071 0.1645656423927262	0.132707
H	0.7386958475485876 0.9712846891510489 0.0429953307710376	0.132338
H	0.6462816273607755 0.5799390875910441 0.3038839397292952	0.284416
H	0.6305661437723558 0.6322822058819745 0.6988065735989135	0.147026
H	0.6600030882466887 0.7512139102860087 0.7375413606481465	0.132396
H	0.5491111242700900 0.7076960920804166 0.7805387608658747	0.138489
H	0.9334425917160980 0.6615593931048898 0.6577766064585413	0.141071
H	0.8410139859917095 0.6060998816906449 0.7508954947439133	0.149272
H	0.9542846819535205 0.6079925098110698 0.8537591523373641	0.133046
H	0.9719003417482597 0.8321752361138235 0.7457897206800721	0.274153
N	0.8291342583576470 0.1107349683557580 0.7992502777202913	-0.151160
N	0.6059510169901653 0.3910741858740011 0.0840252750989398	-0.259564
N	0.8828927510939982 0.1146521466505603 0.9437401265222336	-0.258696
N	0.5747631800129626 0.3185580521059502 0.1702570888115836	-0.148851
N	0.3291272133409132 0.6107246393620597 0.7992255924606708	-0.151425
N	0.1060377835881278 0.8910775563089519 0.0841795467206620	-0.260387
N	0.3828870404055254 0.6146858991125009 0.9436795579233064	-0.258478
N	0.0748299738140924 0.8185330542885952 0.1704192185378278	-0.148691
N	0.1701880664543720 0.1130006335726468 0.2018384831385039	-0.152376
N	0.3948390920215651 0.3902589557014307 0.9201564838105448	-0.258902
N	0.1155220811714571 0.1179327624129354 0.0583645601410913	-0.262990
N	0.4263052479045777 0.3185967329335468 0.8318894045547776	-0.148370
N	0.6702171844785694 0.6130116696789726 0.2019168011912063	-0.152544
N	0.8949242365388841 0.8902252033178972 0.9202986546681327	-0.259185
N	0.6154981512435607 0.6179525264227135 0.0584630757837911	-0.262516
N	0.9263902925393052 0.8185612802366597 0.8320007854159717	-0.148567
Fe	0.4994348895789131 0.4768383628513132 0.5013240040528889	1.515419
Fe	-0.0003520533259087 0.9767708019427336 0.5011045565782615	1.515428
Cd	0.5002863357267617 0.5097432140877088 0.0021064920748610	0.866390
Cd	0.0003626754242935 0.0096847945485485 0.0019732876654277	0.866413
	  	
