#======================================================================

# CRYSTAL DATA

#----------------------------------------------------------------------

data_VESTA_phase_1


_pd_phase_name                         FeFFIVE_18_Zn
_cell_length_a                         14.04150
_cell_length_b                         14.02093
_cell_length_c                         8.01295
_cell_angle_alpha                      89.72799
_cell_angle_beta                       95.65173
_cell_angle_gamma                      89.89784
_symmetry_space_group_name_H-M         P 1
_symmetry_Int_Tables_number            1

loop_
_symmetry_equiv_pos_as_xyz
   x, y, z

loop_
   _atom_site_label
   _atom_site_fract_x
   _atom_site_fract_y
   _atom_site_fract_z
   _atom_site_charge
F	0.5011626546294516 0.3432387560024312 0.5068522247901157	-0.575019
F	0.5216142304454577 0.4911872361404072 0.7412980036233617	-0.558071
F	0.3750831603324765 0.5250931661285203 0.5155156915573784	-0.558232
F	0.0012532016460842 0.8430274691676740 0.5068203309647840	-0.574579
F	0.0215586785885426 0.9913010357832106 0.7416829524009475	-0.557751
F	0.8750114153450931 0.0248784316653742 0.5157330130264489	-0.558853
F	0.6227400616358436 0.5280047283889461 0.4864653522584685	-0.557078
F	0.4777294101504683 0.4874640723129373 0.2622685460872544	-0.559057
F	0.1227590822601392 0.0279757908193895 0.4865128306907035	-0.557348
F	0.9778108147436205 0.9874663476100047 0.2622204519618924	-0.558841
C	0.6816712373909779 0.1638698621395653 0.6571966653901127	-0.422811
C	0.7538718845637753 0.1552497498484595 0.8054127810154023	0.201641
C	0.7582057207770406 0.1980293199366264 0.9635341282313844	-0.151228
C	0.6885665122377947 0.2629459884087397 0.0253580043431908	-0.146072
C	0.6743366441740760 0.3608657341977031 0.9849791475663947	0.214681
C	0.7283286373396215 0.4212505362948632 0.8730301114902249	-0.427632
C	0.8843779850815092 0.1913323611590564 0.2242001434381377	-0.432357
C	0.8449203391557852 0.1657092680595900 0.0510038718970846	0.214682
C	0.6223110426320397 0.2413575991554905 0.1397984425941790	0.206511
C	0.6000376535250705 0.1497258363725045 0.2220712551870427	-0.427806
C	0.1815593908218336 0.6638914693369868 0.6571951603504139	-0.422555
C	0.2537954040114781 0.6552869694039234 0.8053179024583766	0.201793
C	0.2581529711329753 0.6980873618406148 0.9634133819243871	-0.151246
C	0.1885259119273476 0.7629586276164592 0.0253897984154614	-0.145846
C	0.1743572288253239 0.8609028300825401 0.9851073823044996	0.214242
C	0.2283881809273528 0.9212974082607931 0.8732030845457818	-0.428091
C	0.3844491657701298 0.6913950696091983 0.2239504053687363	-0.431954
C	0.3449289058498911 0.6658001246909645 0.0507606862193224	0.214042
C	0.1223014691141317 0.7413301022529830 0.1398590859336452	0.206817
C	0.1000559322250706 0.6496686068582838 0.2220288859543878	-0.428046
C	0.3176064956201279 0.1652276582954771 0.3422982408156598	-0.422607
C	0.2453710644191273 0.1558545069743818 0.1945869496619021	0.202575
C	0.2418701245293228 0.1970833664849818 0.0346566028079218	-0.151538
C	0.3126467791726725 0.2608237935366012 0.9729012878593620	-0.147164
C	0.3274618288655242 0.3581295655848343 0.0154168212203402	0.215083
C	0.2713257931470931 0.4178584000367710 0.1245015417248466	-0.428875
C	0.1141079340991725 0.1937308225836070 0.7761688170931197	-0.431532
C	0.1541346464777490 0.1669180240975252 0.9490880517386978	0.216249
C	0.3797405376173496 0.2396910532228640 0.8599348891001730	0.204020
C	0.4020403773209972 0.1492935502252400 0.7747290763759832	-0.426455
C	0.8175952191729343 0.6651213768194939 0.3422540645080486	-0.422717
C	0.7453928650742028 0.6558083684785732 0.1944770921596584	0.202523
C	0.7418956183784691 0.6970855755895508 0.0345859768703326	-0.151379
C	0.8126699369820654 0.7608471478939791 0.9729267626889059	-0.146925
C	0.8274658408277282 0.8581082470418715 0.0156501780843908	0.215339
C	0.7713178875759776 0.9177740082132855 0.1248004172808524	-0.429514
C	0.6141161560228875 0.6938323776848826 0.7761857757686805	-0.432143
C	0.6541344315649652 0.6669719242386885 0.9490877497278168	0.216005
C	0.8796918287843242 0.7396952746206333 0.8599013548425930	0.204164
C	0.9019722431281103 0.6493362168555312 0.7745501144142574	-0.426871
H	0.7157668407921176 0.1834673801162571 0.5443389720619829	0.145913
H	0.6286759337812289 0.2189518929671859 0.6781816931757780	0.140970
H	0.6438828033256239 0.0960634088122434 0.6309028316672934	0.134272
H	0.6811576482999728 0.4516430803311204 0.7688995126012974	0.147445
H	0.7841512715009994 0.3785961954573654 0.8219559111586217	0.132537
H	0.7628293974604262 0.4813446289136311 0.9427383094797955	0.131324
H	0.8548620884181067 0.0625119615361654 0.7049618872833878	0.280598
H	0.8677528188297886 0.1366927531331737 0.3155310904637980	0.142051
H	0.8530834106024728 0.2592154278777953 0.2595538932887325	0.131189
H	0.9624746445589870 0.1985251810043369 0.2326748305472005	0.139758
H	0.5648545127344382 0.1621804203814225 0.3363342650521701	0.142115
H	0.6654326619780846 0.1080258407937701 0.2548650716730529	0.150794
H	0.5518358755554889 0.1056648263004852 0.1376137234751652	0.133581
H	0.5259357266303706 0.3364136118006127 0.2459673247218556	0.272017
H	0.2155725512295914 0.6835402951761153 0.5443633280698930	0.145716
H	0.1286179103859527 0.7189648435219768 0.6781741989959356	0.140768
H	0.1437883614729582 0.5961167395962038 0.6308499609369922	0.134419
H	0.1812675350601542 0.9517130011546905 0.7690621629890101	0.147522
H	0.2841978534602824 0.8786114812175287 0.8222310604604381	0.132743
H	0.2628099689942268 0.9813785022799607 0.9430120580546562	0.131672
H	0.3549149291523690 0.5626515907316397 0.7047491663015203	0.279927
H	0.3678334835502363 0.6367949653838184 0.3154009025102261	0.142075
H	0.3531390545042288 0.7592736977241974 0.2594133107640894	0.130940
H	0.4625487789205853 0.6985833741725334 0.2324596790437666	0.139462
H	0.0647305657554172 0.6620222217726976 0.3361340200652199	0.142176
H	0.1654536479786501 0.6080086116913093 0.2547587646277394	0.150961
H	0.0519756125482412 0.6055922812158592 0.1374798854274857	0.133624
H	0.0258660716812357 0.8362858854294963 0.2459466354956241	0.271818
H	0.2826978401631939 0.1792664198209988 0.4564587271768968	0.145572
H	0.3664571448832663 0.2244899857480773 0.3236380532233761	0.141190
H	0.3607489236953711 0.0998820904889937 0.3646055835060932	0.133136
H	0.3175036497458604 0.4540793578566807 0.2227320328070091	0.148020
H	0.2199604319495528 0.3730672918973896 0.1834322576035758	0.133280
H	0.2308355680685458 0.4731722134899082 0.0496936889844841	0.131448
H	0.1428484896590561 0.0667362082980969 0.2992735202433801	0.280254
H	0.1270203019581604 0.1380517546244236 0.6851946945573711	0.142878
H	0.1480308386809980 0.2598429583802543 0.7383045607962748	0.130239
H	0.0364895919243488 0.2049553108642107 0.7704393449861758	0.140060
H	0.4379766183627593 0.1639145902963353 0.6618604060836045	0.141666
H	0.3367324845072885 0.1085610983564222 0.7385881460772001	0.150292
H	0.4496261952799073 0.1032897592428568 0.8577529511113695	0.133050
H	0.4771084096479829 0.3344937424965198 0.7565717736658583	0.270775
H	0.7826734908388261 0.6791468352171828 0.4563309467026224	0.145403
H	0.8664422196455367 0.7243693843879581 0.3236835727757156	0.141241
H	0.8606781973755014 0.5997807545945890 0.3645859183774386	0.133240
H	0.8175402963614673 0.9539133412639171 0.2229950357063327	0.148261
H	0.7200514889083544 0.8729258309564759 0.1837565301021888	0.133432
H	0.7309005788107800 0.9731101412839316 0.0500017771934325	0.132106
H	0.6427406338662623 0.5667777882245021 0.2992202539880076	0.279757
H	0.6268396319105908 0.6381084267588458 0.6851389136595833	0.142868
H	0.6482195275869080 0.7598936533468410 0.7383955163918448	0.130638
H	0.5365104168627384 0.7052391846243494 0.7703829030266293	0.140099
H	0.9379021731130008 0.6639735464720419 0.6616753432270492	0.142007
H	0.8366491015012987 0.6086093808253351 0.7386328965644497	0.150318
H	0.9496156673018039 0.6033159314644575 0.8574216606697392	0.133292
H	0.9770764815231168 0.8345279937111401 0.7566459512729437	0.270319
N	0.8331535387284561 0.1007068309225905 0.8053920183863389	-0.152668
N	0.6036905470717683 0.3961347158687479 0.0687641216061540	-0.245518
N	0.8894301030347737 0.1062504890868833 0.9524845197807307	-0.238018
N	0.5739846110884436 0.3229218377605577 0.1613790915022081	-0.148109
N	0.3330904557006951 0.6007766428031110 0.8051743715960212	-0.152377
N	0.1037410710313275 0.8961580290125770 0.0689990415050753	-0.244439
N	0.3893794527459307 0.6063171729990123 0.9522290862355700	-0.237061
N	0.0740064103070032 0.8229031020554816 0.1614864084535542	-0.148581
N	0.1649490920266288 0.1037321902072496 0.1973203806236215	-0.153568
N	0.3994323419245413 0.3934366104310418 0.9348010616007958	-0.247019
N	0.1084753132150545 0.1095107976788483 0.0502577326771364	-0.242463
N	0.4294728972183821 0.3208302076561895 0.8420912635949593	-0.145556
N	0.6649287210948164 0.6037316562115946 0.1972623045987640	-0.152741
N	0.8994216084223846 0.8934168463961443 0.9350840476226167	-0.247168
N	0.6084891357292578 0.6095206268339639 0.0502091085457930	-0.242350
N	0.9295358386270053 0.8208108445594202 0.8422872252531426	-0.145590
Fe	0.4996173438379798 0.4769899640247656 0.5022257937449800	1.502374
Fe	-0.0003541033984407 0.9767179803877355 0.5024346969431548	1.502122
Zn	0.5000829927044868 0.5077080627036216 0.0014518047700245	0.771614
Zn	0.0000920625536298 0.0074834278911243 0.0017075953529176	0.771715
	  	
