#======================================================================

# CRYSTAL DATA

#----------------------------------------------------------------------

data_VESTA_phase_1


_pd_phase_name                         FeFFIVE_5_Fe_i
_cell_length_a                         20.06089
_cell_length_b                         20.06189
_cell_length_c                         15.76836
_cell_angle_alpha                      89.99879
_cell_angle_beta                       89.99951
_cell_angle_gamma                      89.98164
_symmetry_space_group_name_H-M         P 1
_symmetry_Int_Tables_number            1

loop_
_symmetry_equiv_pos_as_xyz
   x, y, z

loop_
   _atom_site_label
   _atom_site_fract_x
   _atom_site_fract_y
   _atom_site_fract_z
   _atom_site_charge
F	0.2882257342148096 0.1650703922086816 0.3517105101224904	-0.595348
F	0.1597556349468388 0.2635622811162777 0.3508745609709814	-0.605302
F	0.3092437803917747 0.3225629710794492 0.3507078647693117	-0.599952
F	0.6773937928193290 0.6908165288649032 0.1493727212134479	-0.551308
F	0.7362591228622138 0.8403441728439974 0.1491600657089050	-0.570223
F	0.8349289114230974 0.7119270920863700 0.1482763071352202	-0.554057
F	0.6596686920958765 0.7637412500855232 0.6492184175560152	-0.566350
F	0.7881493188293369 0.6650562819221804 0.6483228063289944	-0.574773
F	0.8092502906191835 0.8225499260571212 0.6492365835046107	-0.550451
F	0.1774587941128693 0.1907527940607586 0.8507190804432347	-0.595201
F	0.3349292694139584 0.2118644640560433 0.8516831711830691	-0.582607
F	0.2362711949145892 0.3403107022126414 0.8508280816026339	-0.601910
F	0.2500283110249366 0.2500158058698558 0.4745757244566664	-0.546233
F	0.2501138221478902 0.2492011088469529 0.2270864234796081	-0.549029
F	0.7500147917445830 0.7499593399928597 0.0254340050602064	-0.527923
F	0.7508864664054866 0.7499876134279689 0.2729219231561936	-0.547470
F	0.7499110374862129 0.7500399814916124 0.5254284360228541	-0.536505
F	0.7500881201300185 0.7491786425680318 0.7729283318352677	-0.520302
F	0.2499541517290292 0.2500151965928991 0.9745491198611816	-0.506123
F	0.2508270227256548 0.2499362594420467 0.7270784849386694	-0.506909
N	0.3591282534513806 0.2475370014740653 0.6002683186524851	-0.248048
N	0.1409967728065918 0.2527764147130125 0.6016772389885198	-0.246621
N	0.2525055600817401 0.3590450847399315 0.6009231294969429	-0.246083
N	0.2471841836071262 0.1408942484325628 0.6020014740719631	-0.248555
N	0.6409627357160951 0.7474820105374504 0.8990632910968300	-0.245237
N	0.8590944899117213 0.7528371363526815 0.8980132391163893	-0.246976
N	0.7472133410821599 0.8590199698612149 0.8982712087318975	-0.246048
N	0.7524797871931774 0.6408627922295925 0.8997616536564093	-0.247038
N	0.6409956168384666 0.7527376121766912 0.3982803227739951	-0.247449
N	0.8591229818252192 0.7475697787473934 0.3997022841959303	-0.247991
N	0.7472429780014194 0.6408964368483513 0.3979197091845321	-0.245518
N	0.7524657778074774 0.8590487648397634 0.3991003066447152	-0.243546
N	0.3590980330694458 0.2527994277061021 0.1020375472502277	-0.249451
N	0.1409735903893190 0.2475099644194519 0.1009455277555630	-0.247461
N	0.2524522953578113 0.1408607634587212 0.1002883041382676	-0.249367
N	0.2472453248138324 0.3590181451167352 0.1017234037521790	-0.248712
C	0.3922299203434055 0.2183619532129225 0.6646876094871645	0.103217
C	0.4613969091860447 0.2169036862810757 0.6687794204496607	-0.179539
C	0.4991381110395391 0.2471999109423141 0.6045645123020410	0.099880
C	0.4639487291159753 0.2774552270426153 0.5378334794906491	-0.187302
C	0.3946736264571932 0.2763828075032935 0.5377145920002334	0.100049
C	0.5724814470907743 0.2479002755653445 0.6078736874793700	0.057075
C	0.6083028767042341 0.1922005961990327 0.6371730554248738	-0.129930
C	0.6775669259491535 0.1929509034987123 0.6397646902263714	-0.127503
C	0.7133825024516318 0.2498198023461893 0.6146967906703087	0.068567
C	0.6775811838686625 0.3058775148931888 0.5867954308815287	-0.121575
C	0.6083732714039312 0.3046821294259815 0.5826272727991125	-0.128138
C	0.1077918363262224 0.2818936078464179 0.6659722868575505	0.108693
C	0.0386513578633791 0.2832561848579636 0.6701233870169581	-0.183458
C	0.0009709052672366 0.2528022677290963 0.6058510051852098	0.104986
C	0.0362102786261142 0.2228158250875687 0.5390676182255084	-0.182080
C	0.1054499441499557 0.2241208086923833 0.5391045774378846	0.107606
C	0.9276234661804353 0.2520931932913436 0.6087271328688442	0.053780
C	0.8917295617737110 0.3078536867089629 0.6376418185111437	-0.129235
C	0.8224638695879110 0.3071339962892118 0.6398753412267435	-0.125569
C	0.7867066178195810 0.2502370813101708 0.6147737512903263	0.068184
C	0.8225679961959451 0.1942033564346028 0.5869103438217605	-0.120447
C	0.8917951362638349 0.1953612316233523 0.5831056860901910	-0.125439
C	0.2816194104184562 0.3922279019786628 0.6651769918831523	0.111299
C	0.2831444153494986 0.4613631458472348 0.6692546141670186	-0.179633
C	0.2528808204281381 0.4990610743201475 0.6049370520525740	0.103547
C	0.2226532903082161 0.4638441209784208 0.5382354107061783	-0.186350
C	0.2237442694956920 0.3946142958778541 0.5384228154711608	0.104935
C	0.2521632742461261 0.5723981914818388 0.6080740049574279	0.055028
C	0.3078561268385684 0.6082272499083481 0.6372658851483398	-0.129137
C	0.3070961776376640 0.6774870296721028 0.6397586751580117	-0.127295
C	0.2502092703660433 0.7132972963105557 0.6146682074727372	0.069928
C	0.1941712539831140 0.6774902838660738 0.5867894979952147	-0.120988
C	0.1953768403661096 0.6082809695235131 0.5827391184702893	-0.126059
C	0.2180411203829173 0.1077262506332098 0.6664200904294867	0.102110
C	0.2166850874911204 0.0385438146432222 0.6702813057290584	-0.183922
C	0.2471145365054569 0.0008892474680915 0.6059616413892707	0.101873
C	0.2771231544649912 0.0361624571646011 0.5392384312921533	-0.185136
C	0.2758822066159463 0.1054265246805031 0.5392552514639730	0.098614
C	0.2478555345317147 0.9275358071343272 0.6087725553420342	0.055027
C	0.1921206362756067 0.8916363940150248 0.6376704809253612	-0.130434
C	0.1928493923783566 0.8223734508633644 0.6398601247015648	-0.125552
C	0.2497545186809065 0.7866141915426631 0.6147452304694115	0.067018
C	0.3057769260703728 0.8224685019224972 0.5869082150532009	-0.120185
C	0.3045935130364820 0.8916958975421198 0.5831291852252477	-0.126167
C	0.6077759322487799 0.7183688642725878 0.8348093462097109	0.108430
C	0.5386370558100715 0.7168490929859599 0.8307370972230139	-0.180630
C	0.5009393546468985 0.7471135398411330 0.8950476947863247	0.103959
C	0.5361681286620255 0.7773379689528142 0.9617498786056844	-0.185573
C	0.6053990183004789 0.7762438213121858 0.9615612838644795	0.104269
C	0.4276022748259581 0.7478352261780316 0.8919153617613146	0.054237
C	0.3917770453825776 0.6921365478479278 0.8627213245254501	-0.129174
C	0.3225114617058488 0.6929020249894740 0.8602355671633128	-0.126736
C	0.2867007812512359 0.7497903987772109 0.8853297883021763	0.069905
C	0.3225119818507306 0.8058267223875727 0.9132100334178465	-0.120338
C	0.3917266222563398 0.8046238219462071 0.9172555047832517	-0.125933
C	0.8922605056991766 0.7819676152491811 0.8335913199962729	0.099796
C	0.9614440234137528 0.7833145960293117 0.8297202961824734	-0.184776
C	0.9991070014867330 0.7528873808510468 0.8940364734719295	0.103160
C	0.9638313688437199 0.7228863218202281 0.9607646918477686	-0.184312
C	0.8945645853527399 0.7241387428377803 0.9607577754304075	0.099008
C	0.0724620298906284 0.7521420634070654 0.8912228307122984	0.053853
C	0.1083525830257924 0.8078821458848797 0.8623227563186985	-0.130434
C	0.1776210190164083 0.8071481533723165 0.8601379828912020	-0.125033
C	0.2133812483103833 0.7502446057879221 0.8852538363516933	0.067568
C	0.1775292948931932 0.6942203443781596 0.9130944535523453	-0.119432
C	0.1082957556460933 0.6953971343174439 0.9168706801675645	-0.126014
C	0.7180910356439323 0.8922306390788604 0.8339924052396541	0.105459
C	0.7167326968403054 0.9613676750759340 0.8298552965830355	-0.184594
C	0.7471905307983784 0.9990358032548413 0.8941272117724538	0.106266
C	0.7771797576069299 0.9637870196321471 0.9609088273278128	-0.181491
C	0.7758762108105423 0.8945538704309344 0.9608556249004019	0.107004
C	0.7479001837755104 0.0723794862292128 0.8912676671801684	0.052588
C	0.6921483324214903 0.1082808246485146 0.8623606767490023	-0.129790
C	0.6928628045349813 0.1775440907106433 0.8601267912661784	-0.124719
C	0.7497596302932427 0.2133008635250141 0.8852279196839705	0.068308
C	0.8057883401494556 0.1774370460760681 0.9130865252754524	-0.119262
C	0.8046278287782047 0.1082138049081729 0.9168916552418711	-0.125328
C	0.7816459005794568 0.6077605813844380 0.8353291837636090	0.100695
C	0.7830948169932712 0.5385961171364900 0.8312309354399371	-0.179947
C	0.7527937903889571 0.5008539383159673 0.8954457063842720	0.100583
C	0.7225458296130316 0.5360412796311191 0.9621780251451226	-0.186595
C	0.7236291109409897 0.6053112121357186 0.9623029457377009	0.100425
C	0.7520899373585417 0.4275199689285689 0.8921285328309296	0.056243
C	0.8077833992533522 0.3916944567182867 0.8628296237006544	-0.130077
C	0.8070379736498532 0.3224340954089897 0.8602472416078218	-0.127037
C	0.7501760649840195 0.2866158539805748 0.8853103503995021	0.068950
C	0.6941187428413614 0.3224173445778932 0.9132056844619033	-0.120708
C	0.6953167506979770 0.3916225506516752 0.9173675103717367	-0.128231
C	0.6077833986147388 0.7818756872223138 0.3340027809288819	0.106913
C	0.5386417408921668 0.7832600550730967 0.3298703782062927	-0.184293
C	0.5009679970247163 0.7528110452257062 0.3941450095830677	0.110370
C	0.5362117714681527 0.7228093238038878 0.4609193800324359	-0.180934
C	0.6054457654627294 0.7240883307044929 0.4608632856140607	0.109111
C	0.4276246036828900 0.7520970618108688 0.3912737913550766	0.051623
C	0.3917248560645368 0.8078560140851332 0.3623568474235807	-0.128205
C	0.3224600598032603 0.8071331408857215 0.3601283655758673	-0.123913
C	0.2867032310858358 0.7502391031684987 0.3852334614648762	0.069371
C	0.3225661809193828 0.6942044969187909 0.4130943542621826	-0.118535
C	0.3917956627244991 0.6953641305377162 0.4168962583882094	-0.123856
C	0.8922363380033705 0.7183923116717202 0.3352920814836944	0.101905
C	0.9614020387580645 0.7169133288235815 0.3312137727047523	-0.180267
C	0.9991381942427863 0.7471948542494237 0.3954381894453831	0.105445
C	0.9639407846671555 0.7774482706523314 0.4621619522868158	-0.185614
C	0.8946675454844383 0.7763949844211816 0.4622693132240797	0.103637
C	0.0724775898935068 0.7478969895043625 0.3921289748437716	0.054782
C	0.1083025367012697 0.6922018278376805 0.3628274710094249	-0.128564
C	0.1775677254529426 0.6929563601149192 0.3602407010486761	-0.126026
C	0.2133823857639611 0.7498212279772162 0.3853114751751917	0.070170
C	0.1775768981822457 0.8058756411530539 0.4132057374714286	-0.119582
C	0.1083681845574993 0.8046797728036689 0.4173751330917060	-0.126471
C	0.7180830614403737 0.6077133374016890 0.3335280448650423	0.101515
C	0.7166928249354997 0.5385316197081316 0.3296995659799837	-0.185007
C	0.7471057770251237 0.5008841699304836 0.3940371980245108	0.108321
C	0.7771207160251802 0.5361642076380010 0.4607455124622257	-0.183128
C	0.7759134803196278 0.6054291486624183 0.4606920090520777	0.100828
C	0.7478452781552107 0.4275373340239705 0.3912321359422075	0.052604
C	0.6921168160808232 0.3916368217422167 0.3623323264620290	-0.128771
C	0.6928511534146544 0.3223738720400519 0.3601389602278421	-0.124019
C	0.7497534855146609 0.2866151049688982 0.3852559814184878	0.068684
C	0.8057722495423250 0.3224710699965162 0.4130907623670705	-0.118271
C	0.8045858866470513 0.3916997855950233 0.4168769880205865	-0.124453
C	0.7815968600249780 0.8922291283540390 0.3348440208858836	0.110194
C	0.7831402751102701 0.9613673147214244 0.3307703762894689	-0.180041
C	0.7528836505631662 0.9990668997153224 0.3950829464374424	0.109605
C	0.7226440362633607 0.9638447035309572 0.4617767737571832	-0.184900
C	0.7237135148990825 0.8946189007152914 0.4615909098372125	0.105675
C	0.7521632011783195 0.0724002247062153 0.3919354431316290	0.052722
C	0.8078548897269694 0.1082332947635956 0.3627374629794723	-0.127439
C	0.8070905619826934 0.1774930322574962 0.3602434016651740	-0.125743
C	0.7502097615800971 0.2133031733526684 0.3853338022786887	0.071447
C	0.6941679522120924 0.1774941735732162 0.4132118794180707	-0.118850
C	0.6953770878652856 0.1082833229459283 0.4172638907844161	-0.124333
C	0.3922729702047429 0.2819560751981272 0.1664411400632758	0.099049
C	0.4614584307294542 0.2833240485993526 0.1702871535295860	-0.184959
C	0.4991066702377556 0.2528958361499647 0.1059605997161858	0.103152
C	0.4638270293610544 0.2228847898205723 0.0392447733049988	-0.183012
C	0.3945588797768396 0.2241116790879734 0.0392798684440020	0.103342
C	0.5724634235474402 0.2521491848487187 0.1087738462098579	0.054633
C	0.6083592142394743 0.3078865911214153 0.1376760483113729	-0.130064
C	0.6776260623539162 0.3071494680495770 0.1398592587636861	-0.125730
C	0.7133846216351047 0.2502438588200329 0.1147386882312237	0.067624
C	0.6775288168233379 0.1942201697733696 0.0869021637166678	-0.119457
C	0.6082958612946985 0.1954025637407590 0.0831271043060159	-0.125665
C	0.1077866700840683 0.2183907396631029 0.1651981698652828	0.110433
C	0.0386406584128275 0.2168523358026417 0.1692651150611036	-0.180940
C	0.0009472487403938 0.2471048808466950 0.1049446713878446	0.103638
C	0.0361765040888919 0.2773382010602447 0.0382438791890601	-0.183497
C	0.1054083002868614 0.2762602963144628 0.0384388578056226	0.107394
C	0.9276044617343839 0.2478310441811019 0.1080761537760819	0.054807
C	0.8917762530433315 0.1921310683653555 0.1372733019641474	-0.128837
C	0.8225146049661706 0.1928998217979134 0.1397580227889503	-0.127451
C	0.7867072232573470 0.2497884991227829 0.1146635212161611	0.069998
C	0.8225178717450498 0.3058303477521132 0.0867845570536368	-0.120353
C	0.8917318393004697 0.3046249945398846 0.0827381968675748	-0.125335
C	0.2816325197565160 0.1077572596095482 0.1646996121755571	0.099828
C	0.2830980195029940 0.0385908165424616 0.1687781530665700	-0.180335
C	0.2528059332970216 0.0008524178956848 0.1045595684780028	0.099692
C	0.2225444670749376 0.0360499123164776 0.0378371510545033	-0.184805
C	0.2236099694330834 0.1053230497667144 0.0377305133700240	0.103567
C	0.2520978654794951 0.9275129318198453 0.1078685177913600	0.056738
C	0.3077888644925679 0.8916852384406141 0.1371677233029038	-0.129853
C	0.3070419176107622 0.8224273512660176 0.1397533656975153	-0.127218
C	0.2501772004121781 0.7866125673526572 0.1146868578333762	0.068757
C	0.1941187948620103 0.8224158830630695 0.0867911778805943	-0.120523
C	0.1953205870004408 0.8916214624494765 0.0826272632349600	-0.127591
C	0.2181111496784335 0.3922252931785292 0.1660046190082739	0.107229
C	0.2167332365041996 0.4613677678510067 0.1701420776280203	-0.184829
C	0.2471840973283082 0.4990370858846689 0.1058628615749155	0.107543
C	0.2771794488521137 0.4637886708704433 0.0390819440888046	-0.179585
C	0.2758929249614757 0.3945574166322849 0.0391394895170103	0.110899
C	0.2479015746081175 0.5723819749760355 0.1087322909777023	0.052599
C	0.1921458590867635 0.6082808172962094 0.1376426207027803	-0.129105
C	0.1928635589177445 0.6775410587837436 0.1398696452038976	-0.125109
C	0.2497569835729274 0.7132959071914354 0.1147656493349704	0.068667
C	0.3057925288269068 0.6774332740880866 0.0869069600787395	-0.119414
C	0.3046281533626385 0.6082101537710166 0.0831116687965681	-0.124329
H	0.3619998478939713 0.1974557426796215 0.7157228162636589	0.102961
H	0.4855786386278660 0.1939700549306748 0.7233778801404644	0.113196
H	0.4904118032742120 0.3008175817988299 0.4852817767209871	0.110898
H	0.3660533191457608 0.2986924612594126 0.4859870261007370	0.096924
H	0.5813146116074703 0.1475116085541716 0.6566650787002661	0.098540
H	0.7045982584557465 0.1493575645830515 0.6627303532298315	0.100699
H	0.7045592344410696 0.3500602391093825 0.5656724079511554	0.101508
H	0.5814980489451028 0.3486689496532753 0.5605612936452888	0.101813
H	0.1384662942509538 0.3039590384482040 0.7157591001113104	0.097342
H	0.0142541463228784 0.3064259245358884 0.7243903822553441	0.111667
H	0.0098685194228509 0.1998760994729412 0.4861166420738085	0.111453
H	0.1340815626532724 0.2030356144083478 0.4868245839686933	0.096096
H	0.9186430316265701 0.3526231501597825 0.6569824000741897	0.098269
H	0.7953927671521239 0.3507919654654622 0.6625403661995989	0.101482
H	0.7956220500424437 0.1500630145130707 0.5655562427343542	0.100769
H	0.9186803562947417 0.1513712792007704 0.5610650877284640	0.101669
H	0.3026262894172089 0.3617415848955309 0.7157453957948532	0.098893
H	0.3059663262669789 0.4856250773201741 0.7238428865461536	0.114079
H	0.1994173298889253 0.4902705036006756 0.4855529197471898	0.110971
H	0.2014538965842363 0.3657613077429129 0.4870700352652359	0.092450
H	0.3525771118296211 0.5812608830421625 0.6567161136424996	0.097499
H	0.3506939612137945 0.7045171724807314 0.6626550351099282	0.101514
H	0.1499792168756042 0.7044664610945813 0.5656265174814796	0.101121
H	0.1513692628788222 0.5814372365209605 0.5607499099656539	0.101494
H	0.1961809314531520 0.1381073594173007 0.7168126573940216	0.101140
H	0.1934335788698917 0.0141345781433685 0.7244919079486667	0.112764
H	0.3002146269974262 0.0098714291826908 0.4863358421971841	0.112154
H	0.2970404649303586 0.1338556538672362 0.4866693247939082	0.101418
H	0.1473780906903697 0.9185827952638270 0.6570803759162491	0.098471
H	0.1492047375710635 0.7953208465935088 0.6625495561530975	0.100743
H	0.3499305776418647 0.7955204470778636 0.5655500854639275	0.100972
H	0.3485519198144393 0.9185832881149680 0.5610583988068758	0.102105
H	0.6382612248546855 0.6973573026436477 0.7842413058677881	0.096909
H	0.5143675130370322 0.6940245328270815 0.7761458417049649	0.112932
H	0.5097316012662864 0.8005724084906741 0.0144209880180921	0.111024
H	0.6342471771423708 0.7985407017898770 0.0129152844865172	0.093567
H	0.4187448452158077 0.6474105259085480 0.8432674254819716	0.097416
H	0.2954696975439777 0.6493053905804085 0.8373440904499599	0.101794
H	0.2955304593171808 0.8500182787620045 0.9343735244223909	0.101937
H	0.4185793509343372 0.8486331505942638 0.9392475015004107	0.101676
H	0.8618787691365567 0.8038226410427554 0.7832078198578596	0.098564
H	0.9858609552977692 0.8065593663040261 0.7755095112743592	0.111644
H	0.9901281324102318 0.6997920716747965 0.0136652743028382	0.111898
H	0.8661268793593412 0.7029907619854707 0.0133486830880397	0.100613
H	0.0814008180130402 0.8526256469337333 0.8429080352391684	0.098618
H	0.2046783743857265 0.8507899613360872 0.8374484484464775	0.101022
H	0.2044851716707222 0.6500702140831707 0.9344523830655281	0.101691
H	0.0814043699324203 0.6514349145664812 0.9389506636238489	0.102219
H	0.6960156010466864 0.8615619031458259 0.7841987029740769	0.094371
H	0.6935606658686700 0.9857676832368787 0.7755870442209910	0.110624
H	0.8001264267605894 0.9901150946145820 0.0138569229190501	0.111658
H	0.7969666996070708 0.8659164733172439 0.0131222448836856	0.096835
H	0.6473750450558751 0.0813782301377926 0.8430204983464020	0.098300
H	0.6492029866000412 0.2046129797629563 0.8374647572225706	0.101551
H	0.8499336093302791 0.2043754283949971 0.9344460639747753	0.101616
H	0.8486175221150648 0.0813333296960867 0.9389284247941850	0.102017
H	0.8025489688670249 0.6379898726392426 0.7842962169560276	0.101589
H	0.8060251726498218 0.5144272808680810 0.7766219010763813	0.112605
H	0.6991804995608981 0.5095876895537705 0.0147357973799276	0.110698
H	0.7013198030157172 0.6339402513865745 0.0140344044498214	0.096381
H	0.8524722717812577 0.4186761145561813 0.8433425759744927	0.098717
H	0.8506328399376988 0.2954116305697957 0.8372730404828961	0.100925
H	0.6499382048356186 0.2954378289127378 0.9343241795806924	0.101991
H	0.6513241812950712 0.4184807237396035 0.9394309694368567	0.101924
H	0.6384539550091588 0.8039495984631121 0.2842159278479854	0.094290
H	0.5142487966407117 0.8064266477411929 0.2756024793319995	0.112107
H	0.5098695346908563 0.6998573851294734 0.5138595095830869	0.114071
H	0.6340903102155709 0.7029922589337690 0.5131363513817193	0.099648
H	0.4186403223940187 0.8526276211019608 0.3430179809139008	0.098347
H	0.2953909594139046 0.8507926627172206 0.3374636062008138	0.102208
H	0.2956167308354825 0.6500676547446770 0.4344499301900863	0.102312
H	0.4186754387338984 0.6513700546830551 0.4389430248167461	0.101776
H	0.8620104906693014 0.6974942082960949 0.2842515221044274	0.100977
H	0.9855744647170537 0.6939914778620734 0.2765973424547709	0.113640
H	0.9904014829018318 0.8008147425065580 0.5147018214331187	0.113216
H	0.8660419310741558 0.7986960989420956 0.5140018075421523	0.099280
H	0.0813190886279948 0.6475095377338016 0.3433347172402663	0.098588
H	0.2046012867884725 0.6493656666853934 0.3372784419624552	0.101436
H	0.2045566294145130 0.8500528886153982 0.4343289714206923	0.102704
H	0.0814979940811415 0.8486699631515272 0.4394439544789873	0.101782
H	0.6962158858624563 0.6380890735442475 0.2831408837687148	0.099705
H	0.6934543251610820 0.5141270137355675 0.2754789510011618	0.113634
H	0.8002226234958123 0.5098804385701725 0.5136450633234906	0.115290
H	0.7970615129141541 0.6338724580661190 0.5132785533714579	0.104473
H	0.6473706306953565 0.4185774321584497 0.3429197377702864	0.098914
H	0.6492081414655033 0.2953186112652526 0.3374527906729189	0.101712
H	0.8499222869252212 0.2955250212901185 0.4344549165129243	0.102542
H	0.8485443300017906 0.4185861124069457 0.4389534015473908	0.102669
H	0.8026078678803327 0.8617479043438724 0.2842874456735004	0.098300
H	0.8059550346882547 0.9856187269282561 0.2761702812929341	0.115085
H	0.6993974981527956 0.9902794444902537 0.5144467315246504	0.113879
H	0.7014176334918271 0.8657655067067533 0.5129576624727959	0.097310
H	0.8525754448757956 0.0812647941105427 0.3432906888698158	0.097956
H	0.8506936093585725 0.2045212851042613 0.3373416648546417	0.102561
H	0.6499805403896591 0.2044736864354912 0.4343734240981977	0.102602
H	0.6513639761582404 0.0814437657099945 0.4392607260074281	0.101828
H	0.3619011517054366 0.3038193180344603 0.2168253975933284	0.098442
H	0.4858737471891365 0.3065628075817586 0.2245058668584958	0.111665
H	0.4901234054387092 0.1997813343948325 0.9863621791594924	0.114128
H	0.3661164291189646 0.2029580642712295 0.9866915148754796	0.104425
H	0.5814069658121422 0.3526298014054887 0.1570891081718699	0.098635
H	0.7046851046165958 0.3507917576438919 0.1625462624415932	0.100769
H	0.7044841071692222 0.1500707114477869 0.0655422080252500	0.101867
H	0.5814023433917941 0.1514426507504402 0.0610507581831201	0.102658
H	0.1382588024944608 0.1973846980735463 0.2157707227423717	0.095627
H	0.0143760117475694 0.1940390066032829 0.2238631001622320	0.113108
H	0.0097398820366276 0.3005787071883156 0.9855732176145929	0.112921
H	0.1342614042631783 0.2985516990104388 0.9870809016358402	0.098530
H	0.9187491993661642 0.1474086123636802 0.1567229590368304	0.097673
H	0.7954759684279524 0.1493018358529815 0.1626504451642597	0.101438
H	0.7955343389015297 0.3500181660045363 0.0656199580279540	0.101942
H	0.9185825405508414 0.3486347082731730 0.0607398434848153	0.101775
H	0.3025432388816383 0.1379630267491534 0.2157356089963554	0.100322
H	0.3060234159645812 0.0144120093920589 0.2233954783383336	0.112364
H	0.1991742788152736 0.0095970524862714 0.9852893690551698	0.112765
H	0.2013032625161526 0.1339515733521913 0.9859939142377161	0.100187
H	0.3524765630549197 0.9186671739034338 0.1566514692194840	0.098749
H	0.3506380252479036 0.7954015351230460 0.1627218570441415	0.100511
H	0.1499341712648228 0.7954415685960686 0.0656635233813584	0.102012
H	0.1513325664747753 0.9184869803290974 0.0605607741206027	0.102176
H	0.1960405342702113 0.3615594576327859 0.2157936034493364	0.092758
H	0.1935694021747871 0.4857585409245974 0.2244195715020934	0.110855
H	0.3001351009061532 0.4901275444781206 0.9861406224157504	0.113514
H	0.2969800262900397 0.3659159560955897 0.9868656725746311	0.100825
H	0.1473749615647428 0.5813701471848284 0.1569751225898963	0.098339
H	0.1491991114528327 0.7046030224617573 0.1625333196716115	0.101313
H	0.3499341374321081 0.7043760364910502 0.0655488515525276	0.101789
H	0.3486146955156380 0.5813337936771430 0.0610692151883118	0.101898
Fe	0.2501578166449512 0.2498520135166596 0.6006436987736420	0.806531
Fe	0.7501508234996205 0.7498576335777326 0.8993570825291908	0.798035
Fe	0.7501579723799274 0.7498692346966660 0.3993677848084880	0.835794
Fe	0.2501565698984922 0.2498429569181928 0.1006336836222711	0.815542
Fe	0.2515123800062499 0.2502466536387945 0.3509495217343900	1.527135
Fe	0.7496600816743328 0.7486280513655765 0.1490562885437817	1.370827
Fe	0.7514050516546369 0.7502956554779319 0.6490753856499033	1.346268
Fe	0.2497028140916828 0.2485879814773169 0.8509093955232491	1.322546
	  	
