#======================================================================

# CRYSTAL DATA

#----------------------------------------------------------------------

data_VESTA_phase_1


_pd_phase_name                         FeFFIVE_7_Ni
_cell_length_a                         19.11700
_cell_length_b                         19.11688
_cell_length_c                         7.98803
_cell_angle_alpha                      89.98183
_cell_angle_beta                       90.01759
_cell_angle_gamma                      90.01630
_symmetry_space_group_name_H-M         P 1
_symmetry_Int_Tables_number            1

loop_
_symmetry_equiv_pos_as_xyz
   x, y, z

loop_
   _atom_site_label
   _atom_site_fract_x
   _atom_site_fract_y
   _atom_site_fract_z
   _atom_site_charge
C	0.6656812308024999 0.8710686442064046 0.6982808458186506	0.098253
C	0.6146568992044289 0.9227987582955238 0.7025108960961347	-0.178472
C	0.5796536442890245 0.8876778856948908 0.4269227434131393	-0.174878
C	0.6315644242363274 0.8370842348803160 0.4323471057675095	0.102943
C	0.8345100959569250 0.6289680021975870 0.6982531806993079	0.106426
C	0.8853729974314521 0.5771090504769671 0.7029380286899709	-0.180914
C	0.9202702299716574 0.6123094251446142 0.4273421222527520	-0.172880
C	0.8684953052465393 0.6630919720792580 0.4323452074289247	0.093954
C	0.6287300686475205 0.6655875130245990 0.6980790240538954	0.102399
C	0.5770036333947459 0.6145712150414534 0.7026418842365636	-0.178439
C	0.6122598549540054 0.5795563564730327 0.4273181113361121	-0.172316
C	0.6630294475625660 0.6313155171934115 0.4327066063785460	0.098385
C	0.8710376252544174 0.8341010786987593 0.6982374142824201	0.101636
C	0.9227548181669165 0.8851704190766184 0.7027640945281505	-0.178693
C	0.8874938439619059 0.9202122706523000 0.4271542620156040	-0.174864
C	0.8366856051124780 0.8684419334410544 0.4324923860058011	0.098691
C	0.3341022530984981 0.3710393980078247 0.3017646466402910	0.101590
C	0.3851722331652203 0.4227560555972951 0.2972367409801068	-0.178728
C	0.4202120611808328 0.3874922035258861 0.5728466990628673	-0.174866
C	0.3684408904064825 0.3366846949863405 0.5675091351257741	0.098640
C	0.1655890173024626 0.1287312921722317 0.3019244694178381	0.102472
C	0.1145735411930800 0.0770048493585617 0.2973606063851581	-0.178555
C	0.0795559156992856 0.1122589106668797 0.5726857618950625	-0.172287
C	0.1313146793332428 0.1630283602447198 0.5672975181954718	0.098405
C	0.3710702764723250 0.1656809698737568 0.3017162532623208	0.098212
C	0.4227995055434819 0.1146568087960386 0.2974877774228902	-0.178556
C	0.3876778616436338 0.0796534999334284 0.5730797654664348	-0.174944
C	0.3370842189583660 0.1315639511805729 0.5676544718346604	0.102953
C	0.1289681866871471 0.3345105291528468 0.3017471552975265	0.106381
C	0.0771090994912559 0.3853728577157083 0.2970626587222950	-0.180883
C	0.1123093278411574 0.4202700773213046 0.5726568933806512	-0.172910
C	0.1630913639680469 0.3684954323355854 0.5676526545085344	0.093989
C	0.4327376056235603 0.0703214541995646 0.4358165554765742	0.140206
C	0.4870960391702890 0.0168484835826699 0.4320218522194466	-0.122016
C	0.0671971364715140 0.4296759286054422 0.4353925939448234	0.141178
C	0.0127640643400670 0.4831264548740725 0.4319480351986054	-0.122605
C	0.4295409095228925 0.4326379721877627 0.4355753030686277	0.142828
C	0.4830350273626177 0.4870491986547575 0.4320034651892388	-0.125302
C	0.0702236526794251 0.0671406406823337 0.4355750722730951	0.137335
C	0.0167564931198080 0.0127211905321202 0.4319597427439900	-0.119516
C	0.5671407341952811 0.5702230831418604 0.5644272103833385	0.137336
C	0.5127207014499788 0.5167566992152552 0.5680442628672844	-0.119578
C	0.9326379010948052 0.9295398505457766 0.5644259020653151	0.142775
C	0.9870486404884321 0.9830347542269163 0.5679953485802541	-0.125320
C	0.5703221157537471 0.9327368932439802 0.5641843055723113	0.140159
C	0.5168494104368363 0.9870952991220427 0.5679803132264455	-0.122120
C	0.9296754671157120 0.5671974889379123 0.5646080176053002	0.141092
C	0.9831261583378119 0.5127643871089278 0.5680529237661177	-0.122504
H	0.6999955815834732 0.8621471168250081 0.8052866662685031	0.103071
H	0.6101177441545690 0.9554501422037242 0.8137752490438641	0.116269
H	0.5459235152700471 0.8907031645885667 0.3172813349577775	0.114370
H	0.6403982648766975 0.8016646554686686 0.3278950910274918	0.094725
H	0.7996299543308169 0.6381939352268537 0.8036047133932976	0.094778
H	0.8900420617204081 0.5443415629884145 0.8139964321944865	0.114944
H	0.9538557412609882 0.6094463771895721 0.3174373984296642	0.116110
H	0.8600423667762127 0.6980905067598067 0.3264163244205912	0.103766
H	0.6381343962289227 0.6995931881955256 0.8048582582428739	0.101142
H	0.5444719709185288 0.6099330679749860 0.8140694129853057	0.115860
H	0.6092891036947509 0.5461061459516328 0.3172201423112858	0.115248
H	0.6976206572670459 0.6403168388260830 0.3268083733752586	0.101069
H	0.8624360090124977 0.7987250231532405 0.8033956858208710	0.097816
H	0.9556106271500260 0.8898166254832788 0.8137025019817307	0.115259
H	0.8904953728390212 0.9540103422288835 0.3176074287765692	0.115296
H	0.8007134100799069 0.8602495810507101 0.3283780674330291	0.098288
H	0.2987267760227468 0.3624373087707674 0.1966077529669092	0.097853
H	0.3898178782212163 0.4556131490180889 0.1862965068892450	0.115247
H	0.4540095625130871 0.3904940692370732 0.6823932605287969	0.115321
H	0.3602493823569082 0.3007112924802098 0.6716240568256014	0.098264
H	0.1995957440844181 0.1381355709134086 0.1951439704557973	0.101152
H	0.1099344611932631 0.0444734726623716 0.1859326050369015	0.115896
H	0.0461038467857383 0.1092879448888371 0.6827835877731443	0.115223
H	0.1403167747768528 0.1976188198014120 0.6731952714634523	0.101080
H	0.3621479557313223 0.1999959593755105 0.1947114459725119	0.103072
H	0.4554517042130171 0.1101174939772955 0.1862222445407541	0.116286
H	0.3907032047977898 0.0459223977585912 0.6827230112607765	0.114395
H	0.3016642617546091 0.1403979529111409 0.6721070100307815	0.094720
H	0.1381942554165742 0.2996304952039683 0.1963964489218838	0.094787
H	0.0443412411219547 0.3900421287920231 0.1860051597126589	0.114941
H	0.1094454370946197 0.4538555772172609 0.6825625792873854	0.116132
H	0.1980895855662869 0.3600421785102634 0.6735809583900271	0.103764
H	0.5058065861037693 0.0022878127046973 0.3073162473334144	0.101961
H	0.9940570620877066 0.4979225607035422 0.3073331299879096	0.101672
H	0.4977643136114799 0.5057881562553556 0.3073721327343492	0.102800
H	0.0021147012505964 0.9940247987696942 0.3072844817391236	0.100819
H	0.4940234372516729 0.5021134096687732 0.6927164425654343	0.100811
H	0.0057868675773828 0.9977628888283879 0.6926279110684150	0.102789
H	0.5022881316375793 0.0058061937567019 0.6926838340867322	0.101987
H	0.9979224400195287 0.4940573894268327 0.6926669224870661	0.101655
Ni	0.2499192454708345 0.2498908246599770 0.4342851756026060	0.770114
Ni	0.7498903403034375 0.7499188451740989 0.5657148823224485	0.770158
Fe	0.2505673820962612 0.2505781495520960 0.9348097146816953	1.521349
Fe	0.7505749819901263 0.7505664041175327 0.0651846801430197	1.521357
F	0.2504369682799120 0.2493728022090648 0.1805179615079797	-0.578476
F	0.2492891078049248 0.2502572554797937 0.6886747550361566	-0.578635
F	0.7493586104969187 0.7504285966807059 0.8194765842486968	-0.578467
F	0.7502610037008659 0.7493003113607645 0.3113225915798673	-0.578666
F	0.1810932607618930 0.1824074661854699 0.9351952739797670	-0.595382
F	0.2272002242115622 0.3449663736797210 0.9378262467336245	-0.595573
F	0.3445724852105242 0.2256828345007206 0.9313084597447179	-0.595381
F	0.7256823825010672 0.8445706694247557 0.0686708077717942	-0.595354
F	0.8449584152628228 0.7271984698495875 0.0621779725908347	-0.595547
F	0.6824141999847658 0.6810836225584935 0.0647721050462564	-0.595329
N	0.3286954195569392 0.1741432083788153 0.4347464615842296	-0.233637
N	0.1714281371700709 0.3259936202579027 0.4344565110690993	-0.233350
N	0.3257781236445949 0.3285033382418426 0.4345540066761114	-0.231776
N	0.1739691041828626 0.1712762894605894 0.4345048985890220	-0.237625
N	0.6712761755715739 0.6739683557303671 0.5655044952136377	-0.237580
N	0.8285028942946432 0.8257779837045915 0.5654427024747852	-0.231881
N	0.6741435274245786 0.8286950935481677 0.5652529783883821	-0.233720
N	0.8259931413841025 0.6714279431906413 0.5655422635114634	-0.233328
	  	
