#======================================================================

# CRYSTAL DATA

#----------------------------------------------------------------------

data_VESTA_phase_1


_pd_phase_name                         FeFFIVE_13_Zn_i
_cell_length_a                         15.37957
_cell_length_b                         15.38427
_cell_length_c                         7.81899
_cell_angle_alpha                      89.98009
_cell_angle_beta                       90.00408
_cell_angle_gamma                      89.57942
_symmetry_space_group_name_H-M         P 1
_symmetry_Int_Tables_number            1

loop_
_symmetry_equiv_pos_as_xyz
   x, y, z

loop_
   _atom_site_label
   _atom_site_fract_x
   _atom_site_fract_y
   _atom_site_fract_z
   _atom_site_charge
C	0.5403431138832325 0.6861242259688440 0.8699404354714551	0.112048
C	0.5440147832769163 0.7765115709161180 0.8677934516271617	-0.151577
C	0.4630389693211328 0.3171089269640002 0.8768606283071821	0.105557
C	0.4594701396558371 0.2267245732677317 0.8777548282207416	-0.144232
C	0.8163779165700699 0.9727552480207944 0.3628239446878091	0.106460
C	0.7260601723748625 0.9698069906883094 0.3593838911987020	-0.139653
C	0.3162339078272794 0.5423906154515427 0.8685976670068344	0.106017
C	0.2257803965667730 0.5462457861936728 0.8647731893256992	-0.154176
C	0.1862112054369615 0.9714875044109751 0.3566137296806496	0.095503
C	0.2765865736323448 0.9700005782811337 0.3541894850844058	-0.139829
C	0.6854194803667354 0.4631515495837843 0.8818595902776143	0.105788
C	0.7758043526768454 0.4598183208794635 0.8812211263341050	-0.141063
C	0.4553897624121231 0.6868448870117642 0.1158860434296656	0.110202
C	0.4519006808274925 0.7771765559894755 0.1177955248146817	-0.141245
C	0.5403565020609880 0.3186155203579366 0.1327513615370130	0.108699
C	0.5431932036010404 0.2281680358451428 0.1388881964531742	-0.152096
C	0.1838583141318498 0.0192878035041248 0.6389324115601396	0.108755
C	0.2740734271404757 0.0223024274001754 0.6455955473687102	-0.136958
C	0.6835147578204664 0.5436900083667906 0.1335127005404103	0.114144
C	0.7739652594001090 0.5473867486400107 0.1373804561678123	-0.149870
C	0.8158370763372337 0.0296292514502581 0.6384423682594642	0.105468
C	0.7255851159928001 0.0303856932082683 0.6448526287763277	-0.141680
C	0.3155009564788657 0.4584424667105467 0.1161707081424087	0.105506
C	0.2250831542672473 0.4556882825604889 0.1171290397420544	-0.142736
C	0.9655862381721375 0.8143080061956843 0.6361126625562399	0.104986
C	0.9641816985102321 0.7239040079321238 0.6415778483268015	-0.138958
C	0.9833085989874299 0.1830720407304287 0.6402665957935316	0.092070
C	0.9797192690509585 0.2732741285011029 0.6437039109218486	-0.139170
C	0.0213386356696891 0.8132320251799641 0.3595187268922797	0.104039
C	0.0241515431565571 0.7230486347861761 0.3556344867356424	-0.139707
C	0.0302093699182029 0.1823935140294656 0.3573878399352558	0.111461
C	0.0310626744154291 0.2727621594337637 0.3514899295537926	-0.138051
C	0.0040029555122471 0.3190238543693546 0.4966584338022619	0.039350
C	0.0014504565938625 0.4141745306602606 0.4968876350524669	0.256263
C	0.4981097439319201 0.8228251927869695 0.9928953604520132	0.055009
C	0.4990469678408231 0.9186201006175152 0.9977090058435708	0.249394
C	0.9950523370574710 0.6774098005794533 0.4995624126519281	0.038134
C	0.9972427593224716 0.5821114567121110 0.4996338619569028	0.244901
C	0.5010544290736998 0.1814750628472751 0.0101169336507307	0.054359
C	0.5004421682602017 0.0855860896313655 0.0109105635067364	0.251140
C	0.6797980594169124 -0.0005060602029367 0.5025841935591637	0.040890
C	0.5845444637330081 0.9977732866742181 0.5040789185057970	0.243714
C	0.1794826144617283 0.5013461033570293 0.9904582714290535	0.056367
C	0.0836528660010881 0.5022348125009050 0.9929441828701386	0.247721
C	0.3213700472783002 0.9962705569867594 0.5011021884537034	0.039998
C	0.4165748771330157 0.9963857771183812 0.5034571473304095	0.255191
C	0.8208375554632332 0.5036312616050440 0.0102223198424212	0.051786
C	0.9167219936921458 0.5034550650004278 0.0076715160730717	0.250356
H	0.5707718883786683 0.6467708252520954 0.7704871776614309	0.103611
H	0.5807817923518916 0.8098055212438521 0.7686427226025979	0.122320
H	0.4356455936109136 0.3553311329917206 0.7715644128174314	0.109451
H	0.4273772641447516 0.1917092543114395 0.7747451049420743	0.117345
H	0.8554145702748914 0.9511142930193388 0.2538995309260700	0.104381
H	0.6924739595966553 0.9455623030204696 0.2466931781118659	0.119358
H	0.3560359402806916 0.5733776272607828 0.7706603528741723	0.098300
H	0.1923837971514220 0.5825035943131376 0.7643112634061012	0.122585
H	0.1492807167083089 0.9563096584935559 0.2412589942031967	0.104924
H	0.3109470860690834 0.9506380694999762 0.2383385349270870	0.114810
H	0.6473016227713816 0.4352698575390793 0.7779723837262930	0.107829
H	0.8109773712703918 0.4267025185277639 0.7791073888368976	0.116307
H	0.4258747976031338 0.6482335256255168 0.2171885484888675	0.106709
H	0.4173031776138060 0.8117525876065073 0.2187177876114829	0.115390
H	0.5689496226111352 0.3585133784812868 0.2333095824070100	0.101344
H	0.5763134512877686 0.1951122117847282 0.2438550923847405	0.121330
H	0.1444861228577807 0.0347192621584343 0.7506698931574699	0.104829
H	0.3066532224165878 0.0425814243290615 0.7623761127817125	0.116801
H	0.6437423082517958 0.5721972143768345 0.2345387593023033	0.103425
H	0.8068025918201774 0.5823030382713821 0.2396628594040929	0.122331
H	0.8546376149687921 0.0505377074503516 0.7471993573955668	0.092029
H	0.6918105278082235 0.0530795835659735 0.7589586868190918	0.119120
H	0.3543202917168899 0.4279597469166766 0.2172066198064704	0.108220
H	0.1902442993749076 0.4214977085293167 0.2177132335523195	0.116030
H	0.9441165247711237 0.8533837510368021 0.7451515361829439	0.106502
H	0.9408756459232006 0.6906518611984848 0.7555178959735891	0.118216
H	0.9691142934046980 0.1455740121459838 0.7552836096327938	0.103260
H	0.9598436588515599 0.3069533332963245 0.7599369081621218	0.117892
H	0.0405445675001509 0.8517591468934599 0.2491711725090615	0.095002
H	0.0474975312087461 0.6891456048837609 0.2422403838612553	0.116767
H	0.0464911583109013 0.1435904663996926 0.2453035102968343	0.104962
H	0.0501590948959683 0.3061444315552840 0.2346748721366275	0.116712
N	0.9452312852201850 0.5395746839091621 0.6107225722179402	-0.133741
N	0.4222129534723661 0.0461919855423573 0.0096987234066716	-0.148229
N	0.5424483184958214 0.0499778475359788 0.6164450585876869	-0.136248
N	0.9572144105795253 0.4252608877023316 0.0024854432780215	-0.141673
N	0.0515370219960920 0.5422526749063827 0.3877616419893777	-0.135830
N	0.5779579766014187 0.0438136918251931 0.0119234175742331	-0.151730
N	0.9573014828241819 0.5810017390944026 0.0055790518549616	-0.149485
N	0.5443634537365749 0.9432167373836714 0.3943508352501269	-0.131146
N	0.0540096854198749 0.4567531071633697 0.3871738311893024	-0.132033
N	0.5772452730658514 0.9580240417384852 0.0006710642777876	-0.149338
N	0.4588378817318238 0.9426763884235759 0.3941108924855089	-0.126691
N	0.0430967388371891 0.5803826419361877 0.9936722739921999	-0.148103
N	0.9470159541709963 0.4540521488906907 0.6083431622105524	-0.127846
N	0.4215714145634392 0.9602887398589482 0.0064950803837372	-0.142085
N	0.0431413549854306 0.4246601196999348 0.9984110701521185	-0.147694
N	0.4568767480799711 0.0491712034784336 0.6161469454637515	-0.132466
N	0.0066407464131676 0.1386032752535253 0.4989587776412733	-0.216172
N	0.4979638391659530 0.6424634130283479 0.9930561740941419	-0.223655
N	0.9938627773339076 0.8578689136735640 0.4975612541891375	-0.208816
N	0.5018614000293192 0.3618274564179427 0.0033330260279026	-0.220775
N	0.8601903323095124 0.0019592914204985 0.5001927422345773	-0.209349
N	0.3597884118875271 0.5003153709707686 0.9930496800447274	-0.216221
N	0.1409161438795597 0.9947007591654573 0.4970455844485041	-0.216408
N	0.6404110812148660 0.5032937827087623 0.0070352029631977	-0.222740
Zn	0.0006937292436686 0.9982947842930233 0.4976891693891742	0.729741
Zn	0.5000781200436019 0.5022549771548862 -0.0002419522845211	0.733862
Fe	0.9965730174107115 0.9954281089586132 0.9979304000944794	1.505845
Fe	0.4969504895526827 0.5015119193381790 0.4993502573025513	1.525703
F	0.9983174460571337 -0.0051921813891908 0.2389510872016329	-0.556394
F	0.5016835762133315 0.4975654903784975 0.7397847609832650	-0.562961
F	-0.0046118895385610 0.9960610819759618 0.7576089506574269	-0.556821
F	0.4902258226465436 0.5059471204031697 0.2582441266785585	-0.562365
F	0.9143295211063591 0.9079883870070437 0.0022788172827746	-0.596587
F	0.4206134552384342 0.4080992507230820 0.4985286904454462	-0.619322
F	0.9733975379315757 0.1134323642031091 0.0009375035459852	-0.584774
F	0.4706176654603665 0.6192041793388109 0.5084260224603248	-0.619459
F	0.1137697235760054 0.9678897232931859 -0.0036046635894759	-0.583015
F	0.6142813795247211 0.4739941979104249 0.4849220272633817	-0.613346
	  	
