#======================================================================

# CRYSTAL DATA

#----------------------------------------------------------------------

data_VESTA_phase_1


_pd_phase_name                         FeFFIVE_3_Fe
_cell_length_a                         14.47559
_cell_length_b                         14.47570
_cell_length_c                         8.02219
_cell_angle_alpha                      89.99828
_cell_angle_beta                       89.99242
_cell_angle_gamma                      91.05023
_symmetry_space_group_name_H-M         P 1
_symmetry_Int_Tables_number            1

loop_
_symmetry_equiv_pos_as_xyz
   x, y, z

loop_
   _atom_site_label
   _atom_site_fract_x
   _atom_site_fract_y
   _atom_site_fract_z
   _atom_site_charge
C	0.2629682263942563 0.4531605871262893 0.6382596748026051	0.055480
C	0.2344377501307261 0.0499470379191710 0.6423522447534146	0.059974
C	0.2356273309127621 0.4536732263711475 0.3559699064355562	0.050821
C	0.2626404560800485 0.0493505785423894 0.3607300937233364	0.062477
C	0.0494258731774674 0.2626302698034776 0.3607212550831633	0.062479
C	0.4537535674887725 0.2356086260579726 0.3559900853145639	0.050477
C	0.4532149817020353 0.2629990478618697 0.6382928834514208	0.055581
C	0.0499995423318041 0.2343896190312848 0.6423430692262865	0.059772
C	0.9537674145447901 0.2355684220590672 0.6440033759593085	0.050995
C	0.5493196576552939 0.2626386086927260 0.6393227792284970	0.062979
C	0.5499735990581068 0.2344614805183600 0.3577091887779498	0.060207
C	0.9533097620592176 0.2630751871898461 0.3617748729748563	0.055367
C	0.7344181089713243 0.0499950714619811 0.3576047489783831	0.060153
C	0.7630603878997614 0.4533016443873372 0.3617662739120205	0.055213
C	0.7626438392288205 0.0493682035937795 0.6392392704428276	0.063037
C	0.7355627525701303 0.4537983016531283 0.6440741835535703	0.050346
C	0.4537825329772341 0.7355386248340570 0.6440091981310571	0.050922
C	0.0493402697979846 0.7626145795351602 0.6392378725936229	0.062585
C	0.0499714244768177 0.7343876348540521 0.3576118064601979	0.059927
C	0.4532816554730228 0.7630640905574737 0.3617565795715211	0.055230
C	0.2344613493063294 0.5498984136534937 0.3576818272353874	0.060001
C	0.2630745760395943 0.9532342172472709 0.3617711111588476	0.055754
C	0.2625939142465586 0.5492749610847293 0.6393032987867697	0.062478
C	0.2355861197283602 0.9537237326237054 0.6440109677843586	0.050763
C	0.7630459152413624 0.9532759793634289 0.6381822703557144	0.054978
C	0.7344150580828496 0.5500017234253678 0.6423554158253759	0.060390
C	0.7355712480382811 0.9537945481729109 0.3559020184383311	0.050556
C	0.7626588351066308 0.5494002930878882 0.3607432692572905	0.062814
C	0.5493884418850702 0.7626727680717404 0.3607190609370999	0.062943
C	0.9537553414094289 0.7355658089916538 0.3559158564818981	0.050926
C	0.9532486189775956 0.7630314486793401 0.6381738302682899	0.055669
C	0.5499981537291624 0.7344204473802207 0.6423145949913482	0.060075
H	0.2715069562736133 0.4145258241502388 0.7535514292519869	0.109054
H	0.2213455713770781 0.0885659917056079 0.7564181577751138	0.105687
H	0.2249931345198428 0.4158933768861728 0.2395660792141655	0.112474
H	0.2726651249512255 0.0878906460453798 0.2453785210584394	0.102127
H	0.0879744274992322 0.2726956728052841 0.2453975797002293	0.102345
H	0.4159628271316089 0.2249900498524358 0.2396077013953868	0.112615
H	0.4145780151133964 0.2715755918013670 0.7535905705149135	0.109055
H	0.0886246002290073 0.2212676896217886 0.7563476174293126	0.105644
H	0.9159494108460996 0.2248917010137981 0.7603527352053199	0.112410
H	0.5878486954901183 0.2727635134218107 0.7546749036848758	0.102085
H	0.5886405428715970 0.2213412683971733 0.2436929748412109	0.105746
H	0.9147156896959182 0.2717226369687253 0.2464983467417665	0.109299
H	0.7212899555099217 0.0886460860010792 0.2436649300383688	0.105663
H	0.7716768786115927 0.4147047168875577 0.2465158628510006	0.109197
H	0.7727225336461112 0.0878936190268737 0.7545747021601296	0.102025
H	0.7249127491635404 0.4160057092691114 0.7603650491771378	0.112583
H	0.4159797187717862 0.7248436470157812 0.7603618381632309	0.112243
H	0.0878674569987586 0.7726762583043796 0.7545586939654322	0.102159
H	0.0886329920482901 0.7212562875171545 0.2436135611118604	0.105624
H	0.4146795900717474 0.7717038771048333 0.2465375227226928	0.109216
H	0.2213535473737501 0.5885603181220975 0.2436571744402705	0.105753
H	0.2716955199798919 0.9146391523942786 0.2465037850415014	0.109109
H	0.2726786123945352 0.5877966751879060 0.7546703457225024	0.102259
H	0.2249136308433989 0.9159054122159805 0.7603656715226194	0.112517
H	0.7716685460809567 0.9146451009405583 0.7533992909467465	0.109142
H	0.7212723721546795 0.5886655869740527 0.7563685519349360	0.105480
H	0.7249348156991615 0.9160023209284934 0.2395293690774181	0.112348
H	0.7727412451891166 0.5879576991068390 0.2454325603625570	0.102214
H	0.5879336025041429 0.7727407513469153 0.2453434474261025	0.102095
H	0.9159403351323138 0.7249250826917436 0.2395693584146170	0.112531
H	0.9146045544583383 0.7716377856981689 0.7534537325899221	0.108950
H	0.5886344951181899 0.7212866143123413 0.7563021930621711	0.105673
Fe	0.2511974338318738 0.2511373589933348 0.4972707599393161	0.805615
Fe	0.7511995825673958 0.2512216160511296 0.5027048360628519	0.804709
Fe	0.2512029201131804 0.7511488459348805 0.5027128619663171	0.805016
Fe	0.7512055517842079 0.7512053183886399 0.4972396108644656	0.805341
Fe	0.2492727627802106 0.2492782119911112 -0.0032700254887469	1.502192
Fe	0.7492538283076099 0.2493388100656102 0.0033105411443594	1.501951
Fe	0.2493084300905895 0.7492924941858671 0.0032830810150198	1.501818
Fe	0.7492401099350823 0.7494087729333081 -0.0033162266075982	1.501461
F	0.2543429741242872 0.2542263334031546 0.7476786536183833	-0.551814
F	0.2497824818739555 0.2498535723731981 0.2460022742793729	-0.553734
F	0.1590820532888108 0.1584277644244778 -0.0126453393558256	-0.562432
F	0.2134683893656821 0.3708877379780853 -0.0020363042907818	-0.563286
F	0.3710501122522361 0.2141799965625772 -0.0019287497331920	-0.562962
F	0.7497818236986001 0.2497973817419088 0.7539532333564319	-0.553686
F	0.7545425385199885 0.2544905414503844 0.2524404104987631	-0.551504
F	0.6588496971528853 0.1587967970262724 0.0130926942614074	-0.562509
F	0.7137318461480957 0.3708998869426662 0.0019044638444511	-0.563011
F	0.8709460380409076 0.2141773787112827 0.0019941396194277	-0.562974
F	0.2497566338911276 0.7498701723028985 0.7538193932645977	-0.553653
F	0.2544503533190037 0.7545191458352218 0.2525189715797178	-0.551613
F	0.1587662053181864 0.6589455810651293 0.0129793413115162	-0.562258
F	0.2142055018615709 0.8709564255709308 0.0020055547839893	-0.562685
F	0.3708614587210098 0.7137888464317287 0.0018400269840645	-0.562844
F	0.7543780722996842 0.7544596623799107 0.7475815974581167	-0.551448
F	0.7498239807592566 0.7497718049496475 0.2459998146000006	-0.553607
F	0.6584915756993202 0.6591446812613073 -0.0128019294116025	-0.562437
F	0.7141715576114910 0.8711620408907788 -0.0019400961237181	-0.562728
F	0.8707906691880428 0.7137354344808747 -0.0020455834883041	-0.562771
N	0.4050543502083942 0.2502593506787382 0.4962976403670374	-0.206837
N	0.0981988507988011 0.2487029464250797 0.5009194002817278	-0.208363
N	0.2502563777730855 0.4050005772160213 0.4962608040658711	-0.206564
N	0.2487493712895776 0.0981491246173688 0.5009556487715570	-0.208369
N	0.9051721378982526 0.2502932215119044 0.5037015267031312	-0.206488
N	0.5981298354973710 0.2487762012640269 0.4991551444755112	-0.208762
N	0.7502669192811846 0.4051846980261125 0.5037146762860060	-0.206161
N	0.7487435234763852 0.0981343331497685 0.4990788146819582	-0.208514
N	0.4051475019786003 0.7502448907886777 0.5037242257460927	-0.206341
N	0.0981303288808059 0.7487067040220167 0.4990414721232058	-0.208503
N	0.2503106487630856 0.9050915269032377 0.5036869512391351	-0.206731
N	0.2487627521806596 0.5980800661154289 0.4991624792916606	-0.208421
N	0.9051028446586042 0.7502633665653834 0.4962083976864352	-0.206773
N	0.5981763318601003 0.7487749579387853 0.5008899570026465	-0.208943
N	0.7502545159686248 0.9051426047453806 0.4961934011118052	-0.206346
N	0.7487546674716777 0.5981913101575590 0.5009344397747000	-0.208716
	  	
