#======================================================================

# CRYSTAL DATA

#----------------------------------------------------------------------

data_VESTA_phase_1


_pd_phase_name                         FeFFIVE_7_Co
_cell_length_a                         18.72057
_cell_length_b                         18.72047
_cell_length_c                         8.19485
_cell_angle_alpha                      89.90327
_cell_angle_beta                       90.09547
_cell_angle_gamma                      90.01717
_symmetry_space_group_name_H-M         P 1
_symmetry_Int_Tables_number            1

loop_
_symmetry_equiv_pos_as_xyz
   x, y, z

loop_
   _atom_site_label
   _atom_site_fract_x
   _atom_site_fract_y
   _atom_site_fract_z
   _atom_site_charge
C	0.6682882421158178 0.8677975857512318 0.6972987351693477	0.089415
C	0.6160898004220127 0.9204114208201490 0.7006224075479782	-0.175458
C	0.5818294052550765 0.8861068809945214 0.4299836279989901	-0.170859
C	0.6345844745264070 0.8343480858027033 0.4349245244908201	0.091133
C	0.8319677315905724 0.6322006715200803 0.6964125267679366	0.093733
C	0.8840421116062535 0.5794326817331128 0.7008806852609069	-0.174954
C	0.9180712999328531 0.6139266914002501 0.4302910519528791	-0.171353
C	0.8654993746406678 0.6658756940684244 0.4341302551264916	0.085914
C	0.6320614831657758 0.6680380114964327 0.6966537296806611	0.089854
C	0.5793615978612446 0.6158948296965641 0.7005653682264215	-0.173631
C	0.6137980436177926 0.5817401310334677 0.4303578133276472	-0.170952
C	0.6656463467801833 0.6344216341722859 0.4347939816118971	0.088337
C	0.8679396313262516 0.8312860802280407 0.6967661335978567	0.093330
C	0.9204318791184773 0.8836806489966055 0.7008763930595431	-0.175421
C	0.8858196072472070 0.9180469596638328 0.4301297810428262	-0.171633
C	0.8337254249789472 0.8655760558754150 0.4347795027942773	0.088944
C	0.3312873288985702 0.3679403549245903 0.3032387771503512	0.093158
C	0.3836818837969245 0.4204328106601724 0.2991289180181580	-0.175288
C	0.4180452163224093 0.3858180668336259 0.5698749255410959	-0.171541
C	0.3655746738551985 0.3337235456372274 0.5652264132604353	0.088687
C	0.1680395850668674 0.1320623342164961 0.3033454460824180	0.089471
C	0.1158962425597214 0.0793630191817116 0.2994366133978579	-0.173485
C	0.0817411563401197 0.1137968797948964 0.5696455366717016	-0.170923
C	0.1344227736953884 0.1656453240599473 0.5652088806427137	0.088008
C	0.3677972918080094 0.1682882014820149 0.3026991791048778	0.089149
C	0.4204109090494428 0.1160897619862074 0.2993779639887405	-0.175319
C	0.3861075569283392 0.0818299749116817 0.5700208470030100	-0.170633
C	0.3343487377771295 0.1345852378318574 0.5650797285731873	0.090794
C	0.1322016256305769 0.3319662846888659 0.3035874611781766	0.093305
C	0.0794341327562580 0.3840411581877275 0.2991216328635792	-0.174766
C	0.1139276256301039 0.4180697076377384 0.5697087119493909	-0.171176
C	0.1658770276094619 0.3654979190487100 0.5658692350662272	0.085639
C	0.4314478582027486 0.0714738451302766 0.4353024463239470	0.137918
C	0.4870289982205869 0.0170111463918777 0.4330744956741021	-0.122479
C	0.0684363784361730 0.4285670707739730 0.4349387620496415	0.138658
C	0.0127291795962856 0.4829990198896226 0.4329568136642915	-0.122563
C	0.4283664937682793 0.4313458994763868 0.4350604727977008	0.140015
C	0.4828522316957417 0.4869957498336327 0.4330121022112876	-0.125073
C	0.0713156995452608 0.0683773229072406 0.4351213017855345	0.136826
C	0.0168604906822304 0.0127033225934809 0.4330163843686589	-0.120588
C	0.5683765472720682 0.5713147579036438 0.5648809437081093	0.136713
C	0.5127028778808919 0.5168592116423780 0.5669863710474589	-0.120449
C	0.9313464634500361 0.9283666993849834 0.5649439301505588	0.139910
C	0.9869961265982262 0.9828518329599661 0.5669918115500472	-0.124971
C	0.5714737727206310 0.9314480575164433 0.5647000678014803	0.137864
C	0.5170113844953588 0.9870297141044064 0.5669278855140077	-0.122333
C	0.9285684173796285 0.5684347482621452 0.5650621450991705	0.138584
C	0.9830004117602226 0.5127278727164193 0.5670454288863174	-0.122372
H	0.7028318588580513 0.8581084974836599 0.8023761291396951	0.108852
H	0.6112027017405532 0.9530832342106806 0.8100502661066384	0.119619
H	0.5481472219909238 0.8899040797994301 0.3218494728674283	0.117376
H	0.6444999753048175 0.7988441214923755 0.3324720427009503	0.103048
H	0.7966814582466694 0.6424821893021316 0.7992035159732318	0.103163
H	0.8892051095870120 0.5465855560311558 0.8102877921425221	0.117807
H	0.9515166237213165 0.6104825941121684 0.3220281810244445	0.119349
H	0.8562709089131422 0.7008611522696178 0.3296575232337491	0.109188
H	0.6424883238714961 0.7021403721996801 0.8013825682495817	0.108142
H	0.5468799103873073 0.6108507227852047 0.8102736733718828	0.118893
H	0.6101698599233306 0.5484875113160937 0.3217984794634106	0.119039
H	0.7000576373880063 0.6444735527570188 0.3304792680292518	0.107798
H	0.8586052554807805 0.7953073683146406 0.7994752243788659	0.104599
H	0.9534094850240459 0.8888003598516516 0.8100673892184063	0.118369
H	0.8895390908179128 0.9518213856442242 0.3221547627897756	0.118387
H	0.7974249625754671 0.8566137772775282 0.3326212164378598	0.105163
H	0.2953098346320115 0.3586059529177206 0.2005322491679896	0.104873
H	0.3888027912938500 0.4534092632419513 0.1899368237335343	0.118511
H	0.4518182108359150 0.3895360754258653 0.6778479246698651	0.118572
H	0.3566129707447999 0.2974224407318338 0.6673850176400444	0.105582
H	0.2021422623214910 0.1424906862275080 0.1986177912027210	0.108299
H	0.1108532748248156 0.0468824523851913 0.1897299623581299	0.119010
H	0.0484885079673732 0.1101683220514453 0.6782028792271509	0.119205
H	0.1444747827734182 0.2000546158596021 0.6695241322824432	0.108032
H	0.3581083557321940 0.2028326269633350 0.1976230015685159	0.108932
H	0.4530826577315210 0.1112029410302677 0.1899513854881945	0.119802
H	0.3899041753737854 0.0481482086926528 0.6781550197984252	0.117522
H	0.2988445629586335 0.1445004967453313 0.6675302651120375	0.103451
H	0.1424832902994616 0.2966805163378610 0.2007980375038622	0.103551
H	0.0465879317484819 0.3892042287854428 0.1897176322884246	0.117965
H	0.1104833454341837 0.4515135196297639 0.6779698873898239	0.119522
H	0.2008607518163420 0.3562692353994709 0.6703419845434703	0.109399
H	0.5066821075240933 0.0017556853234549 0.3124379256451091	0.103407
H	0.9930072482169483 0.4986966408310541 0.3123646243314587	0.103140
H	0.4984192585134651 0.5067329377485759 0.3124765005256362	0.104056
H	0.0014624104148203 0.9930505304169706 0.3123310623033601	0.102566
H	0.4930486367636734 0.5014601555471124 0.6876715768876929	0.102556
H	0.0067323833672316 0.9984179543597717 0.6875270396370791	0.104090
H	0.5017557255128273 0.0066822338246973 0.6875644317061941	0.103401
H	0.9986981335464773 0.4930058407380573 0.6876379801685242	0.103116
Co	0.2499418454400540 0.2499534290382341 0.4341133173223204	0.575689
Co	0.7499538418849508 0.7499412217262734 0.5658821030354412	0.592485
Fe	0.2505982614731495 0.2506334445376699 0.9348869679207438	1.483993
Fe	0.7506301145714970 0.7505954892142838 0.0650945856538288	1.504551
F	0.2504711137578262 0.2491155082851384 0.1705877652892372	-0.561289
F	0.2487300604740809 0.2501980528949217 0.6987596914781914	-0.561155
F	0.7491041029664409 0.7504622152697425 0.8294012071814538	-0.573462
F	0.7502017716154525 0.7487346788199960 0.3012152547627671	-0.572260
F	0.1793418412565045 0.1799898229736424 0.9357353549430503	-0.608908
F	0.2268267663272561 0.3479126624853345 0.9380132459497581	-0.608373
F	0.3475321097410225 0.2255294420761935 0.9307272254056720	-0.607815
F	0.7254824986172711 0.8475192230964700 0.0692500275671344	-0.606769
F	0.8479122425163391 0.7268396636499761 0.0619705880065105	-0.607263
F	0.6799906119926804 0.6793323530630355 0.0642363307361545	-0.608206
N	0.3251709350486301 0.1774395943525434 0.4338193454571109	-0.180879
N	0.1749507132457299 0.3227138350096228 0.4347080778062696	-0.181192
N	0.3224682197885310 0.3249578154506553 0.4341982657085457	-0.180019
N	0.1772411589256040 0.1747613262854929 0.4342120971796714	-0.184197
N	0.6747618545889275 0.6772406716740605 0.5657883106786054	-0.187382
N	0.8249578230879767 0.8224676209178032 0.5658073385651555	-0.183390
N	0.6774401783909344 0.8251706374409150 0.5661809123317709	-0.184161
N	0.8227141194960844 0.6749500398523568 0.5652908019325098	-0.184495
	  	
