#======================================================================

# CRYSTAL DATA

#----------------------------------------------------------------------

data_VESTA_phase_1


_pd_phase_name                         FeFFIVE_6_Co_i
_cell_length_a                         17.67769
_cell_length_b                         17.69814
_cell_length_c                         15.55636
_cell_angle_alpha                      89.80129
_cell_angle_beta                       90.01685
_cell_angle_gamma                      89.85401
_symmetry_space_group_name_H-M         P 1
_symmetry_Int_Tables_number            1

loop_
_symmetry_equiv_pos_as_xyz
   x, y, z

loop_
   _atom_site_label
   _atom_site_fract_x
   _atom_site_fract_y
   _atom_site_fract_z
   _atom_site_charge
N	0.2394298958557113 0.1306092437269282 0.1297198267662441	-0.207596
N	0.2589052517147073 0.3688481832840989 0.1348383578086848	-0.218258
N	0.3677045922579844 0.2421492661712212 0.1367312709331429	-0.214276
N	0.1300690598659911 0.2574423787866498 0.1293115917935707	-0.208416
N	0.7584341540793355 0.6310282919687429 0.3695599543700099	-0.253070
N	0.7413560267414209 0.8697601139163549 0.3754977180366433	-0.253670
N	0.6297707060998919 0.7390366930592700 0.3723199389763388	-0.255461
N	0.8680552522098826 0.7596894178487114 0.3724059846201665	-0.253940
N	0.7563714783071280 0.8648392152953471 0.8722988501057874	-0.255646
N	0.7451835418734083 0.6356238805242714 0.8723853934207209	-0.256889
N	0.6359390813580535 0.7554953131885664 0.8742794495650978	-0.252815
N	0.8645833449232168 0.7437511251858803 0.8711570691595201	-0.249735
N	0.2408081392549515 0.3683869156683046 0.6199891385602763	-0.260489
N	0.2570081385715258 0.1300447715340185 0.6289488110752159	-0.248522
N	0.3667345164984087 0.2593117558174535 0.6202618157362794	-0.261642
N	0.1295786013077787 0.2396534054206434 0.6269554967840842	-0.253998
C	0.1980629884085829 0.0932867557458462 0.1885256768112630	0.100453
C	0.1903960613657723 0.0152546225933745 0.1878302816110507	-0.185758
C	0.2286875081150030 0.9732425236426646 0.1250592746411434	0.113242
C	0.2724048191125699 0.0127122508374534 0.0646961350630484	-0.179259
C	0.2755998619111950 0.0910128611737526 0.0685827025535784	0.105212
C	0.2240765403190574 0.8902856112533506 0.1235835544180706	0.060947
C	0.2897225897350066 0.8475831195647805 0.1207978032476325	-0.173419
C	0.2869954511041666 0.7678975354378336 0.1228969282047611	0.085108
C	0.1479516953428727 0.7762847405542144 0.1255024728980831	-0.124297
C	0.1525679572277598 0.8538025489677804 0.1270055860124764	-0.138014
C	0.2982521692977786 0.4053885024523361 0.1960016148496181	0.100993
C	0.3072308524150740 0.4833941814920700 0.1949124651345753	-0.179159
C	0.2724779190239264 0.5260409186198783 0.1298561077191793	0.106166
C	0.2310971949281596 0.4873409423931103 0.0670770480066678	-0.182769
C	0.2263739353066115 0.4091298954075334 0.0710542704353194	0.096310
C	0.2775068654064689 0.6090537889951401 0.1276427112928672	0.063606
C	0.2119036129633853 0.6517696288718614 0.1235474005424564	-0.174494
C	0.2146014513292979 0.7314594477042633 0.1233649678220858	0.086685
C	0.3535945713980789 0.7230626156491786 0.1266725938483105	-0.125305
C	0.3489633817196843 0.6455576286127902 0.1304677186852679	-0.134792
C	0.4045225153490743 0.2016667063599031 0.1972103879187351	0.095128
C	0.4826203734854335 0.1923547757906906 0.1956743023500077	-0.178821
C	0.5249630767267138 0.2280259056395459 0.1311533730881760	0.107829
C	0.4858943247633322 0.2707872782156600 0.0693896318352619	-0.179539
C	0.4076460181445664 0.2755371369263053 0.0735869545650089	0.104367
C	0.6080436517383986 0.2225722658941477 0.1282952056116658	0.061464
C	0.6507380555187373 0.2879331893669008 0.1240553640249807	-0.174815
C	0.7305233098253328 0.2849115527960122 0.1228648058816151	0.085815
C	0.7222807910909963 0.1461284798515414 0.1254160787471731	-0.124872
C	0.6447111680355652 0.1510319499133014 0.1301440118326392	-0.132923
C	0.0927216621447367 0.2972262469561232 0.1895953271367778	0.092892
C	0.0146198127807866 0.3058614853084443 0.1876671213359462	-0.183064
C	0.9727390448014419 0.2701568552538169 0.1229713653670627	0.107140
C	0.0124150589455614 0.2284003814857778 0.0611235955781190	-0.182581
C	0.0908373297378119 0.2243162479466121 0.0656187091432616	0.098547
C	0.8895919144436338 0.2750455162999865 0.1215523717990855	0.062354
C	0.8469138298614227 0.2096214128855402 0.1185467217281410	-0.174114
C	0.7671181121119639 0.2124849316087011 0.1215390513310197	0.085472
C	0.7752915397983061 0.3513302524926881 0.1249435175853296	-0.122128
C	0.8529381482005193 0.3465157276073833 0.1258071185091632	-0.138935
C	0.8000297520015834 0.5955596290963051 0.3095039756313187	0.101117
C	0.8091926931367239 0.5175641576063544 0.3089215480226665	-0.181083
C	0.7721189245619378 0.4739145356049753 0.3713512527495830	0.108592
C	0.7286071044170752 0.5115841308590607 0.4331953137422326	-0.178837
C	0.7241269553135409 0.5898439220867806 0.4308838389186278	0.111471
C	0.7773829075467203 0.3909412201317223 0.3724280945491890	0.062451
C	0.7118769746901997 0.3483674640014106 0.3759829422379397	-0.173113
C	0.7148349674407654 0.2687054915061750 0.3766628760389995	0.083796
C	0.8538005460294736 0.2768383732426819 0.3742009312501204	-0.125274
C	0.8489890523091236 0.3543431059515114 0.3701400282595024	-0.138091
C	0.7014709580767741 0.9067301083809206 0.3147128968608782	0.101851
C	0.6932108208304802 0.9847720949911506 0.3151758398011967	-0.182020
C	0.7294859671950294 0.0269703283633340 0.3790263520631209	0.106477
C	0.7718340023239333 0.9878747150601088 0.4411643871269905	-0.182537
C	0.7754869886144885 0.9094817105198756 0.4380569616522967	0.099252
C	0.7246851580979961 0.1099570198876631 0.3791829292724441	0.062646
C	0.7902329284428106 0.1524838429266505 0.3815033374210561	-0.173369
C	0.7873479907699470 0.2321374689495839 0.3780162624998843	0.084640
C	0.6482903473323423 0.2240669029358489 0.3747316229804443	-0.122724
C	0.6531208121734812 0.1465266701437212 0.3746359892655882	-0.135300
C	0.5942670939881005 0.6992850003786516 0.3107916007733557	0.100086
C	0.5161768597983889 0.6905834194035990 0.3099566739478886	-0.182873
C	0.4726267420469272 0.7265442193135594 0.3730754991428393	0.105802
C	0.5103414147308584 0.7685434904988102 0.4360126079463579	-0.182413
C	0.5887288759113742 0.7725726595711395 0.4343151676204086	0.096993
C	0.3895848852070532 0.7219608118261486 0.3733672091595682	0.061659
C	0.3471673946256219 0.7877111564725281 0.3767083831126987	-0.174475
C	0.2674061629542879 0.7853479816350153 0.3761770716258003	0.082076
C	0.2752360286776927 0.6464392990516992 0.3728588066015763	-0.124782
C	0.3528485242518464 0.6507374848916756 0.3700377445946086	-0.134977
C	0.9043867078136792 0.8006625064185682 0.3124897005607268	0.112928
C	0.9824547910528233 0.8092087457996996 0.3128732643761785	-0.182522
C	0.0252967976873106 0.7718868210448052 0.3758941643576125	0.110297
C	0.9868214086512377 0.7283137896629887 0.4372326592341450	-0.181962
C	0.9084958208881402 0.7244457977077963 0.4338843046905358	0.107234
C	0.1083527414295112 0.7765106789136301 0.3764973665150534	0.060755
C	0.1509171559657949 0.7107934139967009 0.3787784140884146	-0.174060
C	0.2306780768084947 0.7131765639245139 0.3764429315232023	0.088180
C	0.2227566959265249 0.8520782396413787 0.3741890527277645	-0.123377
C	0.1451041394005360 0.8477898282786410 0.3729987602934606	-0.139322
C	0.7935024125512863 0.9019278316251128 0.8091020291820752	0.096485
C	0.8004079610709545 0.9802574152109793 0.8081412569777893	-0.182756
C	0.7659944810645376 0.0239916446690694 0.8724812052011257	0.104724
C	0.7264676311305509 0.9844663751453588 0.9365653616802444	-0.178276
C	0.7237731805335414 0.9058149272647024 0.9353697400921503	0.094027
C	0.7720231483798312 0.1076085979768340 0.8733822339080805	0.063886
C	0.7081258005778609 0.1531135890520996 0.8771024799716057	-0.172256
C	0.7136663984572655 0.2330582587806884 0.8764414180836626	0.081708
C	0.8518337312952342 0.2198942885733703 0.8727927284439702	-0.126117
C	0.8444883058762527 0.1424585656432388 0.8699901728894968	-0.138139
C	0.7073130045214465 0.5984409546075775 0.8102997588738248	0.108274
C	0.6999127368087524 0.5201870991969089 0.8103799887667422	-0.178578
C	0.7348777871224867 0.4765607849098659 0.8747128995780237	0.108867
C	0.7757252485619595 0.5160678052146074 0.9375814399699679	-0.179135
C	0.7786504595998393 0.5946309229890968 0.9351501968635983	0.101508
C	0.7286756256089155 0.3929420998225216 0.8756765665629493	0.061744
C	0.7926060088659829 0.3473959083012662 0.8782624044790895	-0.174784
C	0.7870593592100331 0.2674874940323138 0.8764029784862406	0.088252
C	0.6488503097916088 0.2806822497534864 0.8741594186229310	-0.121863
C	0.6561603520990157 0.3581677148300890 0.8723714552893564	-0.136914
C	0.5980952976941053 0.7924577624991868 0.8113774644002079	0.098639
C	0.5196622633055635 0.7992576903568990 0.8114153331279630	-0.179470
C	0.4766045465311278 0.7650193455555134 0.8764924966210049	0.106413
C	0.5167912189567095 0.7254352124374014 0.9402485146488895	-0.179659
C	0.5955434523248730 0.7227711259560566 0.9380056905303432	0.101342
C	0.3928520280466547 0.7709527893457038 0.8770515808105747	0.060320
C	0.3476620640170126 0.7070600564003789 0.8796242198639532	-0.171656
C	0.2676324522544709 0.7124686058457389 0.8769941490341059	0.086136
C	0.2799852432478374 0.8505117847369561 0.8741232272264833	-0.123515
C	0.3576062531309742 0.8433350599608624 0.8730801390857198	-0.136669
C	0.9015191294390273 0.7056610883578348 0.8088123755464343	0.099655
C	0.9799128721641522 0.6982867639271243 0.8078452727924498	-0.181955
C	0.0238549691364984 0.7333061773535330 0.8715020093554380	0.111686
C	0.9845518356745084 0.7735695708701652 0.9349776392572752	-0.177421
C	0.9058960475944464 0.7765045821513528 0.9336843857069371	0.106495
C	0.1075346349282903 0.7272006844717809 0.8726287041698344	0.060539
C	0.1526641921347268 0.7911081214051988 0.8763586982317849	-0.172501
C	0.2327226745582019 0.7857200992736587 0.8763079009065680	0.081989
C	0.2203989542731577 0.6477085333466334 0.8733756198983481	-0.122727
C	0.1428216881025857 0.6548470550314436 0.8698424033634053	-0.135345
C	0.2021718911786393 0.4046273066823148 0.6821624293952935	0.099571
C	0.1946739419875018 0.4827084097002781 0.6832804308036891	-0.184910
C	0.2300120894814179 0.5258387124245175 0.6191930584187619	0.107307
C	0.2708649586083920 0.4875542768690950 0.5555504825998385	-0.178466
C	0.2742300957083574 0.4090886520154044 0.5573966938108591	0.108088
C	0.2253777931500769 0.6089096312994479 0.6200460308453808	0.063415
C	0.2908805698497863 0.6515456461873348 0.6180117695659152	-0.173750
C	0.2879173122412092 0.7311908545087662 0.6217630859906982	0.085669
C	0.1488781765777072 0.7229324107197902 0.6248831592863161	-0.121895
C	0.1537944261308111 0.6453916380402335 0.6247794797832417	-0.137764
C	0.2995685537915205 0.0947837535509552 0.6885512607415228	0.107278
C	0.3093936588077928 0.0168374167204109 0.6894089774283961	-0.183228
C	0.2721975189517235 0.9729020381620721 0.6276672784903568	0.113803
C	0.2275580749214703 0.0103623553731131 0.5663253095500634	-0.182068
C	0.2222065230582670 0.0885082726960152 0.5686293375910089	0.106866
C	0.2778067526556456 0.8899807164723554 0.6269014890550514	0.058708
C	0.2123426258842108 0.8473138183418619 0.6234413550804937	-0.175446
C	0.2153744086997189 0.7676530611532960 0.6230415580252225	0.084251
C	0.3543193252267346 0.7759720312683986 0.6256082840726074	-0.124831
C	0.3494604659431720 0.8534678585232351 0.6294582284506967	-0.134882
C	0.4024241842469232 0.2989178462204057 0.6817498480564397	0.109918
C	0.4804898649494119 0.3070455439278648 0.6832294641393242	-0.181502
C	0.5242017629482636 0.2708970246661987 0.6203596002112406	0.108455
C	0.4864010287435963 0.2291674442989244 0.5571841772122729	-0.176418
C	0.4079134782986322 0.2254816937988655 0.5584725673151606	0.104328
C	0.6073487697331449 0.2755310128554232 0.6215029973382357	0.064013
C	0.6502270241032700 0.2100033139901816 0.6198495022631857	-0.175512
C	0.7300001995366798 0.2127779655004002 0.6229316911668688	0.084916
C	0.7214331893895988 0.3516205329096612 0.6251536783992360	-0.125613
C	0.6437869708487099 0.3469452786937804 0.6256533700660510	-0.135471
C	0.0940179380325074 0.2001195017330940 0.6889015389946798	0.101176
C	0.0158539575860283 0.1915908568979527 0.6898076274891072	-0.185797
C	0.9721801917171374 0.2274098310145173 0.6263413567528137	0.109496
C	0.0100438890410373 0.2696196700848268 0.5632541099655384	-0.184895
C	0.0884608790893339 0.2735242264684613 0.5648996478833562	0.098066
C	0.8890658584378142 0.2224494739167281 0.6259851200343380	0.060810
C	0.8461872616333300 0.2879357465465119 0.6225898644869027	-0.172980
C	0.7664024077057013 0.2851208232883861 0.6232585470868551	0.084601
C	0.7750223163634378 0.1463406725083528 0.6267196775447053	-0.122946
C	0.8526311700723512 0.1510225393377392 0.6295734751508258	-0.138373
H	0.1716238435962707 0.1282252685453744 0.2377203103786276	0.095069
H	0.1568282475184551 0.9868945489774190 0.2370715427082025	0.110817
H	0.3022317151811825 0.9823539979142040 0.0140668813512151	0.114816
H	0.3069924548374025 0.1241734142869925 0.0214424669292032	0.100265
H	0.3446918258517134 0.8755247076361214 0.1198917338352861	0.108481
H	0.0930508294552109 0.7481981811813774 0.1267342851215337	0.110117
H	0.1014035889383884 0.8883795667974741 0.1290856582430394	0.099024
H	0.3223852599302302 0.3713496700949360 0.2479728897576665	0.096813
H	0.3390420291737940 0.5107525015367742 0.2460897370804757	0.115549
H	0.2041865351779148 0.5180293250252140 0.0143732659435048	0.114195
H	0.1976397217876948 0.3772583601116821 0.0208108322673867	0.105269
H	0.1569310126668169 0.6238257891099773 0.1231138670666198	0.108957
H	0.4085270633534974 0.7511340515613303 0.1274114319961847	0.106510
H	0.4000226161883022 0.6109042781822702 0.1338892104320390	0.101341
H	0.3701618738718360 0.1780424607584964 0.2491167188680975	0.108414
H	0.5104327781566792 0.1594620051495984 0.2460280454102858	0.114647
H	0.5163361537775919 0.2985612999931234 0.0172338161402007	0.114775
H	0.3749362306099201 0.3050456626014167 0.0244499203731052	0.102330
H	0.6227693859623380 0.3430000519882875 0.1242068360587301	0.109525
H	0.7503180889146086 0.0910903580349387 0.1254494641414626	0.106545
H	0.6101609907785513 0.1000976382427930 0.1334404288617617	0.101697
H	0.1269055263886970 0.3209396711005146 0.2414433846316533	0.108772
H	0.9861476514545352 0.3381086533075242 0.2377856122235969	0.113509
H	0.9822699470176147 0.2005639682726481 0.0089417957083738	0.115401
H	0.1240123575621258 0.1947272196985167 0.0168836829180519	0.102397
H	0.8750327806696726 0.1546513908788980 0.1168030498006114	0.105892
H	0.7469533636744550 0.4061771157345888 0.1269159370516245	0.107107
H	0.8875459302086156 0.3974434668598345 0.1281027120544393	0.099517
H	0.8258792350286471 0.6316310926601106 0.2606381600422133	0.094475
H	0.8431049668400229 0.4906387738952683 0.2590618249884954	0.110998
H	0.7002287611686072 0.4799067748993932 0.4839854495485316	0.113705
H	0.6940986794037834 0.6214519979452205 0.4802631215486181	0.098656
H	0.6567614892029332 0.3763345806504339 0.3761281066230199	0.110495
H	0.9088082654674423 0.2486579126751035 0.3740661678487771	0.103372
H	0.8999636660374108 0.3889068226917329 0.3673810530643382	0.101706
H	0.6777837758065824 0.8725543396150781 0.2630580707946966	0.102727
H	0.6609688397249436 0.0127596565024385 0.2644495543415163	0.113172
H	0.8003618029788012 0.0184790514310018 0.4925140880058523	0.111167
H	0.8057376975526379 0.8768613440602410 0.4870204939351730	0.098384
H	0.8452290316894691 0.1242878029120803 0.3833582572395777	0.104692
H	0.5933496952359352 0.2523443126357517 0.3726960540320256	0.110098
H	0.6021519718969053 0.1118960293472964 0.3728138248169290	0.101495
H	0.6298776956057315 0.6752380450094324 0.2603513041214051	0.099855
H	0.4892989772055003 0.6580887256276768 0.2590111887014979	0.112465
H	0.4787151946346889 0.7963502739376259 0.4871127303491193	0.112022
H	0.6199746777001678 0.8016770221089019 0.4848864332736349	0.103707
H	0.3754772075788135 0.8424607221474744 0.3775547745954712	0.109724
H	0.2468245456954314 0.5917447954634042 0.3719349434046599	0.108803
H	0.3873715696842768 0.5996070526862507 0.3672355878697579	0.102834
H	0.8691243897638641 0.8254030898986755 0.2622657341988384	0.096354
H	0.0101129075533200 0.8423493240692626 0.2627827996685815	0.110566
H	0.0179396734426899 0.6990613693577346 0.4879454398786494	0.112552
H	0.8759807496934688 0.6930500544537417 0.4816339550435189	0.093827
H	0.1227447791263123 0.6559873265670582 0.3798465717791035	0.109211
H	0.2512152692908943 0.9067498120878433 0.3731456860815524	0.105558
H	0.1105548483821266 0.8989626503976065 0.3712015571418714	0.097481
H	0.8170955732074484 0.8673162682183694 0.7576630207190344	0.100073
H	0.8312088285004370 0.0070670662291559 0.7556117607163618	0.112608
H	0.6994308096488282 0.0145698937389044 0.9893659315038968	0.112220
H	0.6970636034159160 0.8744530727148897 0.9877306527578452	0.104203
H	0.6520206485524572 0.1274496876738559 0.8782892896606972	0.108618
H	0.9078734065283178 0.2457880383860107 0.8715457084407890	0.104287
H	0.8946679703726986 0.1065306913753367 0.8668810841944901	0.100076
H	0.6844539257131066 0.6330350142908787 0.7584090884481923	0.098577
H	0.6686953961651871 0.4932345102313901 0.7584622404503270	0.113692
H	0.8036239190672047 0.4857992033520154 0.9899325648639647	0.112558
H	0.8072943028697144 0.6269486088507136 0.9849134069143557	0.096745
H	0.8487174724454574 0.3730517123254120 0.8792264564421977	0.107576
H	0.5927855842145917 0.2548601069675256 0.8731691473737550	0.108053
H	0.6058963076326311 0.3940575954562526 0.8701823530192817	0.100389
H	0.6317680802351533 0.8150656910666111 0.7584945319786218	0.104192
H	0.4922093020475093 0.8295077963713284 0.7587861839838859	0.114195
H	0.4869410979157680 0.6981146018466388 0.9931754975039658	0.113516
H	0.6277493822390158 0.6948019326477847 0.9889414614410507	0.099783
H	0.3737752451047286 0.6510962677260580 0.8812012734917538	0.107662
H	0.2536087784666125 0.9063864596617631 0.8724717440267986	0.105757
H	0.3933213417249822 0.8935147691563566 0.8707005838916705	0.100428
H	0.8661941136604963 0.6812406647382169 0.7586600458523947	0.097934
H	0.0067814295274430 0.6665879728458722 0.7561655051285213	0.114847
H	0.0150094546291094 0.8006805361151833 0.9873543405634080	0.114748
H	0.8741054992393091 0.8034527855150009 0.9851261288645242	0.100121
H	0.1266090937106407 0.8471177903280965 0.8770086093952804	0.108628
H	0.2466527679315649 0.5917680920729950 0.8727979170809729	0.106554
H	0.1072749757307524 0.6045968108269396 0.8667751086687752	0.102782
H	0.1788657789029585 0.3697948369922488 0.7336797025294727	0.102461
H	0.1636934746493382 0.5099323305267803 0.7353032524541711	0.112571
H	0.2986107911505876 0.5186227045469955 0.5038243898708322	0.113591
H	0.3040221243159575 0.3780271575616155 0.5070477438912511	0.093614
H	0.3458880151713766 0.6234321939677906 0.6158631131446446	0.107684
H	0.0939196349352616 0.7511826663746597 0.6267573963840686	0.104973
H	0.1028776850129931 0.6106905971612512 0.6265160630051707	0.099552
H	0.3254451111498248 0.1310415848647711 0.7368977965767436	0.096866
H	0.3439713458937052 0.9901936190344793 0.7390851447803031	0.112978
H	0.1988405708207900 0.9784866883710247 0.5161371417505718	0.109647
H	0.1904168384106316 0.1202717817747146 0.5205479045207990	0.094051
H	0.1571858337166119 0.8752186700047562 0.6231332881078800	0.108457
H	0.4093638010616252 0.7478718568693099 0.6257423670759432	0.106208
H	0.4004769149509663 0.8879716159448823 0.6321541113208187	0.103403
H	0.3665782936198097 0.3228402842833990 0.7317793221070329	0.096548
H	0.5073181592236452 0.3391048065944134 0.7345667315197710	0.112596
H	0.5180439531956134 0.2011898613824551 0.5061865391586808	0.113106
H	0.3766106110706088 0.1959213761739199 0.5082316869897644	0.101071
H	0.6222475971258975 0.1551016935131048 0.6183649366559751	0.108707
H	0.7495331218770046 0.4064609956040227 0.6263984936870532	0.107746
H	0.6090440281754766 0.3979888406402572 0.6273357286900814	0.100705
H	0.1297566120322493 0.1761024043725010 0.7394718812863208	0.101458
H	0.9889396237933171 0.1591643693931464 0.7410298893518108	0.114525
H	0.9783427386396272 0.2978423073623819 0.5122339362571418	0.111685
H	0.1201602104093778 0.3031981759752669 0.5148529714158667	0.103771
H	0.8740490003460614 0.3429070929708921 0.6215904720056775	0.108003
H	0.7469526987178334 0.0914815198584387 0.6275361113628307	0.105259
H	0.8873767715216025 0.1000303898576827 0.6325855985276746	0.100149
F	0.3266492278411148 0.1788827197196779 0.3791074255633485	-0.611739
F	0.1841176699007860 0.3290184640776898 0.3798317494293819	-0.617929
F	0.3429346478013336 0.3369855011550952 0.3830079976210369	-0.595337
F	0.6817196555860630 0.6650150226779622 0.1250829229598684	-0.605731
F	0.6943818778378257 0.8437779182345319 0.1203388348282581	-0.604741
F	0.8504069405649213 0.7375813317386346 0.1297117199492322	-0.618469
F	0.6561233492321986 0.8057536114516762 0.6176331226030448	-0.601627
F	0.7584407620805939 0.6487787749586466 0.6237922684571301	-0.616469
F	0.8351255499123674 0.8165938726487829 0.6165744266705934	-0.606006
F	0.1848218292822991 0.1662559801234074 0.8791788020877404	-0.608485
F	0.3514531495129270 0.2429380170843820 0.8761612784774158	-0.614682
F	0.1961016774223268 0.3442847060927400 0.8794681858241309	-0.604535
F	0.2415372232922143 0.2418449109484038 0.2630044494859757	-0.560905
F	0.2399429474215025 0.2381926785704053 0.4949539216791269	-0.567431
F	0.7451577343143300 0.7561085720474927 0.2469990122135378	-0.560039
F	0.7524082651675650 0.7491776314530938 0.0041536504629490	-0.564135
F	0.7487086364070034 0.7541695358981096 0.7407421473385934	-0.564122
F	0.7480182543293766 0.7469814632412605 0.4972769717948582	-0.560837
F	0.2480275887120940 0.2530919722477413 0.7529803292614755	-0.575679
F	0.2513460727540165 0.2519624261074658 0.0042433195098648	-0.573090
Co	0.2489208490944494 0.2498685459521006 0.1337851491802683	0.665007
Co	0.7487181283974357 0.7504285957585780 0.3719326633109663	0.831016
Co	0.7504188463335073 0.7501511838388332 0.8724429776572891	0.831275
Co	0.2483845582877052 0.2493532561599488 0.6240883901055181	0.835156
Fe	0.2660529060831977 0.2642993060405452 0.3795132390846743	1.525908
Fe	0.7447549317447637 0.7499857798398264 0.1246031166075242	1.524670
Fe	0.7494287567152647 0.7546488303215011 0.6198680423613460	1.521685
Fe	0.2464478395393064 0.2515782626966732 0.8782174292214341	1.528833
	  	
