#======================================================================

# CRYSTAL DATA

#----------------------------------------------------------------------

data_VESTA_phase_1


_pd_phase_name                         FeFFIVE_16_Ni_i
_cell_length_a                         25.03975
_cell_length_b                         25.03971
_cell_length_c                         7.81012
_cell_angle_alpha                      90.00109
_cell_angle_beta                       89.99784
_cell_angle_gamma                      90.01930
_symmetry_space_group_name_H-M         P 1
_symmetry_Int_Tables_number            1

loop_
_symmetry_equiv_pos_as_xyz
   x, y, z

loop_
   _atom_site_label
   _atom_site_fract_x
   _atom_site_fract_y
   _atom_site_fract_z
   _atom_site_charge
C	0.4780161710426405 0.3886815700655421 0.3699674303000264	0.101506
C	0.4771950119350049 0.3332100454375516 0.3650365022550095	-0.172718
C	0.9548546964321479 0.6135287214366643 0.9431761805563862	-0.123368
C	0.9549929411844574 0.5580760377186620 0.9439236949784457	-0.124040
C	0.5220321332825975 0.6116872155712363 0.3680863545507116	0.105602
C	0.5231455633512229 0.6671230455960065 0.3632038591045326	-0.172331
C	0.0451654875748847 0.3866473102131051 0.9431032823639804	-0.123532
C	0.0450055155359294 0.4420972855826241 0.9438350976886863	-0.125241
C	0.6116064630262407 0.4780285972642811 0.3708552727787733	0.098789
C	0.6670491170388222 0.4770343032663075 0.3658812043425955	-0.173073
C	0.3866228060779104 0.9548362382828121 0.9431491163039819	-0.123567
C	0.4420667574094106 0.9549988232304227 0.9439874750362603	-0.124555
C	0.3887155671157803 0.5219724838853605 0.3686177223149514	0.104295
C	0.3332520214385821 0.5229427348835376 0.3634363891143732	-0.173441
C	0.6135530410377259 0.0451787502738878 0.9431103585104388	-0.123794
C	0.5580968788779325 0.0450043082402678 0.9438906680512315	-0.124134
C	0.5219727465201464 0.3887110596133705 0.6313788134322106	0.104826
C	0.5229437812006942 0.3332490493203463 0.6365623308405948	-0.173879
C	0.0451782750243564 0.6135528739327059 0.0568913183445661	-0.123746
C	0.0450032892775618 0.5580976936022461 0.0561098125651592	-0.124060
C	0.4780286444339251 0.6116101061849112 0.6291428497196025	0.098885
C	0.4770335318799506 0.6670499128361013 0.6341194601182845	-0.173041
C	0.9548361802521322 0.3866204307727347 0.0568499785336880	-0.123743
C	0.9549984409523716 0.4420639288859103 0.0560132934009060	-0.124637
C	0.3886870922940203 0.4780152973284538 0.6300286659389907	0.102482
C	0.3332133116180777 0.4771940157336098 0.6349635212364724	-0.172722
C	0.6135282199287350 0.9548548089823788 0.0568273704374311	-0.123294
C	0.5580747736891466 0.9549934966048836 0.0560782465191144	-0.123953
C	0.6116820898961287 0.5220309540629423 0.6319098606462002	0.105226
C	0.6671206952287431 0.5231461635430281 0.6367943576428531	-0.172398
C	0.3866484265451013 0.0451674811133676 0.0568988011457502	-0.123562
C	0.4420995069390791 0.0450060506170996 0.0561671194619504	-0.125209
C	0.5451640461008138 0.8866416324613636 0.5568864704546745	-0.125762
C	0.5450003143015039 0.9420910047865156 0.5561573380324848	-0.127875
C	0.0220446023006836 0.1116749985405651 0.1318939235068254	0.104317
C	0.0231441433013731 0.1671138880544961 0.1367649350488715	-0.169859
C	0.4548588476023548 0.1135392348794753 0.5568205286776104	-0.125253
C	0.4550001774425846 0.0580831997544181 0.5560695272188975	-0.126646
C	0.9780107853588662 0.8887050659793247 0.1301204816474381	0.100282
C	0.9771984432472315 0.8332235798170848 0.1349851396084814	-0.170511
C	0.1135639475213458 0.5451706342148296 0.5568716961029820	-0.125425
C	0.0581044304214848 0.5449972418582072 0.5560965889393010	-0.126754
C	0.8887190886799226 0.0219738199004642 0.1313988019167103	0.102646
C	0.8332482506033350 0.0229397104967395 0.1365772597481974	-0.171786
C	0.8866113745256560 0.4548389976335927 0.5568468116225590	-0.125690
C	0.9420560261720468 0.4550048915963525 0.5560046644573063	-0.127059
C	0.1116001677447568 0.9780091056285598 0.1291792253242557	0.097053
C	0.1670446940644537 0.9770359246148482 0.1341252056248383	-0.170677
C	0.4548392356581619 0.8866143307680256 0.4431522778716167	-0.125568
C	0.4550048675124708 0.9420581563684141 0.4439963245230725	-0.127243
C	0.9780101451457180 0.1115978719335095 0.8708236708959627	0.097519
C	0.9770363855212647 0.1670407064661571 0.8658747730564204	-0.170667
C	0.5451724082923719 0.1135628187400321 0.4431240790045285	-0.125571
C	0.5449980764226419 0.0581037869101868 0.4439017449267768	-0.126747
C	0.0219749681851689 0.8887245767239867 0.8686011439211572	0.103100
C	0.0229404248894989 0.8332529704494717 0.8634276074874198	-0.171721
C	0.8866392075937459 0.5451619089787590 0.4431171986789336	-0.125732
C	0.9420893573965250 0.5449997126023796 0.4438451504739410	-0.127857
C	0.1116794768820133 0.0220430943189807 0.8681056303986380	0.103882
C	0.1671193412845991 0.0231436855287439 0.8632349340333616	-0.169940
C	0.1135403686265550 0.4548604162395806 0.4431798250358479	-0.125329
C	0.0580835591851238 0.4550006849291648 0.4439312528126230	-0.126620
C	0.8887006797823096 0.9780114849009017 0.8698802225567388	0.100082
C	0.8332195828638717 0.9771984333094246 0.8650145653059477	-0.170817
C	0.5000360648462965 0.3041619728333252 0.5008616846461612	0.169976
C	0.5000310853672055 0.2475305017329514 0.5006862139526156	-0.107496
C	0.5000319428678958 0.1988260937812650 0.5003018399527862	-0.104582
C	0.5000234752395284 0.1422168784831626 0.5000289629031078	0.127369
C	0.4999998283047088 0.0294794388704866 0.5000128207193799	0.065854
C	0.0000329959245010 0.8041667591589050 -0.0008503386104475	0.177979
C	0.0000280936572192 0.7475244013520682 -0.0006906142419135	-0.119429
C	0.0000339072203412 0.6988134789674012 -0.0003030996281818	-0.088678
C	0.0000240879363917 0.6422007370314307 -0.0000246265242321	0.121510
C	0.0000000876851582 0.5294769997852898 -0.0000105563720538	0.068206
C	0.5000255392880029 0.6961191091572863 0.4986386976135091	0.169520
C	0.5000125427030226 0.7527253553772214 0.4989168780660119	-0.105786
C	0.5000138074468136 0.8014179226832772 0.4995155688627807	-0.105866
C	0.5000109207810085 0.8579854674835037 0.4999283307134548	0.128010
C	0.5000021835836275 0.9706872302221453 0.5000663412917250	0.066772
C	0.0000266079344196 0.1961140551387083 0.0013397780622772	0.178020
C	0.0000026801351909 0.2527289487527744 0.0010782485729566	-0.118725
C	0.0000135881035784 0.3014226942891621 0.0004972538782095	-0.089315
C	0.0000104776635626 0.3579962379311904 0.0000696173962654	0.121801
C	0.0000012014402393 0.4706873039215250 -0.0000642037895653	0.069096
C	0.6961145127472169 0.5000265928704262 0.5013593400630131	0.170012
C	0.7527223658978519 0.5000126706743868 0.5010727611490069	-0.106056
C	0.8014139381022410 0.5000120031983203 0.5004882282161374	-0.105528
C	0.8579832862720856 0.5000088334902524 0.5000745893001537	0.128019
C	0.9706861722270550 0.5000020923082703 0.4999349952562207	0.066897
C	0.1961195459380770 0.0000272459214759 -0.0013403436904092	0.178251
C	0.2527349236432682 0.0000054165987129 -0.0010827588266653	-0.119158
C	0.3014284429940398 0.0000152170849015 -0.0004965495697007	-0.088924
C	0.3580002359217055 0.0000118503577559 -0.0000702540873217	0.121515
C	0.4706877428576422 0.0000018424907300 0.0000654239209445	0.069170
C	0.3041660830001051 0.5000342656897353 0.4991367011431039	0.169758
C	0.2475342444847962 0.5000281792214443 0.4993137243868676	-0.107059
C	0.1988291725344732 0.5000300175984765 0.4996971327336364	-0.104836
C	0.1422189575158413 0.5000232521022062 0.4999676391581637	0.127542
C	0.0294785976605234 0.5000000087931572 0.4999885786295887	0.065825
C	0.8041626374279820 0.0000338266513352 0.0008518180350422	0.177909
C	0.7475209617333365 0.0000282695417759 0.0006874599256385	-0.119396
C	0.6988118152854308 0.0000335189631348 0.0003035388480624	-0.089031
C	0.6421975763523452 0.0000245541762805 0.0000261413721806	0.121499
C	0.5294773431465192 0.0000000043696510 0.0000116590270941	0.068201
H	0.4612663547769751 0.4122222379920009 0.2651702741036950	0.106869
H	0.4591024942217020 0.3125849694270314 0.2569430590836213	0.124341
H	0.9200554963109088 0.6353983956992539 0.8973964852625558	0.109995
H	0.9202811205400143 0.5363525946055117 0.8961712408446815	0.107625
H	0.5384285886030723 0.5879571442716033 0.2638924105599497	0.102951
H	0.5411175256872509 0.6878131673530112 0.2550569418760367	0.122442
H	0.0799738265581026 0.3647789308694727 0.8973674736532158	0.109546
H	0.0797107725742574 0.4638329169027987 0.8961714472725630	0.108033
H	0.5880895191963117 0.4621501227486918 0.2649854050916711	0.108409
H	0.6875681099671649 0.4591528362950919 0.2572654164345183	0.124939
H	0.3647109018329741 0.9200438894608621 0.8973883083403195	0.110097
H	0.4637630939297661 0.9202982359658718 0.8962565731420931	0.107986
H	0.4125916580190028 0.5391807129225741 0.2656110846955040	0.101827
H	0.3125791769221025 0.5411419885947191 0.2556158098336074	0.123719
H	0.6354242271760523 0.0799966792349573 0.8973438841407382	0.109827
H	0.5363767836465774 0.0797057018460693 0.8961703686263955	0.107564
H	0.5391807214913663 0.4125887710698878 0.7343844896658626	0.101593
H	0.5411427292599460 0.3125735677269643 0.7443757563498519	0.123707
H	0.0799943426557191 0.6354253884863253 0.1026548705263029	0.109819
H	0.0797061379207063 0.5363780112023054 0.1038318433498246	0.107509
H	0.4621524562923320 0.5880917880563560 0.7350144436109300	0.109371
H	0.4591523210387840 0.6875712521896065 0.7427328507924023	0.125104
H	0.9200436106141046 0.3647087549040063 0.1026114712082155	0.110184
H	0.9202975377365160 0.4637609893016111 0.1037486837177000	0.107898
H	0.4122263142355166 0.4612660459216458 0.7348229172955298	0.106546
H	0.3125909820968950 0.4591009850748189 0.7430637071517222	0.124506
H	0.6353969075875279 0.9200544261721404 0.1026083570781492	0.110034
H	0.5363505815824072 0.9202817141150349 0.1038298167725347	0.107776
H	0.5879550468238309 0.5384266911723666 0.7361017613875974	0.102571
H	0.6878082712130681 0.5411185147924084 0.7449451328300049	0.122361
H	0.3647804113606254 0.0799761190372234 0.1026339972237695	0.109509
H	0.4638347831629394 0.0797106586675570 0.1038281821692189	0.107905
H	0.5799794068875677 0.8647824070361898 0.6026313890959213	0.109574
H	0.5796993863403370 0.9638344424999780 0.6038138392078640	0.105746
H	0.0384157044114895 0.0879478963417022 0.2361726697485872	0.098774
H	0.0410883867514539 0.1878250723766502 0.2449172553114700	0.125113
H	0.4200496863148357 0.1353942750413472 0.6026059597214398	0.109605
H	0.4202928718631245 0.0363515272812686 0.6038075328535084	0.105641
H	0.9612484757591725 0.9122403452469765 0.2349874194302858	0.102321
H	0.9591068488218831 0.8125716427627953 0.2430468272545280	0.126517
H	0.1354210534190403 0.5799954891961531 0.6026465049699474	0.109427
H	0.0363796882148913 0.5796952383129163 0.6038102594010554	0.105420
H	0.9125915799896933 0.0391934776599621 0.2344516001166440	0.096748
H	0.8125518106839628 0.0411319276657794 0.2443706937987421	0.126302
H	0.8647104618811065 0.4200404227469320 0.6026130260043213	0.110044
H	0.9637590003620385 0.4203096414416603 0.6037280139928649	0.105752
H	0.0880932405734589 0.9621637772138072 0.2351706269475594	0.104516
H	0.1875995804891689 0.9591741304894602 0.2427065974228005	0.127550
H	0.4200403838514282 0.8647115637813522 0.3973863740094147	0.110006
H	0.4203099626326955 0.9637623608372503 0.3962748757761921	0.105673
H	0.9621648365298435 0.0880904842194485 0.7648364592433154	0.105275
H	0.9591736365607419 0.1875948341877509 0.7572921048996403	0.127957
H	0.5799975896368592 0.1354219019358797 0.3973512433190831	0.109517
H	0.5796953389824340 0.0363779507592370 0.3961911177635123	0.105365
H	0.0391942559463266 0.9125981768073012 0.7655518767860695	0.096829
H	0.0411333371911589 0.8125598053070761 0.7556288063272967	0.126384
H	0.8647811620488390 0.5799763105961238 0.3973726974973343	0.109689
H	0.9638313239855526 0.5797001413539314 0.3961874460511459	0.105913
H	0.0879539091476732 0.0384158597330281 0.7638240209127418	0.098418
H	0.1878324666885970 0.0410892280842038 0.7550899809129195	0.124941
H	0.1353939477703119 0.4200511469425279 0.3973952684722463	0.109761
H	0.0363536717564183 0.4202927810169909 0.3961942671549152	0.105546
H	0.9122351763222966 0.9612488744466228 0.7650080991808617	0.101918
H	0.8125651120619033 0.9591083993447411 0.7569596735329225	0.126336
Ni	0.5001587059715735 0.5001576387485419 0.4999972495682046	0.762484
Ni	0.0001655177395801 0.0001664297008090 -0.0000025622576550	0.781249
Fe	0.4987391282571538 0.4987470580254467 -0.0000036991618167	1.306663
Fe	-0.0012172736910031 -0.0012192521324620 0.4999958458957503	1.336625
F	0.5021588134695297 0.4979920667093046 0.2477385068436438	-0.533517
F	-0.0019785101582306 0.0021084573943797 0.7472393550943572	-0.515565
F	0.4979920520690973 0.5021518757480888 0.7522589419929160	-0.535907
F	0.0021049272810177 -0.0019815313423317 0.2527561257036525	-0.514753
F	0.4461880950837675 0.4461845609366455 0.0000250397050520	-0.589120
F	0.9461073073855598 0.9461083435579499 0.5000125177181095	-0.553011
F	0.4771554114352860 0.5699658155815385 0.0098764400028773	-0.590212
F	0.9772132707791901 0.0701529131391100 0.4902879130287782	-0.566236
F	0.5699687072506581 0.4771926152730731 0.9901226598776992	-0.580868
F	0.0701538973012167 0.9772047016966293 0.5096980288628140	-0.559105
N	0.4999336695527372 0.4161038371046601 0.5008813888716934	-0.228602
N	-0.0000648185845246 0.9161168942987670 -0.0008538298083111	-0.240404
N	0.4999833022136715 0.5842163973663410 0.4983142557608973	-0.231728
N	-0.0000181245785572 0.0842048295826962 0.0016605660189123	-0.242089
N	0.5842144553291142 0.4999816813860134 0.5016782649404686	-0.230496
N	0.0842090347549735 -0.0000194807512569 -0.0016612408887240	-0.241966
N	0.4161081727951448 0.4999335218855847 0.4991133436603671	-0.228861
N	0.9161117608890726 -0.0000648051787561 0.0008518857581805	-0.239906
	  	
