#======================================================================

# CRYSTAL DATA

#----------------------------------------------------------------------

data_VESTA_phase_1


_pd_phase_name                         FeFFIVE_1_Cu
_cell_length_a                         11.13375
_cell_length_b                         11.13375
_cell_length_c                         8.20977
_cell_angle_alpha                      90.12753
_cell_angle_beta                       89.87160
_cell_angle_gamma                      89.99411
_symmetry_space_group_name_H-M         P 1
_symmetry_Int_Tables_number            1

loop_
_symmetry_equiv_pos_as_xyz
   x, y, z

loop_
   _atom_site_label
   _atom_site_fract_x
   _atom_site_fract_y
   _atom_site_fract_z
   _atom_site_charge
C	0.2563289709120147 0.4580963887608794 0.3693838244817630	0.101190
C	0.1315221006964553 0.4574985148100673 0.3651690790082603	-0.172065
C	0.7443129874100727 0.5412131279746857 0.3701973338704846	0.104923
C	0.8690711507423071 0.5423912425720188 0.3654540723862050	-0.170373
C	0.5415060604722519 0.2560506706030238 0.3704750130604496	0.104018
C	0.5425197877689790 0.1313034415186928 0.3655008265011291	-0.172691
C	0.4584853597131365 0.7440161256990274 0.3699219006028350	0.099865
C	0.4576622568225248 0.8688234393847029 0.3656497232292796	-0.170262
C	0.7440153943227685 0.4584853198516206 0.6300779134593546	0.099852
C	0.8688234820451576 0.4576617994570711 0.6343494190421788	-0.170221
C	0.2560502226799942 0.5415047735002160 0.6295196425161178	0.104089
C	0.1313030989565334 0.5425190638412878 0.6344959205401074	-0.172662
C	0.4580967221441917 0.2563274529428514 0.6306128451913050	0.101182
C	0.4575000308725431 0.1315205696566210 0.6348297538401709	-0.172043
C	0.5412138441380447 0.7443111889456629 0.6298005813395715	0.104948
C	0.5423911428177833 0.8690686792369454 0.6345431306413992	-0.170328
C	0.0665294829610553 0.5000914805523773 0.4998757331867203	0.103450
C	0.9338220770143570 0.5000759026247460 0.4998692835498025	0.097033
C	0.5000917262978499 0.0665284200849084 0.5001219995398677	0.103472
C	0.5000759875347857 0.9338212709957748 0.5001287981487619	0.097068
H	0.3099988302236626 0.4258781303897300 0.2667458176499181	0.108591
H	0.0856948664081167 0.4218068659603944 0.2583327805862465	0.125384
H	0.6904807136078920 0.5715465259947783 0.2677526446722526	0.104923
H	0.9147947118226704 0.5777238755261082 0.2583228753372644	0.122511
H	0.5735606649036197 0.3104261247681895 0.2690259633148213	0.103677
H	0.5780305821233369 0.0852397651680083 0.2584859014657361	0.123552
H	0.4284674861235436 0.6909472654126518 0.2659842973421206	0.109995
H	0.4223128586415118 0.9141219174830201 0.2584185831332906	0.124637
H	0.6909463318398468 0.4284648232147502 0.7340158025579177	0.109992
H	0.9141200981040618 0.4223119047996414 0.7415808394414534	0.124634
H	0.3104235731516807 0.5735581722163094 0.7309675275764703	0.103656
H	0.0852389640100418 0.5780294017424741 0.7415108375784807	0.123545
H	0.4258775805671055 0.3099972807829787 0.7332496007468637	0.108623
H	0.4218070207017874 0.0856918771709907 0.7416658369045154	0.125370
H	0.5715470654186374 0.6904779381442938 0.7322457766774483	0.104894
H	0.5777234857932597 0.9147916948613928 0.7416733791372151	0.122475
Cu	0.5001341435734986 0.5001330593107670 0.4999961215005679	0.726412
Fe	0.4995905629954838 0.4995997307688055 0.0000048652705576	1.510103
F	0.5007310258348006 0.4998143072217409 0.7643739074375314	-0.602403
F	0.4998125452265063 0.5007220232416655 0.2356308809917275	-0.602346
F	0.3804565778569133 0.3805045769296049 0.0000032453856808	-0.614713
F	0.6621652109484476 0.4551966111521102 0.0015420411615157	-0.614475
F	0.4552366456150380 0.6621837884852756 0.9985005487690504	-0.614464
N	0.3169761669761291 0.4997984394248210 0.4994649570313227	-0.219317
N	0.6833515439172616 0.4998086807720898 0.5001038243467965	-0.223195
N	0.4997990698183665 0.3169761254912478 0.5005296130905823	-0.219251
N	0.4998098054739559 0.6833502815529681 0.4998948967568863	-0.223255
	  	
