#======================================================================

# CRYSTAL DATA

#----------------------------------------------------------------------

data_VESTA_phase_1


_pd_phase_name                         FeFFIVE_2_Cd_i
_cell_length_a                         14.32975
_cell_length_b                         14.32954
_cell_length_c                         8.33185
_cell_angle_alpha                      90.00027
_cell_angle_beta                       89.99907
_cell_angle_gamma                      89.81408
_symmetry_space_group_name_H-M         P 1
_symmetry_Int_Tables_number            1

loop_
_symmetry_equiv_pos_as_xyz
   x, y, z

loop_
   _atom_site_label
   _atom_site_fract_x
   _atom_site_fract_y
   _atom_site_fract_z
   _atom_site_charge
C	0.0000265414723834 0.3087695551446064 0.3546808524221299	-0.160230
C	-0.0003846407970103 0.2118697358664579 0.3600959795769115	0.097617
C	0.5000221276955922 0.8087694964203300 0.8546819625722922	-0.160021
C	0.4996001813959536 0.7118935487539746 0.8601081822100156	0.097735
C	-0.0001667887780276 0.6918292954966199 0.3546642207207847	-0.163748
C	-0.0006729690982373 0.7887148567786727 0.3603683321525516	0.104045
C	0.4998175538982368 0.1918370593239339 0.8546593428020262	-0.163138
C	0.4993025554074773 0.2887095475373341 0.8603710571315980	0.103767
C	0.6918237645952584 -0.0001667845336416 0.3546660292456657	-0.163638
C	0.7887068711267845 -0.0006731339709070 0.3603663935441198	0.104068
C	0.1918368975702889 0.4998235638007624 0.8546658308851789	-0.163117
C	0.2887075458110893 0.4993081546225792 0.8603774817964115	0.103698
C	0.3087701516162405 0.0000283321835912 0.3546863145678911	-0.160145
C	0.2118768412415875 -0.0003823998441966 0.3600972994315088	0.097736
C	0.8087764918737032 0.5000272605262918 0.8546854079113563	-0.160057
C	0.7119008120466656 0.4996084885366640 0.8601125819789861	0.097751
C	0.0000264917798562 0.3087733790285778 0.6453083249819792	-0.160334
C	-0.0003850646875234 0.2118737843429395 0.6398999158956222	0.097732
C	0.5000209360922758 0.8087772812990836 0.1453113663489022	-0.160027
C	0.4995962547925362 0.7119009918908233 0.1398955566515750	0.097621
C	-0.0001676934781406 0.6918306717251068 0.6453262301012999	-0.163738
C	-0.0006732348060030 0.7887172472367514 0.6396181707069301	0.104032
C	0.4998181256366273 0.1918388376806288 0.1453276045396291	-0.163301
C	0.4993069608349137 0.2887106931770289 0.1396122799372281	0.103788
C	0.3087695354062585 0.0000288940029519 0.6453088746104328	-0.160238
C	0.2118756353752155 -0.0003831799796448 0.6399007594838693	0.097768
C	0.8087806090881173 0.5000257469886190 0.1453078872835767	-0.159977
C	0.7119069098293815 0.4996046237417781 0.1398936703109307	0.097721
C	0.6918237457693246 -0.0001679238225736 0.6453277190657302	-0.163557
C	0.7887081153842179 -0.0006740060065390 0.6396179259005147	0.104011
C	0.1918347788230174 0.4998255601261505 0.1453316592968042	-0.163205
C	0.2887049998291149 0.4993143882283607 0.1396156418540038	0.103722
C	0.0005080030629949 0.4577229788617938 0.4999919150008967	-0.090899
C	0.0003273431892827 0.3590235814612364 0.4999914437681173	0.161076
C	0.5005119393196763 0.9577336735756316 -0.0000096246270001	-0.090591
C	0.5003262385284961 0.8590543318723044 -0.0000103605069582	0.160907
C	0.0005168722151517 0.5428357446285829 0.4999935099764981	-0.101810
C	0.0002320002544955 0.6415412927631007 0.4999949515527801	0.165585
C	0.5005183276159496 0.0428390978862906 -0.0000073651175570	-0.101788
C	0.5002243203681748 0.1415252169148604 -0.0000060286019248	0.164883
C	0.5428372747477046 0.0005167492091495 0.4999984200294170	-0.101833
C	0.6415358501933555 0.0002325960036208 0.4999973806073629	0.165396
C	0.0428401320789626 0.5005190733506282 -0.0000037258919896	-0.102016
C	0.1415260658460598 0.5002295718435290 -0.0000007491403839	0.164966
C	0.4577158370986601 0.0005077373988341 0.4999951836167811	-0.090948
C	0.3590221507152717 0.0003289717624869 0.4999939539795114	0.161055
C	0.9577339481694052 0.5005123917864261 -0.0000114317642491	-0.090337
C	0.8590582557171419 0.5003300491693075 -0.0000084399159165	0.160820
H	-0.0002250354980709 0.3450400782264910 0.2398169080327651	0.119666
H	-0.0016935987412012 0.1704556229471373 0.2499469817473411	0.105392
H	0.4997753938195486 0.8450317850015612 0.7398258180433467	0.119657
H	0.4983010330304399 0.6704796574415171 0.7499882595436431	0.105348
H	-0.0003768773710026 0.6553732771194990 0.2399684325655670	0.119664
H	-0.0019943918619429 0.8308302459620017 0.2512467627759004	0.100241
H	0.4996120457842826 0.1553902109964372 0.7399759709060844	0.119674
H	0.4979747326663660 0.3308230359088257 0.7512726460544200	0.100380
H	0.6553666802720959 -0.0003770150879077 0.2399729324988033	0.119663
H	0.8308246982539791 -0.0019945332204372 0.2512475690126327	0.100251
H	0.1553908176453266 0.4996165440220026 0.7399812574120518	0.119670
H	0.3308222423109315 0.4979764200700273 0.7512773182286363	0.100409
H	0.3450481004392127 -0.0002244997074320 0.2398219356366426	0.119609
H	0.1704615120671002 -0.0016924839066587 0.2499494716763038	0.105384
H	0.8450384313925213 0.4997784810251103 0.7398284195098975	0.119681
H	0.6704844178354027 0.4983059089654294 0.7499945430871763	0.105352
H	-0.0002252466915048 0.3450491594843873 0.7601675075916633	0.119665
H	-0.0016935854291080 0.1704625815778028 0.7500510418460068	0.105363
H	0.4997753117979364 0.8450457272263842 0.2601583676260338	0.119669
H	0.4982888697028475 0.6704960214186755 0.2500240322614135	0.105363
H	-0.0003772341331385 0.6553780710728394 0.7600222615143619	0.119650
H	-0.0019959147419621 0.8308338576667679 0.7487380042791474	0.100276
H	0.4996116273615667 0.1553945487962215 0.2600140810826525	0.119667
H	0.4979914051030410 0.3308299411594193 0.2487028523340699	0.100439
H	0.3450485963045209 -0.0002232033922285 0.7601685125114241	0.119666
H	0.1704622207124866 -0.0016914375687956 0.7500523281573661	0.105348
H	0.8450473748342735 0.4997757744196579 0.2601585735699967	0.119660
H	0.6704958580200012 0.4982950578689572 0.2500238188931884	0.105319
H	0.6553689357850416 -0.0003776380238863 0.7600218205594902	0.119621
H	0.8308260412372549 -0.0019961352141830 0.7487341102817270	0.100219
H	0.1553879236262712 0.4996178452841316 0.2600190692078725	0.119681
H	0.3308231814869881 0.4979961547728458 0.2487094427067401	0.100389
Cd	0.0007146684064008 0.0007186624010436 0.4999923051993300	0.827022
Cd	0.5007240152398862 0.5007234807054448 0.0000367682641404	0.827175
Fe	0.0003128102313598 0.0003097419928572 -0.0000093430592188	1.511191
Fe	0.5004096146302939 0.5003839444069976 0.5000381597325263	1.511790
N	-0.0004312306365943 0.1646242342545648 0.4999992479112862	-0.236283
N	0.4995454349542346 0.6646319647810647 0.0000062600617049	-0.236461
N	-0.0006318105198789 0.8360654084865387 0.4999920339714151	-0.234432
N	0.4993445860674779 0.3360740924131852 -0.0000093680889277	-0.234376
N	0.8360552667447445 -0.0006320192154732 0.4999908411427375	-0.234453
N	0.3360680394109375 0.4993505307512557 -0.0000024616115681	-0.234450
N	0.1646304678567126 -0.0004285214800947 0.5000020161389520	-0.236484
N	0.6646387722067595 0.4995554328035438 0.0000078617619197	-0.236525
F	0.0002571943137634 0.0002641854825889 0.7667878160612021	-0.576158
F	0.5002530037725025 0.5002020864388143 0.2669299206058942	-0.576458
F	0.0002531522694224 0.0002558575690810 0.2331959943431815	-0.576337
F	0.5004247733707874 0.5003612789326984 0.7331418565992407	-0.576254
F	0.6264397393751941 0.4665511724068315 0.4999468500455217	-0.597884
F	0.4665691249509963 0.6264208809277104 0.4999846091726545	-0.597815
F	0.4085276106309265 0.4085420815605317 0.5003333762192513	-0.608303
F	0.9085016647665419 0.9085002473190745 -0.0000334756047630	-0.607967
F	0.9664463977399196 0.1262772270789481 0.0000023210727572	-0.597686
F	0.1262755323281609 0.9664323058793046 -0.0000044549774227	-0.597691
	  	
