#======================================================================

# CRYSTAL DATA

#----------------------------------------------------------------------

data_VESTA_phase_1


_pd_phase_name                         FeFFIVE_15_Zn_i
_cell_length_a                         29.88225
_cell_length_b                         29.08389
_cell_length_c                         8.11574
_cell_angle_alpha                      89.99621
_cell_angle_beta                       89.99762
_cell_angle_gamma                      89.99881
_symmetry_space_group_name_H-M         P 1
_symmetry_Int_Tables_number            1

loop_
_symmetry_equiv_pos_as_xyz
   x, y, z

loop_
   _atom_site_label
   _atom_site_fract_x
   _atom_site_fract_y
   _atom_site_fract_z
   _atom_site_charge
C	0.9332886900159977 0.1021952214970889 0.8931594498117986	0.095100
C	0.9009989936123488 0.0679382693904619 0.8987516404998155	-0.168254
C	0.7699951717548841 0.9361884864952478 0.9003416551463813	-0.116411
C	0.7359318224339297 0.9039378329842244 0.9000573043796590	-0.117738
C	0.5686280265433075 0.7416822629554763 0.8929890094847235	0.089301
C	0.6019497524443701 0.7748620417791842 0.8983588371359413	-0.169860
C	0.4337065944895594 0.6020168083845719 0.8928752912289846	0.101459
C	0.4014017933303323 0.5677831569771818 0.8987567291765617	-0.167801
C	0.2699371001432562 0.4362345018521449 0.9002088082450919	-0.115219
C	0.2358619995334909 0.4039657708165497 0.8999913267462237	-0.118386
C	0.0687502120285737 0.2412338557967703 0.8927772731061112	0.100813
C	0.1020613793355434 0.2744313197762538 0.8984173203659040	-0.171674
C	0.0671392073609864 0.8973363355408528 0.3928531280873430	0.104101
C	0.0990041187561687 0.9320236938070003 0.3987675291795830	-0.165412
C	0.2302257908488074 0.0639934095132168 0.4001497510331843	-0.115932
C	0.2642953100947423 0.0962908395839314 0.3999094442286850	-0.112065
C	0.4324211990453256 0.2582216753909911 0.3930058532583099	0.100472
C	0.3986323426432971 0.2255205230700204 0.3983990486224783	-0.170128
C	0.5665437043962737 0.3971971252053398 0.3932738598927457	0.093359
C	0.5983744986243799 0.4319120820775175 0.3986552658619557	-0.164415
C	0.7298020654861725 0.5634709414944561 0.4002413134972098	-0.113882
C	0.7638954755133991 0.5957103578580795 0.4000092344205866	-0.115184
C	0.9314151425867730 0.7580310163060361 0.3929807423225632	0.092889
C	0.8976919997474128 0.7252531174079755 0.3983438306213617	-0.169929
C	0.0669139531654851 0.1029225485581031 0.6070585288753463	0.102410
C	0.0987527456115475 0.0682119726299511 0.6011993999312684	-0.167505
C	0.2297532886905286 0.9364145242273068 0.5996731785979809	-0.115317
C	0.2638649437933500 0.9041973971946915 0.6000122224447729	-0.115462
C	0.4312026216713561 0.7418000573620551 0.6070622021796255	0.090470
C	0.3978874429924557 0.7749993071502534 0.6016736705568551	-0.169411
C	0.5661535166540830 0.6021689163185006 0.6071754672344810	0.101498
C	0.5984321067198265 0.5679301814298016 0.6012627046224124	-0.168586
C	0.7298365828264718 0.4365014870239524 0.5997316860754148	-0.116431
C	0.7638751601839320 0.4042109993640507 0.5999366639431143	-0.116112
C	0.9314115016921218 0.2419885662509653 0.6070006146861112	0.092623
C	0.8976737849848437 0.2747425179036606 0.6016318114182978	-0.172057
C	0.9330495894891843 0.8980438811132556 0.1069251717175052	0.093689
C	0.9007294245829816 0.9323021146455593 0.1013095948551527	-0.163631
C	0.7694774072998180 0.0641703292436616 0.0997782445147147	-0.115145
C	0.7354775242537507 0.0965247660773162 0.1000222308374694	-0.114978
C	0.5674146061606631 0.2583355256412449 0.1070483425199403	0.099256
C	0.6012119816663379 0.2256675354476053 0.1016043521275421	-0.169274
C	0.4333038075892842 0.3973361903245100 0.1067529622381907	0.094002
C	0.4014634014772162 0.4320609965003235 0.1013661931102841	-0.165576
C	0.2699553030111123 0.5637448819568045 0.0998024064396865	-0.113268
C	0.2358359233483485 0.5959673581744812 0.1000338183133934	-0.117654
C	0.0687326354190849 0.7587973401618905 0.1072160051243082	0.101104
C	0.1020291245394693 0.7255840358627121 0.1015643674977940	-0.170152
C	0.0671442561351440 0.8973407216674686 0.1071239915035034	0.104432
C	0.0990090949116073 0.9320274797567487 0.1012095881020650	-0.165566
C	0.2302326914753244 0.0639962490516400 0.0998367644724695	-0.115710
C	0.2642994177599503 0.0962941038483250 0.1000836805626511	-0.112074
C	0.4324407487863278 0.2582195575986915 0.1070600410466165	0.100957
C	0.3986489405943299 0.2255236616389995 0.1016257676038537	-0.170044
C	0.5665429045499552 0.3972088066551359 0.1067007447142829	0.093472
C	0.5983743170693376 0.4319228944032366 0.1013327674761797	-0.164354
C	0.7298075193984354 0.5634759089979738 0.0997440461264200	-0.114283
C	0.7639004263323329 0.5957146185289198 0.0999820482838624	-0.115139
C	0.9314206585629569 0.7580371554797882 0.1070294880405969	0.093021
C	0.8976972957044694 0.7252603009455021 0.1016476240989002	-0.170371
C	0.9332929226911140 0.1021998023442255 0.6068815117280023	0.094871
C	0.9010040845616319 0.0679441859605092 0.6012777656332625	-0.168230
C	0.7700026821366477 0.9361968410604424 0.5996584487482896	-0.116237
C	0.7359394049524197 0.9039459895842906 0.5999178607083182	-0.117879
C	0.5686357276840572 0.7416783145793029 0.6069383736184716	0.089042
C	0.6019598348094308 0.7748559825758021 0.6015782435131626	-0.169833
C	0.4337117247798151 0.6020267012296087 0.6070940189125310	0.101179
C	0.4014084197879279 0.5677925134550525 0.6011862709978801	-0.167491
C	0.2699418808122007 0.4362388883602731 0.5997811846169002	-0.115249
C	0.2358677130831208 0.4039722939967365 0.5999842311653986	-0.118277
C	0.0687551766038459 0.2412363267641942 0.6071891836927961	0.100642
C	0.1020655254960538 0.2744334056204951 0.6015478467522302	-0.171910
C	0.9330506880006423 0.8980435816532640 0.3930427887544658	0.093383
C	0.9007310506948163 0.9323019068564899 0.3986675341371330	-0.163762
C	0.7694766062355929 0.0641691676563379 0.4001990557328706	-0.115294
C	0.7354769230876782 0.0965240214828368 0.3999582802485150	-0.114886
C	0.5674307575279218 0.2583405645959286 0.3930350348144659	0.098071
C	0.6012251533110267 0.2256684714864367 0.3984375880443171	-0.169184
C	0.4332973367806130 0.3973315577509830 0.3932544884592142	0.093753
C	0.4014589952999180 0.4320577546036142 0.3986413914653177	-0.165509
C	0.2699559847400895 0.5637438464612029 0.4001825117231412	-0.113651
C	0.2358371454072111 0.5959669471648394 0.3999534101289234	-0.117408
C	0.0687320479329346 0.7587981318576822 0.3927635479381845	0.101027
C	0.1020286532574208 0.7255846406647277 0.3984197506666051	-0.170042
C	0.0669139408163234 0.1029207556007858 0.8929311393131079	0.102482
C	0.0987535339992673 0.0682111048864863 0.8987857647373900	-0.167267
C	0.2297551327439379 0.9364136493499674 0.9003215737551598	-0.115383
C	0.2638668887768947 0.9041967816555743 0.8999716502074416	-0.115595
C	0.4311901903368558 0.7417972491225767 0.8930319319791714	0.090453
C	0.3978720356141922 0.7749930957338300 0.8983814449056619	-0.169422
C	0.5661512920882743 0.6021632539379628 0.8930115890612051	0.102049
C	0.5984293584587551 0.5679220121784391 0.8989157109223408	-0.168373
C	0.7298401372117905 0.4364983882483867 0.9002604772044314	-0.116347
C	0.7638777986105153 0.4042085836811324 0.9000370513005261	-0.116163
C	0.9314101765216728 0.2419889696484158 0.8929879182526661	0.093185
C	0.8976725732151436 0.2747428958542116 0.8983566359400152	-0.172015
C	0.6537407352369863 0.8257602443381427 0.7499688776787212	-0.103998
C	0.8840109523738736 0.0501610860474220 0.7500129584938798	0.159036
C	0.8216510814028019 0.9862699881068950 0.7500120047997548	-0.105426
C	0.6195028808215959 0.7923045873573128 0.7499607414494744	0.167432
C	0.7874397061644168 0.9528677986300009 0.7500026767183000	0.126958
C	0.7182923954395596 0.8872950493269504 0.7499828315056087	0.137514
C	0.6836040117252937 0.8543772733746584 0.7499725069801583	-0.103109
C	0.8507812683151861 0.0156581793058476 0.7500067059900836	-0.100026
C	0.1537078659811617 0.3255803965531712 0.7499805069521172	-0.102114
C	0.3843187052225986 0.5500767653741394 0.7499664255926068	0.160978
C	0.3217086931630726 0.4863610326486624 0.7499890665876690	-0.098018
C	0.1195533572592027 0.2919760996662399 0.7499803442068806	0.168058
C	0.2874217278384251 0.4529614031997886 0.7499957809325867	0.125292
C	0.2181674111315425 0.3872852050836482 0.7499850859683820	0.140482
C	0.1835010008746223 0.3542968082635098 0.7499807614585084	-0.103995
C	0.3509408894737310 0.5156840391739109 0.7499710783344622	-0.107479
C	0.3462426173490677 0.1750740938523712 0.2499865260792591	-0.111061
C	0.1157093560055510 0.9501478493719632 0.2499921147912776	0.160598
C	0.1781786599604217 0.0140714732495146 0.2499938863731745	-0.099527
C	0.3807028474111196 0.2083973488137811 0.2500022163992418	0.173723
C	0.2126338419512528 0.0473350731546938 0.2499941972523017	0.131201
C	0.2819328381298591 0.1131129266774994 0.2499957358448636	0.133728
C	0.3164957490098202 0.1462890682736712 0.2499963881044872	-0.091060
C	0.1488408644965682 0.9848473314066445 0.2499935595047788	-0.101530
C	0.8456231030854700 0.6745343067279578 0.2499898936156077	-0.097885
C	0.6151230433364542 0.4500033682088138 0.2499937659692903	0.162911
C	0.6777548446967979 0.5136975891760962 0.2499924604428152	-0.097058
C	0.8798854442496096 0.7080259537586656 0.2499939916922459	0.166028
C	0.7122437616753851 0.5468652975071752 0.2499896932853648	0.123581
C	0.7815057735868037 0.6124693670681424 0.2499963354688758	0.139507
C	0.8160023159917172 0.6456410487814782 0.2499945203645740	-0.103738
C	0.6483397487093178 0.4845793871101786 0.2499986466803767	-0.105858
C	0.3460641074786675 0.8259372864162441 0.7500020953746224	-0.102474
C	0.1154194390148580 0.0501220561042182 0.7499929360028471	0.159661
C	0.1778173838608136 0.9862473813662397 0.7499982024334499	-0.102232
C	0.3803228706385642 0.7924522013353638 0.7500186507399778	0.167004
C	0.2122202168001727 0.9530384404942108 0.7499979090488831	0.125686
C	0.2815211396943116 0.8875235942808573 0.7499913257229813	0.138733
C	0.3162004404391988 0.8545805624956131 0.7499884670599485	-0.102971
C	0.1485037695903228 0.0154757380523312 0.7499936166862531	-0.105883
C	0.8456164284894576 0.3254505169928990 0.7499887299148005	-0.099321
C	0.6154779218917175 0.5502074419720329 0.7500915689307018	0.162339
C	0.6780718964814635 0.4865284502647357 0.7500235276622781	-0.096400
C	0.8798748326310956 0.2919680221625390 0.7499903687680457	0.166050
C	0.7123697433815538 0.4531806140327305 0.7500006263831196	0.124627
C	0.7814813137779332 0.3874728962255644 0.7499843514595800	0.139541
C	0.8159779813214638 0.3543231910521537 0.7499813772322023	-0.106163
C	0.6488183856012713 0.5158161264085758 0.7500744002699563	-0.109598
C	0.6535705223802725 0.1752326517523013 0.2499954798819522	-0.112677
C	0.8837097330216946 0.9501236372140069 0.2499838270222900	0.158908
C	0.8212344545723660 0.0140174054226678 0.2499889139046362	-0.101787
C	0.6191412100461480 0.2085501895206771 0.2500102022130155	0.173614
C	0.7869594850308178 0.0474406523419162 0.2499900046444035	0.131644
C	0.7178641979281675 0.1133138291255893 0.2499887374162874	0.133582
C	0.6833153725089613 0.1464630488789642 0.2499898254962488	-0.090478
C	0.8504336737427042 0.9846622100084628 0.2499897303109890	-0.096685
C	0.1536968439277688 0.6744216990897909 0.2499953187108619	-0.102006
C	0.3846768733866241 0.4501399902637699 0.2499989603948188	0.163872
C	0.3220010265119894 0.5138646044853827 0.2499889926550694	-0.097097
C	0.1195355453294213 0.7080338917433112 0.2499940235098828	0.169002
C	0.2875224999046684 0.5470838401104429 0.2499902963220818	0.124333
C	0.2181384268768085 0.6126704908669118 0.2499973996708893	0.141585
C	0.1834695451034676 0.6456789735397210 0.2499977784228082	-0.100677
C	0.3514095028603514 0.4847045871125562 0.2499955685478606	-0.105632
H	0.9474315136649367 0.1160791657258908 0.0065341916755864	0.103243
H	0.8891979713865809 0.0550257124094759 0.0169843115769738	0.117858
H	0.7836898809798981 0.9490480391666505 0.0159305611808653	0.105578
H	0.7223428425386988 0.8910291868164580 0.0156168713214557	0.115718
H	0.5551696064926980 0.7271810687059562 0.0064345548320588	0.102711
H	0.6144095881024069 0.7869319004449479 0.0166731288135367	0.123975
H	0.4480849168696736 0.6161872554642713 0.0052437054905271	0.098119
H	0.3895328726595008 0.5548176032254369 0.0167957948324469	0.118898
H	0.2836500520566914 0.4490199502770008 0.0158917518957125	0.105770
H	0.2223486806619197 0.3910499290282767 0.0156379924299657	0.116431
H	0.0549575476760868 0.2264905289840628 0.0051677329031532	0.098635
H	0.1145592764275045 0.2865634133726863 0.0165971686741772	0.123874
H	0.0538971697597267 0.8819902062909183 0.5051633908983796	0.098491
H	0.1110163171851428 0.9448110654321185 0.5168560516311002	0.119822
H	0.2166272140765991 0.0511218300762814 0.5158924742611523	0.108173
H	0.2778594526478469 0.1090890790078373 0.5156477902871820	0.114724
H	0.4474121470408327 0.2716109113881933 0.5055988528523534	0.096330
H	0.3863271315389426 0.2132171540184932 0.5166266924230183	0.125840
H	0.5538171432297267 0.3821711560601307 0.5071720041322296	0.101954
H	0.6102875308886685 0.4445824102692667 0.5170544192140045	0.120304
H	0.7161444618129500 0.5506180476842174 0.5159172109488447	0.105715
H	0.7774804445176416 0.6085646121887087 0.5156518036342228	0.116173
H	0.9461312232081389 0.7712319836924201 0.5064050250685023	0.101657
H	0.8854544391034458 0.7129782486055201 0.5167230604752054	0.124219
H	0.0536673265119790 0.1182495099638562 0.4948137934596645	0.099742
H	0.1107885603535986 0.0553765208091017 0.4831562432865213	0.117864
H	0.2160733680862514 0.9492545961449709 0.4840881099078049	0.105137
H	0.2774462132161282 0.8913067009371871 0.4843644164352761	0.115179
H	0.4446727467940828 0.7273062958607983 0.4935982675974265	0.102258
H	0.3854661415789230 0.7870630712148095 0.4832779348076695	0.123456
H	0.5517936864599586 0.6163741876444075 0.4948413205830292	0.097727
H	0.6103376825088017 0.5549570805267409 0.4832837706520177	0.118833
H	0.7161319052422045 0.4493302481752011 0.4841063686214888	0.105681
H	0.7774359128715036 0.3913130439300272 0.4843379141665062	0.115470
H	0.9461375090655916 0.2287834212454919 0.4935991503639156	0.102708
H	0.8854279392022608 0.2870125925792916 0.4832415473173386	0.123195
H	0.9471813620678564 0.8841733805894232 0.9934967875211365	0.102698
H	0.8889521198134949 0.9451725823019688 0.9829972461468983	0.119616
H	0.7831155438833384 0.0512964916383831 0.9841012278069391	0.107955
H	0.7219233854790107 0.1093813015244067 0.9843374798267889	0.114726
H	0.5524262469022152 0.2717454730909631 0.9945100967038788	0.097548
H	0.6135462545880784 0.2133687717286167 0.9834049668590787	0.125457
H	0.4460420245830438 0.3823352918159316 0.9928247803231075	0.102929
H	0.3895831308544505 0.4447246871031382 0.9829206493550497	0.120568
H	0.2836200547081545 0.5509306103244874 0.9840894428103568	0.105767
H	0.2223005954035647 0.6088354642582733 0.9843470047683814	0.117065
H	0.0549423681847641 0.7735315700942983 0.9947953055407889	0.097175
H	0.1145184503623323 0.7134434460976313 0.9833897595414417	0.125160
H	0.0539056016372921 0.8819994162573793 0.9948071576105817	0.098392
H	0.1110272558642248 0.9448183392680155 0.9831282667100555	0.119828
H	0.2166371481925313 0.0511285298225806 0.9840910377737421	0.108073
H	0.2778690048743408 0.1090965942487356 0.9843468978579728	0.114617
H	0.4474436811968138 0.2716152086977273 0.9944896310135768	0.096696
H	0.3863514938625597 0.2132299966919964 0.9833766843614726	0.125808
H	0.5538195858055969 0.3821914986255349 0.9927885927257724	0.102135
H	0.6102913335837393 0.4445995154735284 0.9829342458784416	0.120382
H	0.7161543579392078 0.5506254096175135 0.9840665709474478	0.105903
H	0.7774897335001055 0.6085711470253855 0.9843441279877051	0.116161
H	0.9461394949258691 0.7712440150834287 0.9936103116503388	0.102284
H	0.8854652164366345 0.7129917335669383 0.9832635245047358	0.124269
H	0.9474387029137530 0.1160899732605468 0.4935085082779700	0.103298
H	0.8892080652427105 0.0550363599299683 0.4830396228405123	0.117715
H	0.7837021472133140 0.9490615559712068 0.4840761040239240	0.105474
H	0.7223550447298021 0.8910425270473723 0.4843548873767893	0.115690
H	0.5551844648108605 0.7271760821424723 0.4934897237975568	0.102632
H	0.6144308438997147 0.7869210584909743 0.4832576806600558	0.123867
H	0.4480947810346632 0.6162051433255238 0.4947374521753431	0.097883
H	0.3895442092628644 0.5548347602558773 0.4831437865608499	0.118928
H	0.2836600715759592 0.4490299017464164 0.4841022285464668	0.105797
H	0.2223585053282365 0.3910604664962153 0.4843353096306761	0.116318
H	0.0549654175543162 0.2264958044807255 0.4947935112271837	0.098316
H	0.1145677851651233 0.2865687961706893 0.4833691430319267	0.123947
H	0.9471827664360275 0.8841722196932408 0.5064723176277337	0.102765
H	0.8889546149777964 0.9451735788875287 0.5169734344184670	0.119676
H	0.7831137892311960 0.0512950351539149 0.5158791108840577	0.108014
H	0.7219216575622296 0.1093794298718931 0.5156424863635261	0.114588
H	0.5524530329500099 0.2717485824293869 0.5055930629200437	0.097429
H	0.6135638318406355 0.2133649509967545 0.5166192349750877	0.125591
H	0.4460367957994678 0.3823280405596688 0.5071817294187426	0.102372
H	0.3895769913727051 0.4447215312773011 0.5170834480114650	0.120509
H	0.2836228065385170 0.5509305693544064 0.5158914871453039	0.105896
H	0.2223029706014389 0.6088347978938228 0.5156428913420121	0.116964
H	0.0549419381134862 0.7735338756211909 0.5051821822000989	0.097277
H	0.1145174339745123 0.7134449830258082 0.5165985807804591	0.125050
H	0.0536672072694927 0.1182467268602262 0.0051762402213254	0.100163
H	0.1107904406983757 0.0553753323792353 0.0168288421749641	0.117786
H	0.2160761353068004 0.9492535120566757 0.0159083117455484	0.105160
H	0.2774490890005737 0.8913059715068649 0.0156191010279697	0.115146
H	0.4446465648727942 0.7273031802674501 0.0065155953214209	0.102283
H	0.3854374002332924 0.7870549348245884 0.0167618763691347	0.123512
H	0.5517921300291677 0.6163637770458420 0.0053424091540229	0.097635
H	0.6103326846482673 0.5549483114746107 0.0168963657934430	0.118754
H	0.7161370953630112 0.4493268875823899 0.0158911116610246	0.105673
H	0.7774401831753734 0.3913092891387639 0.0156317127270849	0.115505
H	0.9461348374098509 0.2287833680095198 0.0063920144601288	0.102260
H	0.8854255250251151 0.2870127719256527 0.0167424021936564	0.123203
Zn	0.4999227534288117 0.6735747168577706 0.7499614295074762	0.729020
Zn	-0.0006026731007078 0.1730530984554432 0.7500087902544946	0.726559
Zn	0.4999427740302562 0.3275159089912825 0.2500220086179885	0.728333
Zn	-0.0005656029896003 0.8270487454390537 0.2499960765455720	0.731873
Fe	0.4998532997818355 0.6718299535772974 0.2499969288070968	1.348386
Fe	0.0014490736212037 0.1732242375153454 0.2500010835710387	1.264058
Fe	0.4999683439079307 0.3270786685665064 0.7499809420411704	1.286870
Fe	0.0013841690993206 0.8269019258825343 0.7499964521378050	1.275788
F	0.4997343335084063 0.6081115146752621 0.2500770969807525	-0.556036
F	0.9721819143483378 0.2297226341226129 0.2499950454994438	-0.524069
F	0.9721351462265150 0.1167754197671704 0.2500005480348075	-0.545571
F	0.4997696096248486 0.2628441947516693 0.7497650626322083	-0.546943
F	0.9722047210203402 0.7703832066709820 0.7500251450886741	-0.551416
F	0.9720195366192982 0.8832863982271250 0.7500136531027346	-0.544251
F	0.5547171895681222 0.7019688940606967 0.2501256191503302	-0.548213
F	0.0635615087793876 0.1731521779798059 0.2499725233666164	-0.546099
F	0.4452212892615258 0.3585238292977930 0.7501252554150974	-0.532789
F	0.4450377895810281 0.7021360343901349 0.2498503195675004	-0.548754
F	0.5546823162818796 0.3584639731439899 0.7501423670087196	-0.524574
F	0.0634670901981108 0.8269450229472171 0.7499460837080439	-0.558256
F	0.4998187045308361 0.6732682892548510 0.4926913106085613	-0.538755
F	-0.0000480040666550 0.1731599563366224 0.4926888884914087	-0.535477
F	0.4999690473804195 0.3266171448762252 -0.0150988766762153	-0.509403
F	-0.0000378783533094 0.8270104861705225 -0.0072663627563338	-0.511602
F	0.4999186261995244 0.6732207232756892 0.0073473245335211	-0.539537
F	-0.0000349499650205 0.1731623777087227 0.0073026719605618	-0.538252
F	0.4999720930653115 0.3266886803704430 0.5150810380348075	-0.502416
F	-0.0000588145581954 0.8270051581054647 0.5072704714670542	-0.511015
N	0.5520553197395663 0.7252936546212059 0.7499718233349160	-0.222417
N	0.9491270824046597 0.1192790340059841 0.7500210693533770	-0.221268
N	0.0520791865941392 0.2248958826264949 0.7499824028711002	-0.217731
N	0.4494754304076359 0.6192083067942596 0.7499917714223133	-0.219324
N	0.4489928401876230 0.2746617315732726 0.2500416214087754	-0.224407
N	0.0512642149576434 0.8802422678086365 0.2499858035537487	-0.219741
N	0.9480570467229122 0.7743996767676017 0.2500063454748521	-0.222831
N	0.5507920611702044 0.3800428832309719 0.2499871450204008	-0.226872
N	0.4477720500419121 0.7253783869311222 0.7500549789337217	-0.223206
N	0.0510978210420724 0.1200006715057141 0.7499932979246983	-0.216518
N	0.9480667588817195 0.2256508377978125 0.7499982552627734	-0.221200
N	0.5503761053573470 0.6193279981409544 0.7500937888053072	-0.219520
N	0.5508421337760685 0.2747402957738311 0.2500477170789686	-0.223729
N	0.9489340948264705 0.8809637877693116 0.2499871653046825	-0.221854
N	0.0520727121907553 0.7751644842945979 0.2499876797931498	-0.219613
N	0.4490375122064040 0.3801365829914459 0.2500084724360768	-0.224994
	  	
