#======================================================================

# CRYSTAL DATA

#----------------------------------------------------------------------

data_VESTA_phase_1


_pd_phase_name                         FeFFIVE_15_Co_i
_cell_length_a                         29.73280
_cell_length_b                         28.62797
_cell_length_c                         8.23230
_cell_angle_alpha                      90.03156
_cell_angle_beta                       89.99976
_cell_angle_gamma                      90.00261
_symmetry_space_group_name_H-M         P 1
_symmetry_Int_Tables_number            1

loop_
_symmetry_equiv_pos_as_xyz
   x, y, z

loop_
   _atom_site_label
   _atom_site_fract_x
   _atom_site_fract_y
   _atom_site_fract_z
   _atom_site_charge
C	0.9359229575187722 0.1048811216398987 0.8909252062239726	0.091123
C	0.9031327327273121 0.0703167422539430 0.8959806593226493	-0.162640
C	0.7696910479003889 0.9359252371647996 0.8977555862105271	-0.117213
C	0.7352659390704899 0.9031571296165076 0.8974957952828796	-0.116758
C	0.5650285176419049 0.7383345987652836 0.8907849655523048	0.091987
C	0.5987901908278900 0.7718450731575478 0.8955833999738018	-0.166581
C	0.4368483840024185 0.6053537609029487 0.8909532023102491	0.100278
C	0.4040802884701694 0.5708186119284797 0.8960129642779086	-0.162907
C	0.2705002453404899 0.4368711390204758 0.8976844430073765	-0.112741
C	0.2361216891748422 0.4040729395586387 0.8974118908662534	-0.116243
C	0.0658804378045344 0.2388141388317303 0.8903285779689962	0.097917
C	0.0997339952915914 0.2722506011497848 0.8952627379284074	-0.166761
C	0.0663711855327003 0.8959136914996841 0.3912107830196060	0.104590
C	0.0982274006084554 0.9311532632960539 0.3970247101848567	-0.166424
C	0.2296090641147004 0.0639065852309509 0.3985895622423256	-0.115926
C	0.2641333552155185 0.0962665102228130 0.3983906050254761	-0.114749
C	0.4325738375902907 0.2592682692795273 0.3910815816711974	0.102605
C	0.3988241415316068 0.2259654950178646 0.3966277098587124	-0.166885
C	0.5661838854041072 0.3962901287454765 0.3913518709847876	0.097932
C	0.5980374918037433 0.4315750829338196 0.3969530885987428	-0.164073
C	0.7298196093882537 0.5638943588142710 0.3986042802263047	-0.118441
C	0.7643438107260406 0.5962617375601655 0.3984122898272901	-0.114311
C	0.9324129340539793 0.7596063313659061 0.3912168843383826	0.091839
C	0.8986347891989795 0.7263457705268737 0.3965809412755865	-0.167106
C	0.0635621699340882 0.1060925256351604 0.6090455335616284	0.100104
C	0.0960518118154841 0.0712992269421062 0.6039255786638749	-0.163659
C	0.2291699825307221 0.9369522124816445 0.6023021420870145	-0.116852
C	0.2636297290769004 0.9042567700897657 0.6025159732637932	-0.114891
C	0.4341186642123798 0.7391807349044809 0.6093130982449578	0.090203
C	0.4003206231903562 0.7727108064737829 0.6044397046424390	-0.167085
C	0.5637133780681741 0.6048061967802608 0.6094497317650212	0.101724
C	0.5964525160408377 0.5702081959791093 0.6043351060401106	-0.166086
C	0.7301615046017988 0.4361610545377428 0.6023838014979850	-0.113134
C	0.7645142702536434 0.4033527850254892 0.6025547827173139	-0.116547
C	0.9349526460323266 0.2385888313473023 0.6092165362388618	0.088867
C	0.9008506486289203 0.2717558910634673 0.6044534817715823	-0.165048
C	0.9339283388750228 0.8965519608931216 0.1087260871419998	0.093855
C	0.9015685343395945 0.9313246500392155 0.1031391259202360	-0.163897
C	0.7700476037138838 0.0639927123469867 0.1014383641318863	-0.117186
C	0.7356324383561640 0.0964868458577664 0.1016582324810918	-0.116326
C	0.5671840569685642 0.2594381743743777 0.1089203533200442	0.102470
C	0.6009581086773519 0.2261621789455828 0.1033553488988060	-0.166909
C	0.4335835647536578 0.3964566660151527 0.1086270931580245	0.098354
C	0.4017735112191201 0.4317849763855117 0.1031148786287371	-0.163515
C	0.2700015701839915 0.5641359293787341 0.1014108711891667	-0.116490
C	0.2354120742065784 0.5964163880826754 0.1016483043512129	-0.115359
C	0.0678488881797665 0.7601851146808145 0.1088804126847344	0.100366
C	0.1012544576282800 0.7265452512714393 0.1032893077222003	-0.167701
C	0.0663543501821486 0.8958997728520213 0.1087899026523944	0.103429
C	0.0982094650761625 0.9311397813100025 0.1030147764038969	-0.165734
C	0.2295946165116413 0.0638950883227254 0.1013993461342905	-0.116063
C	0.2641169982214657 0.0962565080617506 0.1016670078813763	-0.115106
C	0.4325527481479855 0.2592453669480478 0.1089110634075692	0.102186
C	0.3988046682831833 0.2259445761497358 0.1033368368694135	-0.166875
C	0.5661680528281366 0.3962743116464458 0.1086507632919013	0.097528
C	0.5980200519161316 0.4315607347080231 0.1030953257370507	-0.163761
C	0.7298017297446122 0.5638812852584304 0.1013929321909454	-0.118303
C	0.7643248708757009 0.5962473968494201 0.1016405105415050	-0.114438
C	0.9323926438121376 0.7596007435832624 0.1088037410365966	0.093129
C	0.8986092948581490 0.7263348396819163 0.1033908562269742	-0.167402
C	0.9359015572805222 0.1048206515482380 0.6091576671212250	0.090442
C	0.9031157725796166 0.0702536185937777 0.6042010175903502	-0.162703
C	0.7696800021332602 0.9359139172662353 0.6023143797073622	-0.117536
C	0.7352531491260582 0.9031472822715942 0.6024903263018444	-0.116584
C	0.5650053840003961 0.7383229492307820 0.6091070359522496	0.091582
C	0.5987605289150288 0.7718310223351872 0.6043393320472860	-0.166418
C	0.4367653840807392 0.6054088946184504 0.6090239960143395	0.101246
C	0.4040104166968405 0.5708559756544718 0.6039011420810901	-0.163731
C	0.2704912075947734 0.4368645843358160 0.6023043104077798	-0.112683
C	0.2361141977614100 0.4040696600741487 0.6024911324371408	-0.116315
C	0.0658625009409009 0.2387572466781923 0.6090857732487284	0.098383
C	0.0997085413539766 0.2722084303339284 0.6040736364279390	-0.166657
C	0.9339146791001799 0.8965747019563428 0.3913540956109887	0.093097
C	0.9015611218268345 0.9313495620218543 0.3969727943917070	-0.163437
C	0.7700293310904237 0.0640119102044069 0.3985798308535606	-0.117040
C	0.7356174459373473 0.0965055336217193 0.3983915386871902	-0.116228
C	0.5671709903802781 0.2594513900473067 0.3911253919293861	0.102935
C	0.6009388716229298 0.2261846502537642 0.3966655154819482	-0.166800
C	0.4335658104809720 0.3964695508983621 0.3913667979624508	0.097776
C	0.4017545931487591 0.4318004451103300 0.3969270664025770	-0.163293
C	0.2699855655673840 0.5641454950232890 0.3985682003645826	-0.116622
C	0.2353959307013407 0.5964282324926790 0.3983986710159190	-0.115021
C	0.0678387928349566 0.7602027529854533 0.3910993913936273	0.101365
C	0.1012387284935721 0.7265675260590531 0.3966322998766534	-0.168157
C	0.0634792695985099 0.1060571037232554 0.8909436911515837	0.100139
C	0.0959810047189628 0.0712690117460637 0.8960506036427945	-0.163781
C	0.2291552626344261 0.9369607633642060 0.8976802518183251	-0.116838
C	0.2636148727673878 0.9042686287292405 0.8974032363349995	-0.114963
C	0.4340647562104903 0.7392079914240968 0.8906731824882549	0.091674
C	0.4002650278630052 0.7727382163980214 0.8954322058001447	-0.167329
C	0.5636625929360470 0.6048394367545292 0.8910745835114686	0.100932
C	0.5964166339668536 0.5702508545162309 0.8963105475658785	-0.166171
C	0.7301522927094776 0.4361656377040063 0.8977193074218071	-0.113693
C	0.7645037694463972 0.4033573284005328 0.8974568642403207	-0.116409
C	0.9349316289187660 0.2386004148180674 0.8908646469344336	0.088189
C	0.9008342488111974 0.2717633019410314 0.8956874371072336	-0.164683
C	0.6516296537245687 0.8236778031319938 0.7499636064166274	-0.102375
C	0.8855240086218921 0.0520723809098665 0.7501211165441470	0.159571
C	0.8221897382881719 0.9872016734253878 0.7500912826392344	-0.097563
C	0.6167881518939328 0.7897773858790491 0.7499551043820226	0.167963
C	0.7875147520526505 0.9531275500462357 0.7500475919031355	0.126449
C	0.7171602859059122 0.8860705503311470 0.7499777991676631	0.136761
C	0.6819126833281469 0.8526357600647686 0.7499690598761487	-0.098446
C	0.8516794514748441 0.0170648196844620 0.7501498407875634	-0.101717
C	0.1525942065338311 0.3243036848956891 0.7496516191131015	-0.105908
C	0.3864456708396459 0.5527337914872684 0.7499545340438015	0.164547
C	0.3230137388659023 0.4880558885622089 0.7500323512856385	-0.092775
C	0.1177894416095304 0.2902472398153897 0.7496530493423081	0.169742
C	0.2883151635302218 0.4540698183391625 0.7500141258600491	0.127060
C	0.2180213385027714 0.3869230890724367 0.7499240592774544	0.138075
C	0.1828330317638453 0.3533543002623344 0.7498322298919965	-0.096285
C	0.3525574229458924 0.5178522457703569 0.7499571838721620	-0.104007
C	0.3467051324741776 0.1749738302482761 0.2499883787433166	-0.103580
C	0.1147437619933671 0.9494602762364799 0.2500282603242411	0.163806
C	0.1773247758619946 0.0141303685746461 0.2499767954783614	-0.097338
C	0.3810976692544106 0.2086619635912612 0.2499725589302823	0.167821
C	0.2120350498433682 0.0474244265641126 0.2499806261820756	0.126135
C	0.2817933409880957 0.1128606514842565 0.2500389159381276	0.138480
C	0.3167042873978019 0.1459841842166365 0.2500435222072546	-0.102266
C	0.1478040347427925 0.9846012548436287 0.2500240005743682	-0.113522
C	0.8466421713954966 0.6751662890902702 0.2499844802792494	-0.104881
C	0.6145881718927657 0.4498279610004912 0.2500396118592203	0.159557
C	0.6774332834183534 0.5141789455690442 0.2499917194578233	-0.104859
C	0.8809184017284956 0.7090041433284408 0.2499833727077384	0.167106
C	0.7122132022526875 0.5474190278452935 0.2499867763518712	0.128800
C	0.7819558218146085 0.6128606233549212 0.2500351723942881	0.135834
C	0.8167716076274641 0.6460507634184791 0.2500383782183811	-0.102102
C	0.6477852451487260 0.4848067541376568 0.2500372940965024	-0.106884
C	0.3473296094419532 0.8246993702189743 0.7498802994351657	-0.100126
C	0.1132816229408558 0.0528273969762711 0.7499828228425658	0.162922
C	0.1765482783399516 0.9879960871178053 0.7500118556501172	-0.095772
C	0.3822051217273891 0.7907240909399386 0.7499111049475496	0.168515
C	0.2112926721148013 0.9540811848093720 0.7500061297193902	0.126058
C	0.2817635830501953 0.8871419027566138 0.7499504983657747	0.140230
C	0.3170321895392505 0.8536758762515373 0.7499137849924414	-0.101571
C	0.1469931302664360 0.0177737739149562 0.7499917047299723	-0.107642
C	0.8477084428286696 0.3233589537358255 0.7500694207617795	-0.104559
C	0.6140600331366303 0.5520398550617098 0.7503490318457533	0.166877
C	0.6775674853959085 0.4873489561545771 0.7501558452095008	-0.092995
C	0.8825311397617931 0.2894068374729150 0.7500928079162565	0.166080
C	0.7123034670559543 0.4533605966804294 0.7500820823211872	0.128432
C	0.7825414930731561 0.3861876352690704 0.7499852440013616	0.138540
C	0.8176223138924598 0.3525533552427050 0.7499925665499942	-0.098847
C	0.6479935052731822 0.5171107347042710 0.7503321274989014	-0.104999
C	0.6530654852325429 0.1752090845741116 0.2500016633407731	-0.103246
C	0.8846581959994018 0.9492637838573448 0.2500763875664287	0.160828
C	0.8220413265144999 0.0138833968332837 0.2500078590574526	-0.101119
C	0.6186590631993426 0.2088794896103122 0.2500211236019056	0.166904
C	0.7875281032327779 0.0474097572555137 0.2500067500675564	0.127615
C	0.7179832115473949 0.1131177397608984 0.2500399658075037	0.137969
C	0.6830881014853036 0.1462544661644201 0.2500333140897119	-0.103298
C	0.8513970995976662 0.9841950432203553 0.2500540976248120	-0.105151
C	0.1528082262458946 0.6749966395761402 0.2499629078404749	-0.109018
C	0.3852024053854238 0.4500463608777926 0.2500319294812950	0.156834
C	0.3223993683739290 0.5144439940125525 0.2499731205384821	-0.108823
C	0.1186136970973005 0.7089067944813076 0.2499632776972056	0.170962
C	0.2875939972456092 0.5476655104176802 0.2499786385435092	0.129591
C	0.2177192287923658 0.6129460957281722 0.2500303345377191	0.134402
C	0.1827833395898898 0.6459997069075565 0.2500227111538945	-0.098325
C	0.3520332740591713 0.4850543217729287 0.2500374520603675	-0.101079
H	0.9501826554670393 0.1186466158303325 0.0029025902103884	0.100336
H	0.8915781073545854 0.0575580390658053 0.0134023956345117	0.121395
H	0.7833338011376404 0.9486617363885803 0.0123953901248332	0.106878
H	0.7217695545874729 0.8902173116620749 0.0119550754105273	0.115066
H	0.5515984132066545 0.7237547022107508 0.0027612590794586	0.100715
H	0.6111634300023856 0.7835942114402331 0.0130839710987948	0.124911
H	0.4514512314758118 0.6195180799763731 0.0016853118071641	0.096944
H	0.3924493355305722 0.5579693354611973 0.0131469120588830	0.122078
H	0.2841925903238339 0.4496753059007925 0.0122328809912283	0.106811
H	0.2227232634129824 0.3911763587063771 0.0120484211912837	0.114546
H	0.0520729194537322 0.2240528627995309 0.0013625663473024	0.093862
H	0.1121754913064821 0.2840809856113311 0.0125822462018193	0.125405
H	0.0530314217793890 0.8802181964330700 0.5015862290401234	0.096784
H	0.1103936588598880 0.9441989330306876 0.5132667006911827	0.119578
H	0.2156862865210768 0.0508577919409580 0.5123215343644624	0.106310
H	0.2780680933944276 0.1093069958775416 0.5120655339002362	0.115468
H	0.4475731981171985 0.2732580467168529 0.5015488553715314	0.097735
H	0.3863912686068077 0.2133711904096946 0.5129276998416936	0.125581
H	0.5531929907119527 0.3807721477100960 0.5027087377530249	0.103619
H	0.6101753131908795 0.4445413222740898 0.5133474859039155	0.119489
H	0.7158763606795938 0.5508154244165137 0.5122978734806607	0.105988
H	0.7782714760409749 0.6093025704338757 0.5120633579394991	0.114873
H	0.9472416302359448 0.7731534717259890 0.5027065137253615	0.099805
H	0.8862698049380052 0.7137937598198266 0.5130707267080434	0.124561
H	0.0501474761762787 0.1214467397833536 0.4984026088250191	0.094840
H	0.1080823849273621 0.0587865184224367 0.4867985166712837	0.121383
H	0.2154845362918001 0.9497302466906933 0.4878058366470986	0.106717
H	0.2771131485579892 0.8914183082941134 0.4878363072019374	0.114210
H	0.4475480250865337 0.7246447677275093 0.4971401311847694	0.100677
H	0.3880251364687995 0.7844532964805047 0.4868270287842412	0.124566
H	0.5492698048791326 0.6189798860750277 0.4985479197594981	0.096703
H	0.6081396211342288 0.5573336466228889 0.4871829512973909	0.122172
H	0.7165805341884289 0.4489614014254766 0.4877472878409363	0.106720
H	0.7780106539955753 0.3904179282166137 0.4880716021453683	0.114474
H	0.9496612211231430 0.2253883323528112 0.4972088018381570	0.099369
H	0.8888380722287244 0.2838867865169659 0.4869535011599554	0.124506
H	0.9481921239430621 0.8823397321679833 0.9972977409898901	0.102084
H	0.8897002884094282 0.9445006932510265 0.9867428331552017	0.120054
H	0.7839622022991478 0.0508941415181767 0.9876937573252684	0.106259
H	0.7217700562043404 0.1095896393849677 0.9879972813612371	0.115372
H	0.5522361372624259 0.2734345277015898 0.9984700570953238	0.098086
H	0.6134367069962696 0.2135834248104091 0.9870560235234010	0.125440
H	0.4466023929322864 0.3809386889336328 0.9972188404061234	0.103666
H	0.3897106760620608 0.4447824692686135 0.9867254012548413	0.119496
H	0.2840290984678942 0.5511537495389962 0.9876574173118311	0.105569
H	0.2215104126472286 0.6094674671273350 0.9879995296084637	0.115162
H	0.0539294928744816 0.7752500938877691 0.9984030621406080	0.095116
H	0.1139558792648948 0.7142245443324817 0.9869828846416338	0.124742
H	0.0530053317879280 0.8801914648190966 0.9983933664773802	0.096398
H	0.1103592794500423 0.9441680131642973 0.9867878346968726	0.119336
H	0.2156604733528489 0.0508406548021481 0.9876404291407304	0.106376
H	0.2780436519755736 0.1092888151134022 0.9880161482297994	0.115512
H	0.4475405400748596 0.2732313609530146 0.9984494488883874	0.098599
H	0.3863568737438620 0.2133366875244525 0.9870160573622399	0.125549
H	0.5531668152748936 0.3807490022841236 0.9972713507806501	0.103471
H	0.6101446023507290 0.4445092936975670 0.9867212975105798	0.119464
H	0.7158463659616553 0.5507955331974599 0.9876713872431269	0.106008
H	0.7782426779006729 0.6092804915002356 0.9880111333181841	0.115025
H	0.9472020239650207 0.7731415245259867 0.9973392996293970	0.100360
H	0.8862275470797729 0.7137787814781581 0.9869023117316376	0.124562
H	0.9501397583430228 0.1185484731829416 0.4971316260463028	0.100726
H	0.8915379626131941 0.0574499154813519 0.4868260756173363	0.121172
H	0.7833133974121487 0.9486471588442411 0.4877052842808487	0.107074
H	0.7217490534400500 0.8902004367433771 0.4880059505928600	0.114949
H	0.5515709511822230 0.7237229248043108 0.4970991285994154	0.100926
H	0.6111225108462279 0.7835698735668406 0.4868396266466066	0.124788
H	0.4513005246082682 0.6196358918223218 0.4983443933334094	0.097358
H	0.3923407262383203 0.5580290621705509 0.4867414505729604	0.122127
H	0.2841787668215113 0.4496693783899720 0.4877851764336364	0.106801
H	0.2227109744338792 0.3911671949357572 0.4878085142565426	0.114588
H	0.0520531976862530 0.2239552318408190 0.4980644223268016	0.093567
H	0.1121168140108995 0.2840103579271251 0.4867267499836150	0.124982
H	0.9481782715918118 0.8823727661425824 0.5027692225690347	0.100907
H	0.8896803647891777 0.9445422023398534 0.5134054453678487	0.119890
H	0.7839331284626586 0.0509240241441308 0.5123221958465102	0.106175
H	0.7217434612951669 0.1096245735373579 0.5120764011400460	0.115367
H	0.5522039846568040 0.2734671786707776 0.5016099770068460	0.097326
H	0.6134049431097029 0.2136181491024262 0.5129678587467008	0.125457
H	0.4465761832719354 0.3809612451094190 0.5027399044536219	0.104087
H	0.3896777178858724 0.4448061285777197 0.5133363901467932	0.119305
H	0.2840021672483788 0.5511714020827186 0.5122985850267939	0.105627
H	0.2214857732767378 0.6094896695539491 0.5120681927072948	0.114881
H	0.0539068593067036 0.7752855749583205 0.5016117769947384	0.095883
H	0.1139344487222684 0.7142586590189156 0.5129298732841443	0.124796
H	0.0500013503602697 0.1213780324916062 0.0015838911195979	0.095038
H	0.1079600832578451 0.0587504940994893 0.0131712091843885	0.121560
H	0.2154585111985803 0.9497473977663197 0.0122082994349729	0.106489
H	0.2770889285529676 0.8914344588710725 0.0120627849570652	0.114401
H	0.4474571399498855 0.7246980552375702 0.0028829280760329	0.101545
H	0.3879212262478685 0.7844948600495080 0.0130092573649138	0.124632
H	0.5491677235808254 0.6190097142779719 0.0019589081933990	0.095538
H	0.6080716741802797 0.5574177635341826 0.0134895146123702	0.122324
H	0.7165607476474029 0.4489696733784208 0.0123852105214778	0.107066
H	0.7779954173856072 0.3904282790947287 0.0119040428133894	0.114505
H	0.9496454469203167 0.2254069091686005 0.0028583459144942	0.099407
H	0.8888068122180526 0.2839035780536890 0.0132292590946387	0.124520
Co	0.4998769858089149 0.6727059916656770 0.7500181135060566	0.815966
Co	-0.0000831348341878 0.1727364469204604 0.7499475085005803	0.844945
Co	0.4998139957401145 0.3273694606783045 0.2500076839362608	0.839261
Co	-0.0001471948587852 0.8271956287919406 0.2500623722052841	0.828721
Fe	0.4998432158782784 0.6718039842620904 0.2498703665151120	1.487708
Fe	0.0012923368906501 0.1728975278527811 0.2500265313444784	1.488622
Fe	0.4998149054191578 0.3254442350669568 0.7499656825218303	1.292762
Fe	0.0014466078533013 0.8269889543384498 0.7499805967434016	1.299627
F	0.4996444842175710 0.6067853986587910 0.2492124004906585	-0.585501
F	0.9715368176033338 0.2304303161606112 0.2500938181320831	-0.578860
F	0.9722036786231050 0.1150068835622415 0.2498062250130187	-0.576297
F	0.4998077967418363 0.2609177370815284 0.7496883965651909	-0.581202
F	0.9716939167220336 0.7702577230935289 0.7498654198728679	-0.533613
F	0.9722732537499601 0.8840225022969619 0.7501590526831670	-0.531791
F	0.5553754673759967 0.7024109931675963 0.2499590180332071	-0.580411
F	0.0639566510029620 0.1730716868005868 0.2500009082662165	-0.585705
F	0.4447473629550810 0.3559077984774611 0.7500560408324330	-0.575409
F	0.4444223811025281 0.7026436924455111 0.2501100044627466	-0.581942
F	0.5549800139716800 0.3556358836481995 0.7500413031291938	-0.575094
F	0.0635687037982842 0.8268378334987744 0.7501447418098979	-0.525101
F	0.4999077972402453 0.6729576202245552 0.4855376291314624	-0.567785
F	-0.0002624848352915 0.1728910649353576 0.4856376385504754	-0.563523
F	0.4997788472950635 0.3270320041018250 -0.0073494901492355	-0.524655
F	0.0001906608190746 0.8270209012506854 -0.0057682576714117	-0.541610
F	0.4997370628143968 0.6732669845820032 0.0142773912624992	-0.566915
F	-0.0000672789202663 0.1730938712276601 0.0143509809817769	-0.563742
F	0.4997595469390829 0.3271067346241709 0.5073019145707133	-0.523308
F	0.0001836952999333 0.8270632670760696 0.5058331212312998	-0.541709
N	0.5479293169064213 0.7216156464674720 0.7499463213226371	-0.242942
N	0.9521695473535784 0.1224140994511320 0.7500086064582300	-0.244157
N	0.0486326169763616 0.2220985212623962 0.7497419328374618	-0.243685
N	0.4529484338028074 0.6229681815697170 0.7500028666488926	-0.237441
N	0.4490791108936627 0.2758998018618188 0.2499953966116160	-0.246108
N	0.0505316792236917 0.8786898454777941 0.2499917323713378	-0.246895
N	0.9489827602416561 0.7761449245562126 0.2500211683774984	-0.250987
N	0.5503952689427053 0.3789873235762048 0.2499964806412004	-0.248799
N	0.4512302236271763 0.7223694211695207 0.7500223222680514	-0.243241
N	0.0471470585491172 0.1233850822208256 0.7499864800173502	-0.242465
N	0.9519298049552541 0.2217674981479215 0.7500286224466198	-0.247872
N	0.5474653639006425 0.6224390765133508 0.7502287213671833	-0.240220
N	0.5506252276142278 0.2760290195540339 0.2500302566451750	-0.245273
N	0.9497217514635112 0.8792858049446840 0.2500328120459807	-0.246782
N	0.0511728112372132 0.7766311790397491 0.2500054553037060	-0.247434
N	0.4492984952023797 0.3791129122309767 0.2499864179006200	-0.248112
	  	
