#======================================================================

# CRYSTAL DATA

#----------------------------------------------------------------------

data_VESTA_phase_1


_pd_phase_name                         FeFFIVE_14_Fe_i
_cell_length_a                         13.04717
_cell_length_b                         13.03888
_cell_length_c                         8.03148
_cell_angle_alpha                      87.50466
_cell_angle_beta                       87.51660
_cell_angle_gamma                      88.72015
_symmetry_space_group_name_H-M         P 1
_symmetry_Int_Tables_number            1

loop_
_symmetry_equiv_pos_as_xyz
   x, y, z

loop_
   _atom_site_label
   _atom_site_fract_x
   _atom_site_fract_y
   _atom_site_fract_z
   _atom_site_charge
C	0.5655602831858908 0.2696360515848332 0.3633016736830872	-0.180131
C	0.4594059956834742 0.2720293631868599 0.3676316308523944	0.097932
C	0.9407824232817308 0.2968331890589027 0.4155727577820059	-0.170744
C	0.0469244551692480 0.2901166624697409 0.4005968608028753	0.100548
C	0.2678714497516270 0.5650669124144519 0.3644806654212461	-0.179859
C	0.2704992203008637 0.4587953102389365 0.3693510240231638	0.096888
C	0.3041515681539473 0.9398992419222506 0.4090179426683256	-0.170532
C	0.2961352211694388 0.0460762785102648 0.3956737700137154	0.100115
C	0.9350498694941793 0.2293475031565675 0.1414586683684460	-0.184173
C	0.0412349260638653 0.2264026149756004 0.1352727959235410	0.095124
C	0.5618276505221250 0.2092851135985200 0.0841095404802721	-0.168970
C	0.4556450765933171 0.2159125567146117 0.0970213449466361	0.091572
C	0.2109024281019526 0.5609079800215676 0.0833254049352180	-0.171801
C	0.2183148101405116 0.4547391187613853 0.0963978607724675	0.091159
C	0.2265635467891279 0.9344343765722530 0.1425266307174793	-0.184501
C	0.2230282281358748 0.0406949754625243 0.1371343796605915	0.096125
C	0.4349202393433126 0.7308660189521631 0.6402421477169998	-0.182000
C	0.5410881233427883 0.7278462781735729 0.6345985599269940	0.095291
C	0.0610909575357036 0.7246856736693882 0.5751308721256139	-0.167604
C	0.9548954223824817 0.7279386803997265 0.5906709903009202	0.091068
C	0.7317750034891365 0.4350573985475100 0.6398761865503856	-0.182391
C	0.7288300799881476 0.5412928219720712 0.6340868090236508	0.096981
C	0.7123600120071207 0.0614807105936010 0.5814461113282157	-0.166898
C	0.7179860729589450 0.9552284026671746 0.5953902678019281	0.090831
C	0.0654302128290253 0.7632969204392941 0.8655050006698062	-0.179021
C	0.9592764626165083 0.7644549149336539 0.8711684818241374	0.093350
C	0.4402309359463389 0.7914893576946881 0.9190924232303384	-0.166396
C	0.5463833882727960 0.7873480083917010 0.9029977021641059	0.102207
C	0.7926490083374900 0.4402656666432084 0.9185439559286862	-0.169170
C	0.7877762971175956 0.5464689547537666 0.9028075635886815	0.101615
C	0.7663124019340225 0.0653762981036637 0.8644787142735763	-0.178254
C	0.7688770883161354 0.9591743692237426 0.8690811622993374	0.097715
C	0.6189814605299010 0.2379059245919224 0.2178112046133188	0.193623
C	0.8826611155717522 0.2646796466113309 0.2853315314580287	0.192519
C	0.2376928611288371 0.6181795128734845 0.2179684794548327	0.193997
C	0.2674521841425353 0.8819308035460725 0.2820676087179442	0.191344
C	0.3823408539291502 0.7623638135783206 0.7866035560044361	0.191439
C	0.1184472352093496 0.7436734604417808 0.7135203321000223	0.192499
C	0.7632334519425422 0.3824248325279522 0.7861527354392462	0.191019
C	0.7382916987761846 0.1186631434105460 0.7166372037489362	0.191501
H	0.6064791924994347 0.2870258379423498 0.4736094627077388	0.109882
H	0.4155774447565345 0.2914572425865490 0.4802738871722866	0.097547
H	0.9031861199104948 0.3265598254041223 0.5275503101030294	0.125457
H	0.0941522906490567 0.3138213349053714 0.4998473615306277	0.098903
H	0.2835604078813030 0.6063891956047712 0.4751812907654524	0.112256
H	0.2879811074682428 0.4152900168973360 0.4833279772974815	0.098546
H	0.3384356273219128 0.9020978723066805 0.5171888124151778	0.125961
H	0.3229410655939471 0.0932680493007479 0.4928354809317980	0.099287
H	0.8933233283494774 0.2088063288679795 0.0337769172401370	0.110578
H	0.0837596113570224 0.2019601707985828 0.0238254920701451	0.098080
H	0.5999341654665857 0.1823689157776076 0.9706752831083623	0.126151
H	0.4098645123636539 0.1962451925621904 0.9931800271361754	0.107866
H	0.1854301641081558 0.5989334094882948 0.9687324103015408	0.125685
H	0.2008696856093490 0.4087965179815659 0.9916762338770551	0.107662
H	0.2021576459123978 0.8927257229953056 0.0372200235270224	0.113460
H	0.1946588923135342 0.0834294558088539 0.0285846741472071	0.097263
H	0.3935590631754849 0.7121972512872061 0.5310607272183234	0.107634
H	0.5839390688791389 0.7042971070517249 0.5230018942618193	0.097835
H	0.0989494490425653 0.7079125033274949 0.4558740583533126	0.125529
H	0.9091326479940999 0.7138884737668407 0.4841909612987909	0.106786
H	0.7136182478198367 0.3933933446137785 0.5307193169177109	0.108154
H	0.7056396836523009 0.5842170735093215 0.5222668912838438	0.097080
H	0.6883658263387259 0.0995140823072419 0.4660472943143700	0.126189
H	0.6997138794167150 0.9094569343579426 0.4909071988796349	0.106228
H	0.1065061925128200 0.7733459285337838 0.9787630985111724	0.106082
H	0.9159205467316801 0.7754175340339822 0.9878540472102909	0.101081
H	0.4024895743074991 0.8172612979884893 0.0336141952412312	0.124508
H	0.5932488159941651 0.8108169499728993 0.0027318264458524	0.097674
H	0.8188915078437216 0.4024156197112467 0.0327892214655472	0.125107
H	0.8104616258839005 0.5934367335043303 0.0029703042536829	0.097706
H	0.7812042621481634 0.1064001959321575 0.9758999060707513	0.108479
H	0.7863153318497201 0.9153888868172882 0.9827725328225499	0.098794
N	0.7753085984404285 0.2751454825380072 0.3048032353908190	-0.121349
N	0.2794682553323168 0.7744818943348596 0.2992386911471495	-0.123576
N	0.7262022763615829 0.2278208445297738 0.1992879543723664	-0.117645
N	0.2267946807566276 0.7254251016902631 0.2007318762000560	-0.116501
N	0.2256001898164972 0.7373595907776506 0.6904403615391482	-0.111718
N	0.7302337837020429 0.2259392983496241 0.6956842922910594	-0.113006
N	0.2750749946154027 0.7702247667089869 0.8095844378190287	-0.118787
N	0.7715616298795518 0.2750436940618616 0.8077278927037146	-0.119833
N	0.4043653508847460 0.2469922914894829 0.2366102678358294	-0.176931
N	0.0973606119313803 0.2547485392890814 0.2630996975093117	-0.174503
N	0.2476296918819336 0.4036789047451251 0.2373143010912823	-0.178517
N	0.2558094775969635 0.0965171098830586 0.2620665751592244	-0.174115
N	0.5969904348704743 0.7547483413813617 0.7637960530171968	-0.173794
N	0.9039050778775012 0.7482691435771416 0.7360835328881535	-0.176181
N	0.7552352240272759 0.5971819839468001 0.7635373228381299	-0.174782
N	0.7465029382757439 0.9040495030802466 0.7366173658558284	-0.175512
F	0.3769718674262785 0.1878579185387991 0.7389411735711630	-0.576996
F	0.2004422147757069 0.3773592210744574 0.7373486460430841	-0.576033
F	0.1406693121630519 0.1457490255349220 0.7692648229729665	-0.572205
F	0.6898645995471183 0.8780958249333269 0.2381556771478380	-0.572488
F	0.8765878161511811 0.6978266438278286 0.2388521032971600	-0.570220
F	0.6426497004144244 0.6445617554071073 0.2690292491379800	-0.568756
F	0.2520511322560274 0.2493146037420755 0.5015659200459239	-0.530269
F	0.2479246361298326 0.2461524034825646 0.9944252337596979	-0.533255
F	0.7464933472975849 0.7487152365479691 0.4945716891627059	-0.531312
F	0.7506137866965673 0.7511565207898951 0.0022085880582579	-0.528877
Fe	0.2435307824654298 0.2405311788904627 0.7486942496200573	1.487662
Fe	0.7408094765227641 0.7439738942198122 0.2491318559638122	1.483354
Fe	0.2509319843029119 0.2500284265563627 0.2491030864978714	0.586062
Fe	0.7504098232640389 0.7506968397374179 0.7494821038414613	0.586618
	  	
