#======================================================================

# CRYSTAL DATA

#----------------------------------------------------------------------

data_VESTA_phase_1


_pd_phase_name                         FeFFIVE_14_Cd_i
_cell_length_a                         13.71506
_cell_length_b                         13.70643
_cell_length_c                         8.25939
_cell_angle_alpha                      88.96357
_cell_angle_beta                       88.84603
_cell_angle_gamma                      90.50219
_symmetry_space_group_name_H-M         P 1
_symmetry_Int_Tables_number            1

loop_
_symmetry_equiv_pos_as_xyz
   x, y, z

loop_
   _atom_site_label
   _atom_site_fract_x
   _atom_site_fract_y
   _atom_site_fract_z
   _atom_site_charge
C	0.5772211589798267 0.2611759075148829 0.3646087875006689	-0.182352
C	0.4760450723822416 0.2640908985982620 0.3678169244903625	0.108108
C	0.9350121008623508 0.2844731900322527 0.4161901024628680	-0.172414
C	0.0358137967312351 0.2763639738878573 0.4015381359622230	0.111917
C	0.2595818226200287 0.5772573331731494 0.3670771320811997	-0.182628
C	0.2622918069587570 0.4759922833815899 0.3707130070740163	0.108044
C	0.2930380107450347 0.9352493704558030 0.4122418594520306	-0.170726
C	0.2843959239346294 0.0361020776100839 0.3986610171544382	0.109845
C	0.9246808171760523 0.2379224590875640 0.1356906163042505	-0.181784
C	0.0258628755713359 0.2337346411027058 0.1306279653865472	0.108363
C	0.5687042530861001 0.2115610521466009 0.0855071273341576	-0.169538
C	0.4677733701577015 0.2195967492178066 0.0973983119523954	0.101335
C	0.2132208350793535 0.5684657716667643 0.0865119574604286	-0.171191
C	0.2212286343508687 0.4675419583154282 0.0987333242932533	0.100766
C	0.2352153871155488 0.9245456162821835 0.1381558839184680	-0.183853
C	0.2309251027540613 0.0257795751423109 0.1336701568802477	0.109737
C	0.4246232192557319 0.7386878658370056 0.6386173669206018	-0.183412
C	0.5257143649314413 0.7353455488219652 0.6332435397061832	0.106649
C	0.0693513043720416 0.7304114181070929 0.5769175198041093	-0.165729
C	0.9682530469581719 0.7341376665522820 0.5910313213747442	0.101990
C	0.7390013698521735 0.4242860640284323 0.6379642009679194	-0.184400
C	0.7353960226778813 0.5254434623522425 0.6329629895652811	0.108717
C	0.7189196110700433 0.0689151823210026 0.5805621898747655	-0.165567
C	0.7255666365172460 0.9678567402599521 0.5926985109679261	0.099965
C	0.0770483137487192 0.7570448381267771 0.8654512008895662	-0.180988
C	0.9758478582497395 0.7578261105831815 0.8694194095546841	0.107317
C	0.4350340144853064 0.7757933422619202 0.9233403488891189	-0.167368
C	0.5359658821854066 0.7698897569135729 0.9071255560378291	0.114569
C	0.7760341615537347 0.4346518277928203 0.9226719101614066	-0.169537
C	0.7693701216189837 0.5355552913592992 0.9070290219021883	0.113777
C	0.7606830413696123 0.0767602930968640 0.8635291951285194	-0.180975
C	0.7631973324666721 0.9755637174424271 0.8661692796206444	0.108330
C	0.6246077887984348 0.2349717816837645 0.2195477990625420	0.189445
C	0.8782713774224783 0.2631597725417252 0.2821090401216231	0.190477
C	0.2351053266496508 0.6244378837716545 0.2213008588289282	0.190305
C	0.2662353348856615 0.8783228765091464 0.2810873089050301	0.189198
C	0.3783150300156547 0.7592440320094922 0.7874266435601825	0.188207
C	0.1247362533637521 0.7431969747512523 0.7154601409650034	0.188483
C	0.7594928724383145 0.3779792641367848 0.7865305628871943	0.189148
C	0.7383825079386968 0.1244013309080238 0.7168770690767596	0.188304
H	0.6185098148480359 0.2749629447771667 0.4732603213465836	0.105929
H	0.4352433092098369 0.2799177073376022 0.4787721771641291	0.102186
H	0.9009622780236036 0.3060980865081708 0.5299591378026534	0.126879
H	0.0829728395382352 0.2898815823147676 0.5037609711669797	0.100782
H	0.2720428790122808 0.6189192250088180 0.4758413255391926	0.108193
H	0.2766004331438867 0.4353707032804311 0.4823992106167896	0.102646
H	0.3194026287556814 0.9012943678586358 0.5229348671787949	0.126084
H	0.3024115652302373 0.0835191932123157 0.4987819098201268	0.101567
H	0.8823650176085839 0.2254613038016371 0.0276465410455570	0.105880
H	0.0656145660051736 0.2159540290953771 0.0192613489194035	0.104227
H	0.6035476506522838 0.1881482693292651 0.9735001728969422	0.125084
H	0.4219931300864916 0.2048455775616571 0.9933536233881566	0.108136
H	0.1913638872316207 0.6030585858591495 0.9735794119397622	0.124794
H	0.2080165876890364 0.4217402853977854 0.9940206756257515	0.107105
H	0.2185233995451761 0.8819759132573392 0.0320381974777810	0.108407
H	0.2091143292163057 0.0654989513820597 0.0246240258064203	0.104823
H	0.3826877766213554 0.7281271438172006 0.5295604339431800	0.101722
H	0.5660845393969016 0.7206748376251679 0.5212227109378318	0.103846
H	0.1045022480705015 0.7182140718605505 0.4599884092890067	0.123487
H	0.9227977297176529 0.7253285219667965 0.4847721854725303	0.106859
H	0.7292589463222767 0.3821553846383496 0.5287961804103071	0.102460
H	0.7209775669363233 0.5658751918682218 0.5210762393800943	0.104022
H	0.6995366178750065 0.1040162510779997 0.4667407761965079	0.123353
H	0.7130484823752861 0.9223717655006772 0.4874552495707354	0.107792
H	0.1178327777915695 0.7642184648014178 0.9765103438875535	0.102024
H	0.9346708191864865 0.7654352430476882 0.9829014899226129	0.106393
H	0.4008687275213215 0.7924800345252359 0.0394350975297628	0.125101
H	0.5833466085440366 0.7806422658362178 0.0098336686254348	0.096971
H	0.7931051822037163 0.4004714167281537 0.0384150491369764	0.125514
H	0.7795270817584342 0.5829219207746702 0.0100896122996438	0.096800
H	0.7723245890199633 0.1176075922415203 0.9734199470856726	0.103461
H	0.7766648241639563 0.9341797928165817 0.9774019907362012	0.105850
N	0.7759970910554963 0.2730749276731135 0.3015273694555627	-0.106866
N	0.2771876949698429 0.7758993579975804 0.2985449211382047	-0.107718
N	0.7269118245671616 0.2254884271196171 0.2010986839725627	-0.099653
N	0.2251982875584385 0.7268032610589881 0.2042658098520159	-0.098570
N	0.2269624032943472 0.7371611656164609 0.6930972589022999	-0.100524
N	0.7301665452757518 0.2266640792859950 0.6968719722440603	-0.100810
N	0.2761154879586425 0.7668228202935680 0.8107590428857441	-0.104699
N	0.7680981693621840 0.2757660638628221 0.8079212614712509	-0.104852
N	0.4226209575030181 0.2454808252935543 0.2363135573707570	-0.230880
N	0.0801794535321781 0.2517354941782944 0.2614235465431464	-0.230979
N	0.2452624577406565 0.4224174440371213 0.2385602786263379	-0.232749
N	0.2540833590345549 0.0803174926055026 0.2619755787222807	-0.230715
N	0.5801767145087696 0.7504636422145715 0.7648576692882217	-0.227932
N	0.9227572297946393 0.7475367102556418 0.7347371819499929	-0.231555
N	0.7499678602682895 0.5798507514233091 0.7649317729954824	-0.229530
N	0.7472347275420573 0.9224479322866276 0.7330946145910738	-0.230624
F	0.3736673306061806 0.1947321927715072 0.7507796633953174	-0.571102
F	0.2030661651263543 0.3775109211155062 0.7521096254321550	-0.568549
F	0.1488147138195031 0.1550197293711283 0.7408299148141031	-0.581755
F	0.7037505380108610 0.8773435852162568 0.2561713139925629	-0.598247
F	0.8777091238885248 0.7095522212892468 0.2545948594863932	-0.597774
F	0.6535460341385411 0.6523988391049969 0.2193933667141778	-0.604127
F	0.2624647438694860 0.2615345216368226 0.5197299592295813	-0.565105
F	0.2457659753716562 0.2451622809080741 0.9780204918302517	-0.564463
F	0.7360964625835790 0.7360374136825183 0.4801894229923354	-0.578656
F	0.7652467848884139 0.7668778593923105 0.0133515739808468	-0.575567
Fe	0.2487714606489785 0.2491141849122077 0.7484356545024986	1.410326
Fe	0.7474774010319349 0.7487156240337639 0.2459662762994402	1.508493
Cd	0.2516929995614301 0.2518345677534742 0.2487376823327964	0.815966
Cd	0.7520678088565929 0.7515829897168333 0.7465710053491745	0.820303
	  	
