#======================================================================

# CRYSTAL DATA

#----------------------------------------------------------------------

data_VESTA_phase_1


_pd_phase_name                         FeFFIVE_4_Co_i
_cell_length_a                         23.22186
_cell_length_b                         20.19427
_cell_length_c                         9.59919
_cell_angle_alpha                      90.00057
_cell_angle_beta                       90.00040
_cell_angle_gamma                      90.00174
_symmetry_space_group_name_H-M         P 1
_symmetry_Int_Tables_number            1

loop_
_symmetry_equiv_pos_as_xyz
   x, y, z

loop_
   _atom_site_label
   _atom_site_fract_x
   _atom_site_fract_y
   _atom_site_fract_z
   _atom_site_charge
C	0.4189998271663138 0.5985625748523675 0.6299990241750958	0.091127
C	0.3750361606828380 0.5521163712513415 0.6282615552339318	-0.164876
C	0.2782313714550614 0.4484375403713738 0.6276515399653287	-0.118295
C	0.2314548683612916 0.4056550239173686 0.6264932973477270	-0.114395
C	0.1286030263275708 0.3185158334109361 0.6254070425970880	-0.165282
C	0.0816882695385636 0.2760634920681151 0.6284982412919659	0.084650
C	0.9190443095904682 0.0985324511002640 0.6299994356258709	0.091424
C	0.8750845423714916 0.0520815819809878 0.6282667076108061	-0.165352
C	0.7782645295498173 0.9483934789646269 0.6276567452857099	-0.118872
C	0.7314865422057965 0.9056136173733380 0.6264882531288578	-0.114251
C	0.6285898147629186 0.8185351034471231 0.6254094632253063	-0.165655
C	0.5816674812629912 0.7760948035863605 0.6284867139818857	0.084913
C	0.5811797263998892 0.4010146160022224 0.1300316784733693	0.090199
C	0.6250409623217300 0.4476158763956498 0.1282654305351655	-0.169912
C	0.7218869520022160 0.5511670139178683 0.1276667020008909	-0.114855
C	0.7685714364632180 0.5940257623621165 0.1264596186080213	-0.111929
C	0.8711213310832485 0.6815352272380719 0.1254108517577292	-0.163815
C	0.9180662945449274 0.7239832249046663 0.1284056066521317	0.082012
C	0.0811086027692066 0.9011290107024709 0.1300351101916132	0.091017
C	0.1249984730075181 0.9476838554554250 0.1282757475925370	-0.170275
C	0.2218863596112089 0.0511658102628057 0.1276588408518273	-0.114997
C	0.2685696809529544 0.0940289927195755 0.1264494101413408	-0.111938
C	0.3711322345459352 0.1814890408988278 0.1253928195327814	-0.164579
C	0.4180830721343235 0.2239153204163542 0.1283797889218291	0.082618
C	0.5811676449817672 0.5987881630093808 0.8699969069736221	0.092828
C	0.6250046600450354 0.5521620210354234 0.8717585388349572	-0.170162
C	0.7218427637099795 0.4484744077773333 0.8723342989887384	-0.117222
C	0.7685428314432491 0.4056227158035092 0.8735110793502814	-0.112631
C	0.8716321707647653 0.3189094738638285 0.8745896165803201	-0.164608
C	0.9186129879038857 0.2765343796890461 0.8715863094549353	0.084880
C	0.0811819280162364 0.0987838274199597 0.8700027053437701	0.093052
C	0.1250081953861748 0.0521522581833498 0.8717527645217595	-0.170169
C	0.2218081796027754 0.9484315536177085 0.8723310759799342	-0.117641
C	0.2685112854740820 0.9055824088738788 0.8735167459855974	-0.112802
C	0.3716253993991277 0.8189180151037210 0.8745875793443277	-0.164278
C	0.4186129481290256 0.7765498065217823 0.8715851753996152	0.084787
C	0.4193215653491536 0.4015433058265050 0.3699921104691111	0.089526
C	0.3752999859264502 0.4479205562610279 0.3717133104972174	-0.166519
C	0.2781155046404895 0.5509763371457697 0.3723216926833889	-0.117735
C	0.2314307148203985 0.5938615327436971 0.3735354755362120	-0.113899
C	0.1292512587753133 0.6820011614663105 0.3745694553062304	-0.164221
C	0.0822675457516218 0.7243835817359880 0.3715335078589806	0.083104
C	0.9193178036129381 0.9015765871017057 0.3699914203457850	0.089291
C	0.8752984611894606 0.9479420741558764 0.3717055764191334	-0.166651
C	0.7781502061973160 0.0509960593751909 0.3723471752259810	-0.117537
C	0.7314738866097917 0.0938820441865447 0.3735520465639767	-0.114184
C	0.6292795482228627 0.1819498783305563 0.3745935513895820	-0.163719
C	0.5822852056098319 0.2243021066639279 0.3715592736644666	0.083026
C	0.5811794426599836 0.4010163450139744 0.3699686086260308	0.090235
C	0.6250405230361530 0.4476181565373788 0.3717343372651162	-0.169978
C	0.7218876206262254 0.5511682145430723 0.3723342428053661	-0.114753
C	0.7685720468953331 0.5940272794333202 0.3735416126598932	-0.111933
C	0.8711240971231672 0.6815373882465665 0.3745864155166833	-0.163941
C	0.9180688701991955 0.7239855691188286 0.3715892426665535	0.082081
C	0.0811071747151270 0.9011293869309946 0.3699614235241181	0.091105
C	0.1249972647452779 0.9476845319791941 0.3717281237808504	-0.170297
C	0.2218869878453519 0.0511682417892527 0.3723511408488861	-0.114922
C	0.2685704074370210 0.0940314819661960 0.3735588897682515	-0.111926
C	0.3711332768345789 0.1814894732442216 0.3746115270232588	-0.164452
C	0.4180841632637943 0.2239159140970852 0.3716242484929599	0.082521
C	0.4190008881823801 0.5985642918590840 0.8700054142140280	0.091489
C	0.3750369639720200 0.5521169459941448 0.8717438970496449	-0.165078
C	0.2782323685222264 0.4484381358696538 0.8723495247425785	-0.118282
C	0.2314560229528470 0.4056558007087071 0.8735070021765071	-0.114409
C	0.1286054968396731 0.3185186397319191 0.8745971797074713	-0.165499
C	0.0816904963424647 0.2760664181444479 0.8715102397934157	0.084834
C	0.9190430885430655 0.0985323410327210 0.8700065718924043	0.091603
C	0.8750837986241814 0.0520816674756242 0.8717334344242373	-0.165416
C	0.7782659998540898 0.9483950141615297 0.8723415099538204	-0.118883
C	0.7314870559454536 0.9056149686664255 0.8735111601144225	-0.114358
C	0.6285914274464264 0.8185351616587099 0.8745912305975354	-0.165525
C	0.5816693144974743 0.7760952370078807 0.8715145883762563	0.084851
C	0.4193228714512606 0.4015423667549439 0.1300135700987684	0.089613
C	0.3753008221344822 0.4479209748120602 0.1282874748785588	-0.166611
C	0.2781161377820240 0.5509772699735820 0.1276806651271336	-0.117827
C	0.2314315410430060 0.5938618372888695 0.1264649557541102	-0.113733
C	0.1292523988213428 0.6820002534580485 0.1254253869815513	-0.164113
C	0.0822686197868151 0.7243827591441520 0.1284600624844832	0.083014
C	0.9193179606764923 0.9015797413929318 0.1300063803733850	0.089331
C	0.8752983025451325 0.9479451454244442 0.1282995067640597	-0.166571
C	0.7781516127757084 0.0509970990233765 0.1276588570871888	-0.117324
C	0.7314746672491991 0.0938834050983185 0.1264510645731492	-0.114262
C	0.6292799937123688 0.1819513605654253 0.1254068743310746	-0.163663
C	0.5822856311702069 0.2243031692858329 0.1284394582990668	0.082962
C	0.5811684070208144 0.5987893602353596 0.6300091867117819	0.092838
C	0.6250059001689722 0.5521639457534500 0.6282455574777412	-0.170041
C	0.7218430098169237 0.4484751287711461 0.6276662575033550	-0.117225
C	0.7685427722392132 0.4056228447600363 0.6264881324096693	-0.112606
C	0.8716331165258280 0.3189076051957866 0.6254137501166348	-0.164532
C	0.9186140092748037 0.2765316647666690 0.6284229517607580	0.084903
C	0.0811804189448623 0.0987860452557537 0.6300038675829754	0.093045
C	0.1250069423662833 0.0521551986370279 0.6282465886686752	-0.170062
C	0.2218085749557245 0.9484321171354784 0.6276660662592922	-0.117656
C	0.2685115363806682 0.9055827004866680 0.6264825862889678	-0.112776
C	0.3716251960919555 0.8189172753231241 0.6254115560498578	-0.164339
C	0.4186126828530082 0.7765490203824912 0.6284139285027539	0.084830
C	0.3506403073135332 0.5249968127539841 0.7500019652366036	0.112520
C	0.3031185181397901 0.4744564931053548 0.7500019432968583	0.070296
C	0.2053225954422194 0.3839679697691341 0.7500002621385359	0.065088
C	0.1542510784124267 0.3404261037226571 0.7499994836427692	0.100059
C	0.8506813878181958 0.0249597364800953 0.7499981481223342	0.112677
C	0.8031567201999947 0.9744067296990825 0.7499983107598160	0.069609
C	0.7053461118153970 0.8839337211621500 0.7499993200023047	0.065234
C	0.6542513102244590 0.8404151900840287 0.7500007727311498	0.100142
C	0.6494471022329581 0.4748332209580504 0.2500008969508158	0.113914
C	0.6969835576140696 0.5252675548739454 0.2500004737142794	0.069253
C	0.7946210744510873 0.6158413616893444 0.2500005872808354	0.067250
C	0.8455574984109243 0.6595549675569951 0.2499996378870037	0.096719
C	0.1494356221094257 0.9748583511372960 0.2500039734017375	0.113583
C	0.1969933315546843 0.0252758426776295 0.2500061413090626	0.069313
C	0.2946124139998431 0.1158449088962156 0.2500033714700685	0.067354
C	0.3455684923612095 0.1595462663971437 0.2500018112092995	0.097301
C	0.6493989820365035 0.5249536396808703 0.7500011196586370	0.110690
C	0.6969329822942438 0.4744166654359326 0.7500004092031396	0.066278
C	0.7946491623186128 0.3839150871205843 0.7499999495669469	0.068081
C	0.8458478147784892 0.3405730591421730 0.7500007920000458	0.099257
C	0.1493843962644292 0.0249372461419858 0.7499987452339478	0.110947
C	0.1968968012519907 0.9743859045993556 0.7499985767919961	0.066400
C	0.2946227875110350 0.8838865810627381 0.7499993308285827	0.067982
C	0.3458323920881836 0.8405716206468593 0.7499992862407274	0.098843
C	0.3507611532665714 0.4748817598188358 0.2499997010929721	0.116107
C	0.3030845502515427 0.5251298782819221 0.2500000911024243	0.073438
C	0.2054721299019875 0.6158275874993024 0.2499994013384935	0.064265
C	0.1547130340853794 0.6598226615134251 0.2499978619468411	0.098405
C	0.8507661610518129 0.9748976963912451 0.2500041240527897	0.116462
C	0.8031028101262340 0.0251574365533181 0.2500020312544042	0.073362
C	0.7055169680004632 0.1158396899353112 0.2500004731528064	0.064625
C	0.6547306053578846 0.1598048832214065 0.2500003153307472	0.097923
H	0.4373456971919567 0.6183620723081522 0.5335822158367886	0.114083
H	0.3614772520895692 0.5391645010498528 0.5248008189660484	0.105991
H	0.2946964089623708 0.4604781946312480 0.5261971210437312	0.087196
H	0.2155200040459357 0.3894305033820460 0.5253701271548645	0.103864
H	0.1449121124393791 0.3335390562539637 0.5239687459438640	0.119741
H	0.0611275794265203 0.2568518769790061 0.5341252740103095	0.114580
H	0.9374006857126319 0.1183225348294845 0.5335787819047434	0.114153
H	0.8615292938878839 0.0391348518135553 0.5248071547577808	0.106142
H	0.7947162748506674 0.9604381372166200 0.5261919029744111	0.087571
H	0.7155454746842467 0.8893907717439709 0.5253705694983558	0.103938
H	0.6448819311094890 0.8335726327743636 0.5239709396659742	0.119929
H	0.5610833545999689 0.7569136441459515 0.5341172403776205	0.114481
H	0.5626972053476925 0.3806577620163372 0.0342191356805516	0.115062
H	0.6387385484116181 0.4606999692524629 0.0249908389381719	0.104232
H	0.7054907099135310 0.5390089476636373 0.0262311679160347	0.085445
H	0.7845386460368464 0.6101921388858201 0.0253415744722704	0.104704
H	0.8549530168984373 0.6667096302422874 0.0236857308748260	0.121558
H	0.9382587939281736 0.7429265787077157 0.0332301430224570	0.114909
H	0.0625746914497204 0.8808312613541763 0.0342431942142873	0.114935
H	0.1386874551550066 0.9607767164789358 0.0250197381673435	0.103985
H	0.2055014340780632 0.0389905697269258 0.0262363004742413	0.085426
H	0.2845251014770699 0.1102127672864376 0.0253426040070987	0.104861
H	0.3549626381318927 0.1666693028134380 0.0236943110963106	0.121791
H	0.4382992982412307 0.2428554895126093 0.0332150022630507	0.115288
H	0.5630977349575084 0.6192601108299949 -0.0338600922098879	0.114950
H	0.6387276490682635 0.5392929785298028 -0.0248569713654508	0.105715
H	0.7055923250443485 0.4607676169588076 -0.0261833041791217	0.086620
H	0.7844910251335294 0.3894309893290349 -0.0253745671559938	0.104696
H	0.8556194513449737 0.3341826466178027 -0.0238624529779246	0.120551
H	0.9393470411076504 0.2580584810455394 -0.0335536183882316	0.115136
H	0.0631095673117306 0.1192872557695132 -0.0338734853082693	0.114957
H	0.1387481994838167 0.0393033030723106 -0.0248779280780865	0.105680
H	0.2055500043795064 0.9607180745092611 -0.0261782211133903	0.086691
H	0.2844612018496853 0.8893886913456762 -0.0253716962850261	0.104887
H	0.3556131790018622 0.8341962448944751 -0.0238689098301838	0.120479
H	0.4393674980038756 0.7580609167152986 -0.0335860182238577	0.115205
H	0.4381166184368509 0.3818978992676093 0.4660922107709797	0.114871
H	0.3618614823441452 0.4611627122289802 0.4750844293671904	0.104767
H	0.2944845654058338 0.5387486246287285 0.4737500612740415	0.085955
H	0.2154096112307307 0.6099239931294840 0.4746806534493079	0.104304
H	0.1457066910242372 0.6674208170084652 0.4761731376042395	0.120666
H	0.0621874975873680 0.7437891690229759 0.4663890502794389	0.114068
H	0.9381217905527826 0.8819183999979887 0.4660617830797255	0.115023
H	0.8618506701152945 0.9611807889018035 0.4750462693449614	0.104610
H	0.7945264786114976 0.0387500433635940 0.4737546337931248	0.085732
H	0.7154630769088479 0.1099575456802596 0.4746867171863035	0.104424
H	0.6457568634581941 0.1673749664801959 0.4761454654083787	0.120817
H	0.5621806023215153 0.2437558677504484 0.4663577105453587	0.114118
H	0.5626982356009654 0.3806608611394197 0.4657797760597130	0.115094
H	0.6387379810052233 0.4607048389068764 0.4750070620986018	0.104234
H	0.7054919711901073 0.5390110909424437 0.4737695525475228	0.085404
H	0.7845401766555713 0.6101946004328631 0.4746588810763790	0.104738
H	0.8549569036278806 0.6667123758334810 0.4763132181483164	0.121579
H	0.9382616244203382 0.7429293190966149 0.4667641113912529	0.114956
H	0.0625717876560573 0.8808319289314943 0.4657516886218594	0.114850
H	0.1386852039790215 0.9607780507466780 0.4749846815988820	0.103996
H	0.2055029801150187 0.0389950591663763 0.4737741238671350	0.085336
H	0.2845265593417259 0.1102172696713939 0.4746657973822148	0.104820
H	0.3549648193633707 0.1666707597199270 0.4763085047169762	0.121750
H	0.4383014859235713 0.2428562093473584 0.4667888286365525	0.115314
H	0.4373466016462426 0.6183634961940868 -0.0335751964997451	0.113966
H	0.3614799424813090 0.5391650155803790 -0.0247947081820527	0.106023
H	0.2946979133297375 0.4604794111570223 -0.0261942572722011	0.087182
H	0.2155215930061621 0.3894320740127782 -0.0253693161586275	0.103851
H	0.1449160133905267 0.3335427243622117 -0.0239674314181122	0.119841
H	0.0611312876812936 0.2568555947138169 -0.0341175418281551	0.114569
H	0.9373994512055427 0.1183226935327809 -0.0335723580525306	0.114109
H	0.8615283997726182 0.0391364287036428 -0.0248067729260730	0.106165
H	0.7947175780596333 0.9604417423640228 -0.0261950147408935	0.087596
H	0.7155470622675242 0.8893945045243905 -0.0253716107502842	0.104014
H	0.6448854694558518 0.8335735136068860 -0.0239693669541386	0.119864
H	0.5610861998531458 0.7569148055357043 -0.0341154885423639	0.114476
H	0.4381177409076596 0.3818963834976989 0.0339113003871516	0.114886
H	0.3618629759186004 0.4611628101638555 0.0249164101074602	0.104792
H	0.2944869378852173 0.5387508942334812 0.0262523406341968	0.085975
H	0.2154110603219564 0.6099248149892800 0.0253186106819123	0.104280
H	0.1457074045064480 0.6674208716458099 0.0238245291897476	0.120641
H	0.0621878635704010 0.7437885359289146 0.0336036443883299	0.114074
H	0.9381211104374814 0.8819243342369473 0.0339352430909486	0.115005
H	0.8618502644475180 0.9611873513571421 0.0249597133086383	0.104583
H	0.7945297913891930 0.0387523061757251 0.0262499919905366	0.085627
H	0.7154649969042569 0.1099589018350602 0.0253169255673602	0.104436
H	0.6457584339851613 0.1673767849866249 0.0238538065019876	0.120801
H	0.5621812136020116 0.2437569526051986 0.0336429052885648	0.114116
H	0.5630972915361908 0.6192623731867196 0.5338666881696233	0.114986
H	0.6387295353637988 0.5392974592907808 0.5248608503195007	0.105624
H	0.7055926924834405 0.4607686039630143 0.5261827600755459	0.086642
H	0.7844915542079083 0.3894315193165636 0.5253748668383872	0.104683
H	0.8556207048264879 0.3341802324635143 0.5238652359827703	0.120510
H	0.9393469745227054 0.2580534917326017 0.5335629371250691	0.115057
H	0.0631066747391248 0.1192897020691339 0.5338798238811342	0.114928
H	0.1387471027707962 0.0393082102549784 0.5248765619193215	0.105578
H	0.2055508043836023 0.9607192496785197 0.5261763957769762	0.086704
H	0.2844618552004446 0.8893892056265932 0.5253705722374689	0.104847
H	0.3556130612826769 0.8341953219105763 0.5238680219428994	0.120473
H	0.4393670526421528 0.7580603049733377 0.5335838186169426	0.115205
Co	0.5000074617567286 0.6883862860577128 0.7500008577654471	0.566872
Co	0.0000257766334293 0.1883894432198593 0.7500185009719577	0.566972
Co	0.5000727495753349 0.3113722922416683 0.2500055335595758	0.566700
Co	0.0000413118919318 0.8114610194872746 0.2499879406033707	0.566369
F	0.5001383515787897 0.6864140942336380 0.4635499648017994	-0.613492
F	0.0001873468830007 0.1864380080482999 0.4634655507214159	-0.613579
F	0.4994758592602229 0.3135057997222184 0.9635992673447868	-0.612899
F	-0.0004934133874350 0.8135252256349541 0.9641051308683821	-0.613116
F	0.5001312945875622 0.6864394900183677 0.0364695229051697	-0.613503
F	0.0001912537227935 0.1864269236081196 0.0364146942133780	-0.613583
F	0.4994823414232138 0.3135102545522221 0.5363692814036907	-0.612868
F	-0.0004835668374892 0.8135474685295165 0.5359513844188952	-0.613243
F	0.4764893385936771 0.7726556894916887 0.2500320882078530	-0.617425
F	0.5764587186583880 0.6597796482391214 0.2499943231507048	-0.613656
F	0.9745424626222641 0.2720933885688628 0.2499186483612532	-0.617886
F	0.0767254983982791 0.1614825618979697 0.2499504559024495	-0.614356
F	0.5757606175421796 0.2929770984236251 0.7499499850277133	-0.618441
F	0.4759124084619491 0.4033341067202918 0.7500005327918792	-0.606802
F	0.0750490983340043 0.7889493937244799 0.7500621251363511	-0.617467
F	0.9783699341481675 0.9035618716063862 0.7500439322150456	-0.607438
F	0.4433066916443312 0.6189221692314206 0.2500012742340422	-0.605354
F	0.9440981428143963 0.1179809152909266 0.2499531033453739	-0.605627
F	0.4399326529836576 0.2518822498680311 0.7499846100716360	-0.615899
F	0.9389375447699270 0.7530001684492940 0.7500060930959634	-0.614700
N	0.4412081970361192 0.6216399145552147 0.7500031954290310	-0.180101
N	0.5591950648160348 0.7546526370440156 0.7500014248699585	-0.186883
N	0.9412426256756469 0.1216138821662374 0.7500055579316492	-0.180112
N	0.0592080433127818 0.2546342498345207 0.7500054732990667	-0.187346
N	0.5589417814557843 0.3779795678886486 0.2499990707027138	-0.178918
N	0.4406764194451105 0.2453021255202249 0.2500015850395546	-0.189435
N	0.0588746022989845 0.8780715222727649 0.2499962759847190	-0.179741
N	0.9406756369882858 0.7453854662616147 0.2499961533777551	-0.188291
N	0.5589041995017415 0.6217806726208385 0.7500035205418616	-0.179314
N	0.4409581048688808 0.7548967469445068 0.7499996812179082	-0.189000
N	0.0589200653319127 0.1217752552928481 0.7500041705709460	-0.179243
N	0.9409678732059034 0.2548808746522777 0.7500055766205224	-0.189257
N	0.4414557624931995 0.3783549451293693 0.2500024946262014	-0.180530
N	0.5594985268060421 0.2454027665969769 0.2499996963843527	-0.188766
N	0.9414507145781242 0.8783869913903118 0.2499969386961427	-0.179880
N	0.0594809193199360 0.7455154120475318 0.2499967434353956	-0.187875
Fe	0.4993723316461500 0.6846267654595606 0.2500072180457583	1.505628
Fe	-0.0007626325253025 0.1846990831021903 0.2499658877066394	1.507170
Fe	0.4980812370843167 0.3150841210691522 0.7499857849336418	1.507058
Fe	-0.0017215892660881 0.8145907761569702 0.7500203158755547	1.507461
	  	
