#======================================================================

# CRYSTAL DATA

#----------------------------------------------------------------------

data_VESTA_phase_1


_pd_phase_name                         FeFFIVE_14_Cu_i
_cell_length_a                         13.09969
_cell_length_b                         13.08636
_cell_length_c                         8.37082
_cell_angle_alpha                      89.05978
_cell_angle_beta                       88.95848
_cell_angle_gamma                      89.18971
_symmetry_space_group_name_H-M         P 1
_symmetry_Int_Tables_number            1

loop_
_symmetry_equiv_pos_as_xyz
   x, y, z

loop_
   _atom_site_label
   _atom_site_fract_x
   _atom_site_fract_y
   _atom_site_fract_z
   _atom_site_charge
C	0.5689844682527080 0.2637238297162604 0.3624471573924720	-0.177569
C	0.4630574311124277 0.2680365342607459 0.3668507204130622	0.105301
C	0.9427783603323568 0.2867816350743437 0.4130561060937971	-0.167851
C	0.0484193793939135 0.2792694384316006 0.3983902111964644	0.112650
C	0.2616502221296629 0.5688790489344393 0.3648249673203486	-0.177871
C	0.2657498891169600 0.4628042126205870 0.3693932124157203	0.105508
C	0.2949302172987590 0.9429121371855567 0.4091592419184967	-0.168288
C	0.2864933941033231 0.0486416146182966 0.3953897233921853	0.111138
C	0.9325620466653054 0.2372953061875936 0.1371896226116592	-0.181040
C	0.0385149236963734 0.2330392305440932 0.1314381457607195	0.104206
C	0.5597106222842725 0.2095861509001122 0.0888082722715318	-0.162198
C	0.4540182393875133 0.2183031063744022 0.1013272103121034	0.101550
C	0.2109869617429576 0.5594732008846027 0.0896309889130715	-0.165798
C	0.2197481893502941 0.4537470655424288 0.1022394337375968	0.101138
C	0.2341812220572379 0.9323640683524437 0.1393447475665373	-0.180708
C	0.2293633592150563 0.0384057108800962 0.1341103866637254	0.107298
C	0.4326590221743171 0.7363735159768716 0.6392422834061114	-0.178927
C	0.5385111355890808 0.7339126327072447 0.6324607497840284	0.104683
C	0.0592576727190809 0.7303834345653563 0.5804525837722990	-0.158810
C	0.9534697992937849 0.7335801022741599 0.5958613433654716	0.100966
C	0.7374350955634432 0.4325122281789694 0.6381569693940582	-0.179353
C	0.7348600378560606 0.5385019346324869 0.6317985007219480	0.106568
C	0.7183790446733325 0.0588808042208293 0.5840630531728518	-0.159362
C	0.7242704505466083 0.9530414741624393 0.5982067283260556	0.100283
C	0.0687113148612914 0.7597615352565702 0.8638696826521421	-0.177105
C	0.9628265185208877 0.7607529586317920 0.8699822178797378	0.105044
C	0.4432703699804062 0.7763924246006724 0.9191419321729434	-0.161773
C	0.5489853038723147 0.7726280830222600 0.9025103027955120	0.113140
C	0.7772768738749259 0.4430154024643694 0.9180795855163806	-0.163785
C	0.7727660785212861 0.5487916473875898 0.9020968452205465	0.112128
C	0.7635369207033044 0.0685311460558670 0.8618739047920212	-0.175117
C	0.7663620604435000 0.9625546416566828 0.8671454398143416	0.105733
C	0.6185953552744441 0.2348482497608843 0.2197645668071245	0.191474
C	0.8834465697504649 0.2637414766660669 0.2814709214371374	0.193736
C	0.2346778026933604 0.6184537551337000 0.2214199249580897	0.193290
C	0.2665449415811551 0.8833586637414637 0.2804218434776941	0.191813
C	0.3837729625261414 0.7579341057187764 0.7859359431085738	0.190024
C	0.1181985851505559 0.7444688805271278 0.7156928137636575	0.192324
C	0.7587513440657065 0.3835449951238171 0.7846801652323245	0.191330
C	0.7394582446684080 0.1179385583017514 0.7168527318837740	0.190513
H	0.6123052718943959 0.2787304973811999 0.4690254437526848	0.108479
H	0.4205090839292743 0.2857094007032976 0.4762868951838122	0.107176
H	0.9069579078348786 0.3091564772260780 0.5255964719305013	0.127193
H	0.0984214963325337 0.2944695142204165 0.4975164730135712	0.104045
H	0.2753073244139261 0.6125379096578725 0.4717245831152399	0.110337
H	0.2817993355460126 0.4203857786953442 0.4795077778427159	0.107694
H	0.3221520140549671 0.9071245037609139 0.5188658432320674	0.127304
H	0.3059155052072048 0.0987872874263560 0.4926129696240158	0.104844
H	0.8885570809127420 0.2235350373596997 0.0307971244220053	0.108725
H	0.0806172094863143 0.2144678574631326 0.0217019034843992	0.107305
H	0.5954898709011669 0.1843588820600936 0.9778363249883959	0.127497
H	0.4058013971040386 0.2023886531135146 0.0000306358883139	0.111988
H	0.1875322961629298 0.5951681466583560 0.9777508909191378	0.127844
H	0.2055564851436682 0.4055246715547395 0.0001648715700581	0.110896
H	0.2163055182775815 0.8880964390722325 0.0347969515125489	0.110805
H	0.2066965554489012 0.0804691825709257 0.0264776626891301	0.107160
H	0.3888987240639463 0.7240829068117791 0.5320901095255601	0.104483
H	0.5807005695522302 0.7182318219788425 0.5218315113114357	0.108443
H	0.0949110208929544 0.7172302295128515 0.4642186093896750	0.126098
H	0.9053599861162135 0.7233505192994691 0.4925504386292014	0.109936
H	0.7258784055548192 0.3885720125258006 0.5307971326228057	0.105144
H	0.7195401213923859 0.5808394651497669 0.5212699581673500	0.108077
H	0.6978905850212561 0.0945667010346992 0.4707499666573309	0.127270
H	0.7100817843659735 0.9048216131707030 0.4961841876404963	0.110687
H	0.1118516940170051 0.7679207271224718 0.9727624931471139	0.103678
H	0.9206009792858761 0.7689849556539079 0.9825533505770573	0.109382
H	0.4075457884897351 0.7931859451885129 0.0341701768720415	0.126531
H	0.5990865068337994 0.7860784847943160 0.0020860985150706	0.102962
H	0.7943660272595726 0.4071893759470236 0.0327966150836640	0.126446
H	0.7855372942965566 0.5988759167475811 0.0020888526546859	0.102218
H	0.7764909547813873 0.1118310270462935 0.9693645244306481	0.105340
H	0.7809686954241966 0.9200832859504177 0.9775938134127861	0.109320
N	0.7762316093995343 0.2736822279033744 0.3011355500229184	-0.105835
N	0.2777023371458961 0.7760059122467129 0.2983793064429140	-0.106239
N	0.7258469553531697 0.2247712415350686 0.2008480585032609	-0.099598
N	0.2242096206569634 0.7257412828169987 0.2038662431984239	-0.099241
N	0.2253351146034810 0.7383129386222442 0.6918851110251844	-0.098012
N	0.7309711047912955 0.2252004332219501 0.6950195559770778	-0.099316
N	0.2766481689417137 0.7650524278939922 0.8102543063668133	-0.104536
N	0.7668940689294625 0.2763466007836508 0.8073069402082763	-0.104476
N	0.4068351543928712 0.2472139170696221 0.2380101157197595	-0.212783
N	0.0951948434662396 0.2529452643294585 0.2601729538066186	-0.210859
N	0.2466754827385954 0.4065235059305338 0.2397701995883331	-0.212990
N	0.2543118867042307 0.0952620126393055 0.2603691025163459	-0.211336
N	0.5954113288764218 0.7518645238276382 0.7618329281388708	-0.209410
N	0.9064691959430412 0.7486414848622182 0.7380743607259175	-0.211514
N	0.7521925983769543 0.5953563090329348 0.7615666625630354	-0.210655
N	0.7479008990242334 0.9061132692068701 0.7373070799600818	-0.211651
F	0.3830204626590979 0.1981771598537733 0.7485720770015313	-0.601637
F	0.2076392994804382 0.3848681367412286 0.7498840633051542	-0.600608
F	0.1442022295846290 0.1508712767718310 0.7470449052617426	-0.605218
F	0.7014121840173660 0.8841863970859998 0.2502831797598341	-0.596217
F	0.8835410553052591 0.7046206209681368 0.2495491464780698	-0.594300
F	0.6477315501889297 0.6476075627377549 0.2404734705073129	-0.601537
F	0.2570682267268721 0.2563224816418215 0.5159771469597746	-0.602116
F	0.2447858843380039 0.2432200509437161 0.9822195161887135	-0.601217
F	0.7420083825606250 0.7428116586301543 0.4811392450491450	-0.599192
F	0.7576947478966242 0.7585457067057262 0.0156220995085867	-0.597107
Fe	0.2477219125420448 0.2467223818161010 0.7491851477947362	1.502691
Fe	0.7466600647356018 0.7478760207867770 0.2483767313282242	1.495497
Cu	0.2510553358093257 0.2509169711994314 0.2488059608724378	0.710987
Cu	0.7509627747696551 0.7507499050609856 0.7489169189810758	0.706833
	  	
