#======================================================================

# CRYSTAL DATA

#----------------------------------------------------------------------

data_VESTA_phase_1


_pd_phase_name                         FeFFIVE_15_Cd_i
_cell_length_a                         30.34559
_cell_length_b                         29.60860
_cell_length_c                         8.30007
_cell_angle_alpha                      89.98275
_cell_angle_beta                       90.00024
_cell_angle_gamma                      89.99323
_symmetry_space_group_name_H-M         P 1
_symmetry_Int_Tables_number            1

loop_
_symmetry_equiv_pos_as_xyz
   x, y, z

loop_
   _atom_site_label
   _atom_site_fract_x
   _atom_site_fract_y
   _atom_site_fract_z
   _atom_site_charge
C	0.9307295417758554 0.0986637179462677 0.8902959854201923	0.096205
C	0.8986453851081921 0.0652311563087392 0.8957046877344920	-0.165079
C	0.7693409135682886 0.9358968716564380 0.8969568244020664	-0.116555
C	0.7359862026789717 0.9039454509330858 0.8967564937840264	-0.115687
C	0.5714622211979832 0.7438706739050573 0.8902984624608746	0.093249
C	0.6041947678841436 0.7766342006011482 0.8953370091227810	-0.167754
C	0.4313672446837900 0.5986417189123325 0.8898907809011770	0.101461
C	0.3992082879189277 0.5653042544321168 0.8956504936896542	-0.168590
C	0.2697543724935767 0.4362640235789657 0.8969945393158749	-0.114309
C	0.2363899631034803 0.4043184109654888 0.8968047879537332	-0.116271
C	0.0722698904071460 0.2440254691354086 0.8899034763135016	0.098239
C	0.1048940717120102 0.2768834589522587 0.8954524966446361	-0.169179
C	0.0704157597046044 0.9001073764176772 0.3899713530734641	0.103518
C	0.1017528232232141 0.9342704016026486 0.3957621729657583	-0.167710
C	0.2305312457746636 0.0641645602670997 0.3969435767353658	-0.114648
C	0.2639149349123908 0.0961006209452344 0.3966991253462298	-0.114613
C	0.4294801875890625 0.2551264696024851 0.3898647120808247	0.100269
C	0.3961990844675276 0.2229606675526008 0.3953009303545280	-0.170225
C	0.5700715886629609 0.3997749544573903 0.3904127742802508	0.096557
C	0.6012527411480355 0.4340785007130403 0.3957225690209413	-0.164776
C	0.7300706627644861 0.5637614937826221 0.3970043982896034	-0.117259
C	0.7634638377712837 0.5956634695189790 0.3967743140106934	-0.115476
C	0.9288041856998802 0.7546659470219422 0.3901909264599354	0.092718
C	0.8954426927501370 0.7225810760524992 0.3954097600411486	-0.168679
C	0.0702586408042558 0.1001442769314446 0.6100340045250211	0.100808
C	0.1015618163071789 0.0659513831342471 0.6042494505581099	-0.166417
C	0.2302816972616936 0.9360368367110442 0.6030543728147496	-0.113433
C	0.2637518319270211 0.9042068887144142 0.6032751281781862	-0.117532
C	0.4283149060880718 0.7442113928918073 0.6096282298521100	0.092533
C	0.3955687978338374 0.7769743582922725 0.6046089166687062	-0.168375
C	0.5683336577505587 0.5989751372651445 0.6096670409350328	0.100575
C	0.6005156804440513 0.5656467822143106 0.6041174269997182	-0.166880
C	0.7300042040319638 0.4365352699695385 0.6030141338436567	-0.113870
C	0.7632860238825149 0.4044947723935077 0.6032377265037663	-0.114203
C	0.9286958618024376 0.2455406952231425 0.6098125893945561	0.093797
C	0.8953139054267683 0.2776117923892987 0.6046073824455124	-0.168872
C	0.9305939319787658 0.9015643698385153 0.1097350488333890	0.096254
C	0.8984654356778132 0.9349644237866783 0.1043118641035952	-0.165837
C	0.7691131992145829 0.0643085622277104 0.1030770940916197	-0.118344
C	0.7358221029063275 0.0963508543677920 0.1032751549804562	-0.114470
C	0.5702420352909534 0.2553593730538388 0.1096848918374324	0.098992
C	0.6035647954399561 0.2232298971971854 0.1043873294873994	-0.168011
C	0.4297680671804284 0.3999795510010638 0.1096479060519116	0.096865
C	0.3985590852499822 0.4342796433186449 0.1043571581790056	-0.165762
C	0.2696917047148462 0.5639761370389286 0.1030406066246752	-0.114555
C	0.2362068218384377 0.5957891223150620 0.1032493213570683	-0.117472
C	0.0721457530471914 0.7562035302293253 0.1101138437533397	0.100011
C	0.1047547310502424 0.7233254662149060 0.1045837837111629	-0.170496
C	0.0704234755898056 0.9001152004209796 0.1100446304848853	0.103392
C	0.1017627928715525 0.9342792754849379 0.1042385134227452	-0.167754
C	0.2305359492374175 0.0641695227345108 0.1030774711228777	-0.114481
C	0.2639201670487936 0.0961060640111746 0.1032801808483720	-0.114437
C	0.4294701919943225 0.2551468563416390 0.1097802409443823	0.099512
C	0.3961881482004551 0.2229781233973131 0.1044512000949179	-0.170145
C	0.5700642214027267 0.3997891039269674 0.1095475936037890	0.096075
C	0.6012474210199615 0.4340955449386847 0.1042196076159733	-0.164713
C	0.7300805067918461 0.5637711943593129 0.1030037048967149	-0.117357
C	0.7634743078294467 0.5956735932668483 0.1032184058235896	-0.115647
C	0.9288131887847529 0.7546756712156006 0.1098522124545250	0.092652
C	0.8954521592822556 0.7225928783172358 0.1046457602884546	-0.168620
C	0.9307394721012376 0.0986741801561059 0.6097488584328740	0.095745
C	0.8986548408580569 0.0652400160027788 0.6043417235038520	-0.164905
C	0.7693491739299385 0.9359065769216994 0.6030753401497970	-0.116631
C	0.7359938791956971 0.9039553091249749 0.6032984486847831	-0.115483
C	0.5714686940307934 0.7438890687463117 0.6095931145067236	0.093084
C	0.6042040714758190 0.7766570296945030 0.6046059859665011	-0.167855
C	0.4313905743142519 0.5986428055249652 0.6097590374271422	0.101207
C	0.3992252842116258 0.5653109520019709 0.6040935281572101	-0.167554
C	0.2697594511124427 0.4362711377370278 0.6030255962756167	-0.114305
C	0.2363980856907875 0.4043264113001385 0.6032425200141092	-0.116262
C	0.0722764775472529 0.2440345768703088 0.6101564311627506	0.097942
C	0.1049013979536756 0.2768925632014598 0.6045831664397264	-0.168803
C	0.9306041255040638 0.9015542414063905 0.3902865065166516	0.096352
C	0.8984760243183708 0.9349542520518251 0.3957012897849613	-0.166041
C	0.7691197623257646 0.0643012559189680 0.3969398988851154	-0.118449
C	0.7358292157263314 0.0963434183973515 0.3967146461211866	-0.114319
C	0.5702506083346065 0.2553472978648930 0.3899021982366134	0.098648
C	0.6035728918637242 0.2232163042712407 0.3952536883966817	-0.168089
C	0.4297560471923758 0.3999574039492514 0.3904992558793481	0.096733
C	0.3985498196644650 0.4342555001533593 0.3958122945955183	-0.165198
C	0.2696986126055157 0.5639654310161276 0.3969956808390029	-0.114517
C	0.2362155340531662 0.5957784909507347 0.3967759510428362	-0.117351
C	0.0721544718590188 0.7561909165875403 0.3898989596479414	0.099658
C	0.1047619250864039 0.7233114725601117 0.3954460537904103	-0.170689
C	0.0702679934439201 0.1001321038706743 0.8899998079337660	0.100859
C	0.1015720175310133 0.0659391191196763 0.8957974578287200	-0.166840
C	0.2302930902892404 0.9360277847640341 0.8969599499432738	-0.113675
C	0.2637645849971766 0.9041981910323965 0.8967479200620663	-0.117474
C	0.4283320120065057 0.7441950249549663 0.8902385499380653	0.092343
C	0.3955886827121775 0.7769542428912389 0.8953396248991565	-0.168226
C	0.5683621239648774 0.5989702118651826 0.8900854608791616	0.099666
C	0.6005374167028699 0.5656372085869310 0.8956880101102102	-0.166198
C	0.7300111491871060 0.4365301520709669 0.8970077230826611	-0.113953
C	0.7632936664772082 0.4044887153381630 0.8968016583607619	-0.114307
C	0.9287068056766558 0.2455287203218338 0.8901836232044931	0.094028
C	0.8953259590993945 0.2776006900177678 0.8953890831953855	-0.169355
C	0.6551284972774690 0.8268119531475556 0.7500110494148294	-0.106421
C	0.8817754224852403 0.0479646273665295 0.7500320972424619	0.159381
C	0.8200260018461957 0.9854430428910905 0.7500100298321283	-0.098481
C	0.6214248495722796 0.7938182598292086 0.7499838675150270	0.169249
C	0.7864376426984960 0.9524445828086281 0.7500135913875775	0.127289
C	0.7186566128426461 0.8874599429076991 0.7500294570202362	0.138726
C	0.6845460520486431 0.8549578199147770 0.7500336653570826	-0.099099
C	0.8487764759615094 0.0142911605864440 0.7500278024286853	-0.105382
C	0.1555944988153498 0.3272308353499059 0.7500152851125993	-0.102282
C	0.3822575109378082 0.5481506015367055 0.7498681286725789	0.164195
C	0.3203937650052042 0.4857752278777916 0.7499752212647340	-0.094636
C	0.1219995569312150 0.2941547792353606 0.7500172654386092	0.169191
C	0.2868193492913012 0.4527930990050384 0.7500035709117497	0.127995
C	0.2190876682521261 0.3878690779974399 0.7500192862045212	0.138957
C	0.1849984399118850 0.3553765099187804 0.7500221342699348	-0.101895
C	0.3491643424123800 0.5145922780584490 0.7499130708867529	-0.108972
C	0.3445900016762519 0.1734862030656371 0.2499294615486879	-0.106222
C	0.1181663135286842 0.9520063963708305 0.2499964229873455	0.164023
C	0.1796301844287118 0.0148488124140601 0.2500278444204920	-0.096295
C	0.3786078437316366 0.2061675275568419 0.2498822312228920	0.170968
C	0.2133666652754988 0.0477069166407127 0.2500194636448937	0.126500
C	0.2812036892411603 0.1126542759403299 0.2499806754153108	0.138637
C	0.3152280642585938 0.1452765947049923 0.2499544752151897	-0.097006
C	0.1507905259539593 0.9860867862535740 0.2499994210871098	-0.109658
C	0.8439080585430564 0.6731486966849978 0.2500204234891147	-0.101573
C	0.6175596234463431 0.4518829177021269 0.2499654662277869	0.159492
C	0.6790786111332593 0.5146165272207847 0.2500062687462308	-0.101637
C	0.8778725833154207 0.7058288867389200 0.2500242330648241	0.167573
C	0.7128924804177778 0.5473548527935174 0.2500113716182405	0.128546
C	0.7807078608450461 0.6122074909644752 0.2499951344625557	0.138918
C	0.8146373854128315 0.6448629144237794 0.2499948354683498	-0.103737
C	0.6501440889296937 0.4859631846912705 0.2499636131304089	-0.105198
C	0.3446412904179527 0.8271094447373538 0.7500128451213109	-0.101678
C	0.1179644006471979 0.0482001614975930 0.7500244854056499	0.165075
C	0.1793890564262215 0.9853261306277541 0.7500040285763808	-0.096565
C	0.3783378397775232 0.7941044829231411 0.7499849066039810	0.166849
C	0.2131182163225938 0.9524803637185214 0.7500062852393833	0.124475
C	0.2811131899438823 0.8877486697206134 0.7500113563616726	0.140773
C	0.3152427757718476 0.8552799374409835 0.7500175438837675	-0.102217
C	0.1505642436181541 0.0141128049042862 0.7500190259286647	-0.112876
C	0.8437655256041972 0.3270475010261522 0.7500113865495626	-0.102472
C	0.6174766569930835 0.5484539818733806 0.7498964859059055	0.160682
C	0.6793446320853029 0.4860578284981761 0.7499689863311066	-0.096678
C	0.8777384892330122 0.2943692819322698 0.7500003863865013	0.167197
C	0.7129377247387642 0.4530692424348690 0.7499995278978104	0.127086
C	0.7805177930799448 0.3879405934822898 0.7500330335541838	0.137180
C	0.8144434012282075 0.3552730039366989 0.7500373386906167	-0.101700
C	0.6505644164973885 0.5148708649440106 0.7499149780881175	-0.106452
C	0.6551828514951680 0.1737703505451755 0.2498567358941491	-0.104620
C	0.8815848156311608 0.9522188342598731 0.2500016646205719	0.159801
C	0.8197855716507114 0.0147227793924608 0.2500187587108241	-0.101159
C	0.6211603568647640 0.2064300790295767 0.2498123845493448	0.170197
C	0.7862033546407722 0.0477427608049206 0.2500152786279294	0.132241
C	0.7185518769583010 0.1129159052179480 0.2499879898676391	0.136310
C	0.6845667248304076 0.1455697978345002 0.2499501806558896	-0.100324
C	0.8485581458768463 0.9858877064007763 0.2500027816362647	-0.101996
C	0.1554148396675129 0.6729167059973546 0.2500119608632565	-0.105806
C	0.3822185383292693 0.4520393018741212 0.2500798321431945	0.161376
C	0.3206815549047227 0.5147847631198784 0.2500406956915199	-0.102428
C	0.1218500933142678 0.7060378958895718 0.2500165425211417	0.170838
C	0.2868819495147102 0.5475562480516626 0.2500263659191664	0.126094
C	0.2188783690576037 0.6122255052416115 0.2500062655726298	0.138673
C	0.1847683961433734 0.6447078789900333 0.2500029448437396	-0.097778
C	0.3495966986089319 0.4860969940446158 0.2500496677945788	-0.106884
H	0.9447590536839984 0.1124283301619997 0.0012517700305698	0.104456
H	0.8868430581229547 0.0526078988676605 0.0111989623103144	0.119349
H	0.7827087423151526 0.9485774729378647 0.0101384504186524	0.107263
H	0.7227618919070286 0.8911952042498988 0.0099168175887248	0.113894
H	0.5579112539998112 0.7297123124567043 0.0015573816947716	0.105152
H	0.6163791423941644 0.7886685486273914 0.0109337478141207	0.124837
H	0.4458683678464986 0.6126012418597394 -0.0005219059250811	0.100618
H	0.3873327870805131 0.5526042672760341 0.0109369492975105	0.119377
H	0.2831406812811781 0.4489408227020468 0.0101484391763737	0.107665
H	0.2231578950281572 0.3915561077783155 0.0099400960817485	0.115272
H	0.0586643759171397 0.2293334480771477 -0.0001399516011828	0.101656
H	0.1172106662649525 0.2889381167050242 0.0108528405899906	0.124248
H	0.0572363926836134 0.8849416614639389 0.4997897597922125	0.100156
H	0.1135876204302471 0.9469582581282479 0.5111053747945948	0.119017
H	0.2172162700985611 0.0514421403302607 0.5101711717156391	0.107712
H	0.2771655107500350 0.1087840871729797 0.5098911833638045	0.114206
H	0.4441527540273011 0.2686749743631254 0.4998996031868642	0.102966
H	0.3839262057123221 0.2108770349790904 0.5107287038917945	0.125848
H	0.5573433493439474 0.3845233239418482 0.5010252017045983	0.103833
H	0.6130790710367024 0.4467085071159076 0.5111420362698724	0.119177
H	0.7167401374335531 0.5510123910496225 0.5101332499141440	0.107048
H	0.7767741117950742 0.6083381984077855 0.5098735886388660	0.115273
H	0.9433372315633020 0.7678343819795898 0.5011640518524494	0.103487
H	0.8831983313626578 0.7105460602002739 0.5109338766101327	0.124481
H	0.0570836611579080 0.1153250496302503 0.5002413682357040	0.102178
H	0.1133922188304888 0.0532598976699617 0.4889095506781110	0.118297
H	0.2168875576317820 0.9486954185646850 0.4898591886429429	0.106153
H	0.2770405185669245 0.8915327410588255 0.4901189237793442	0.115936
H	0.4419646118819688 0.7301714918032017 0.4983899345816339	0.106885
H	0.3834012334209755 0.7890449165649092 0.4889928405411557	0.124613
H	0.5538565645187250 0.6128379527263098 0.4997247172400549	0.104679
H	0.6123798430505066 0.5529675299764116 0.4888115319091202	0.120102
H	0.7166878964040827 0.4492855251670075 0.4898490299137811	0.106864
H	0.7764964843026443 0.3917168449769786 0.4901163322283179	0.114276
H	0.9432267713961795 0.2323554472025010 0.4988280198984779	0.104161
H	0.8830485568691966 0.2896397823335526 0.4890744022945737	0.124704
H	0.9446214142506970 0.8878087583567849 0.9987828451382408	0.104706
H	0.8866445887371378 0.9475852468769976 0.9888395688361127	0.119359
H	0.7824238818917434 0.0515605739400960 0.9898937008110251	0.108260
H	0.7226301838361276 0.1091058876564693 0.9900605268822967	0.114623
H	0.5555927391455188 0.2689297545482952 0.9995805829858011	0.104105
H	0.6158713993823468 0.2111846038897823 0.9889604390980489	0.124755
H	0.4425362808755273 0.3847879314508779 0.9989582406222099	0.105145
H	0.3867553723983783 0.4469293042656723 0.9888987792971164	0.118988
H	0.2830641476807351 0.5513056627681588 0.9898670539728505	0.106350
H	0.2228907192555495 0.6084630091102567 0.9901136363834839	0.115661
H	0.0585334923059077 0.7708926965117496 0.0001614297667686	0.099226
H	0.1170661111000577 0.7112670431657953 0.9891917204130030	0.124397
H	0.0572523492715885 0.8849573445115084 0.0002380998708815	0.100342
H	0.1136060159702006 0.9469702910183752 0.9888877767188182	0.119042
H	0.2172250286550629 0.0514515701710023 0.9898679395136442	0.107644
H	0.2771746790300452 0.1087933371045273 0.9900768224573337	0.114089
H	0.4441329204673233 0.2687177722070699 0.9997223581602245	0.103580
H	0.3839002093876021 0.2109014010421972 0.9890388249461234	0.125624
H	0.5573299382481650 0.3845364990194827 0.9989573569158285	0.104440
H	0.6130741533708772 0.4467369798870379 0.9888019701994711	0.119133
H	0.7167570611689816 0.5510278357811683 0.9898865852013237	0.107034
H	0.7767899037081130 0.6083546287636180 0.9901193132866776	0.115405
H	0.9433524169163210 0.7678534475354468 0.9988790239137647	0.103500
H	0.8832164078529687 0.7105645577135975 0.9891188143714510	0.124529
H	0.9447742728706702 0.1124418292566494 0.4987902172639845	0.104610
H	0.8868599406444906 0.0526243562438244 0.4888630314848330	0.119470
H	0.7827217383595001 0.9485922535358869 0.4898856453840277	0.107216
H	0.7227757317451372 0.8912111645684683 0.4901518228889653	0.113917
H	0.5579094365543672 0.7297372066958190 0.4983379437066402	0.106264
H	0.6163983999975313 0.7887133579022331 0.4890376170047785	0.124832
H	0.4459351129212883 0.6125906530999586 0.5001662542933542	0.101607
H	0.3873535001952343 0.5526059339876721 0.4888297534361370	0.119152
H	0.2831508868551531 0.4489563004936200 0.4898673045711118	0.107666
H	0.2231694362074474 0.3915701583230066 0.4901133335979361	0.115344
H	0.0586763871011662 0.2293473453616661 0.5002157833354808	0.101884
H	0.1172230568014528 0.2889524319809331 0.4891790107304728	0.124186
H	0.9446393120858700 0.8877927415232689 0.5012442651053423	0.104596
H	0.8866651989279415 0.9475658024994966 0.5111724028989750	0.119481
H	0.7824364805227331 0.0515476881846730 0.5101320424625280	0.108324
H	0.7226442802112119 0.1090935320196815 0.5099172660636150	0.114543
H	0.5556137004923493 0.2688992884441025 0.5000026023565767	0.103825
H	0.6158739313323642 0.2111638628398563 0.5106824852625140	0.124771
H	0.4425282459517983 0.3847595812830717 0.5011871244547946	0.104657
H	0.3867396038270539 0.4468794726086832 0.5112653420102667	0.118863
H	0.2830783298626876 0.5512873312668066 0.5101752507829526	0.106363
H	0.2229033444056610 0.6084433473905446 0.5099078797821918	0.115699
H	0.0585449843174413 0.7708695142493738 0.4998474556267786	0.099414
H	0.1170767034945645 0.7112399840102452 0.5108457899517876	0.124536
H	0.0570975762460576 0.1152978847815581 -0.0002053204190291	0.102133
H	0.1134098633052472 0.0532348361212547 0.0111330708833355	0.118370
H	0.2169090373679877 0.9486826417826072 0.0101505184749136	0.106252
H	0.2770600573774000 0.8915175003574137 0.0099045336268785	0.115987
H	0.4419840483517062 0.7301464005951097 0.0014503859621140	0.105812
H	0.3834412862726986 0.7890064722356912 0.0109798363211456	0.124637
H	0.5539321394191270 0.6128339812909910 0.0000384980614799	0.103726
H	0.6124133434303349 0.5529581845652026 0.0109940015178495	0.119753
H	0.7167010452617100 0.4492734760928442 0.0101664244499105	0.106865
H	0.7765089666203198 0.3917047834214519 0.0099369608859132	0.114494
H	0.9432450753972735 0.2323334883571740 0.0011668228980421	0.104032
H	0.8830708866616112 0.2896162554884616 0.0109251383592501	0.124887
Cd	0.4998700717914602 0.6734593380493415 0.7494625083994967	0.825692
Cd	-0.0006780346096168 0.1732276669440176 0.7500555262177312	0.829383
Cd	0.4999164862308041 0.3276513301750223 0.2496148489325901	0.825919
Cd	-0.0006080179843112 0.8271133604536274 0.2500420211898165	0.830063
Fe	0.4992113562698260 0.6730635615676606 0.2493512698067461	1.264065
Fe	-0.0002447716806181 0.1731861973357128 0.2500458977018297	1.273050
Fe	0.4999326648721659 0.3281871122333705 0.7495993156864218	1.269050
Fe	-0.0002847501111028 0.8268776367989357 0.7500346448176920	1.512741
F	0.5032615222826815 0.6106953735725988 0.2521690006385854	-0.566895
F	0.9684318909560028 0.2274811588904871 0.2499697541775316	-0.552580
F	0.9691298322561781 0.1184427633737535 0.2500251349778839	-0.550877
F	0.5007766776619189 0.2657194763550673 0.7506304642482760	-0.562292
F	0.9684792426796344 0.7725206983307940 0.7500255640765331	-0.598409
F	0.9690499400597890 0.8815905461814688 0.7499728808011143	-0.596701
F	0.5503961967036460 0.7072539181020959 0.2504257899222926	-0.547899
F	0.0613057498782452 0.1737670019341989 0.2500636408847267	-0.569680
F	0.4442293542056237 0.3541009403812087 0.7514736521180483	-0.560725
F	0.4505477111630597 0.7108485390465908 0.2507524626569224	-0.553068
F	0.5559923735826280 0.3529793490389669 0.7508286102768041	-0.560121
F	0.0612661877729830 0.8262724811507126 0.7501274008299775	-0.611271
F	0.4987021767986525 0.6718436336283741 0.4779962773684678	-0.532603
F	-0.0000755830320859 0.1731034360162076 0.4831460150647279	-0.531532
F	0.4998956531455933 0.3297828319101640 0.9781254348454179	-0.531681
F	-0.0001147632881649 0.8270190632475456 0.9832064459967155	-0.574463
F	0.4984725427785518 0.6716099850765198 0.0216530568676060	-0.529913
F	-0.0000793098204263 0.1731280653630787 0.0169399987323341	-0.530772
F	0.4996791520847156 0.3298607384136032 0.5218298631285513	-0.533525
F	-0.0000733254414501 0.8270096674570855 0.5168619811678448	-0.574571
N	0.5554162365865156 0.7278593474008811 0.7499435976843787	-0.238905
N	0.9462756826164372 0.1152131096274528 0.7500181943225880	-0.238745
N	0.0561252428846952 0.2280131485953062 0.7500373505512828	-0.233728
N	0.4468512500052340 0.6152307083051989 0.7498334686527958	-0.232395
N	0.4456698958846805 0.2710630723528603 0.2498240923701570	-0.234898
N	0.0550105329116878 0.8834152854488905 0.2500168103193028	-0.236472
N	0.9450691051707252 0.7705327604246132 0.2500206463948584	-0.238477
N	0.5547490850773961 0.3831107772704244 0.2499947469174311	-0.234168
N	0.4443422415279518 0.7281367150656909 0.7499269091412517	-0.237796
N	0.0548769407896826 0.1168601019362248 0.7500193277332281	-0.232825
N	0.9449806481245383 0.2296987606713102 0.7499968921409315	-0.237317
N	0.5528419787034639 0.6155169114688942 0.7498898605296749	-0.235644
N	0.5540106267653028 0.2712230591545686 0.2497971406094298	-0.237161
N	0.9461693280855823 0.8850442310015534 0.2500119013819032	-0.239526
N	0.0560204741255020 0.7722334067755029 0.2500071943874847	-0.235507
N	0.4450551175715886 0.3832702311792035 0.2500921871619567	-0.234112
	  	
