#======================================================================

# CRYSTAL DATA

#----------------------------------------------------------------------

data_VESTA_phase_1


_pd_phase_name                         FeFFIVE_16_Co_i
_cell_length_a                         25.12973
_cell_length_b                         25.12924
_cell_length_c                         7.81337
_cell_angle_alpha                      89.97684
_cell_angle_beta                       89.99726
_cell_angle_gamma                      90.00749
_symmetry_space_group_name_H-M         P 1
_symmetry_Int_Tables_number            1

loop_
_symmetry_equiv_pos_as_xyz
   x, y, z

loop_
   _atom_site_label
   _atom_site_fract_x
   _atom_site_fract_y
   _atom_site_fract_z
   _atom_site_charge
C	0.4776671238919546 0.3875625872488229 0.3699191891498602	0.098433
C	0.4770637916563881 0.3322906119140978 0.3649139663914157	-0.172799
C	0.9549644182740703 0.6131433820611829 0.9437808388674711	-0.125280
C	0.9551271534938393 0.5578935903983959 0.9444294643200664	-0.123824
C	0.5223492160456480 0.6128434538277135 0.3683747688794842	0.104452
C	0.5230639167157192 0.6680663196178839 0.3630838941929471	-0.173901
C	0.0450451457245205 0.3870231599004451 0.9436914387349248	-0.125255
C	0.0448891312737409 0.4422683565610219 0.9443523957718087	-0.125674
C	0.6126865727364790 0.4783395537137488 0.3709306670510755	0.096725
C	0.6679118283239256 0.4772201791660518 0.3660278261454547	-0.171711
C	0.3869920574426605 0.9549653477168196 0.9437173677016230	-0.125370
C	0.4422375841594046 0.9551147208474797 0.9444095462826688	-0.124728
C	0.3876421194880398 0.5216546432736886 0.3690560961766690	0.099983
C	0.3324015808808716 0.5227740314545671 0.3639424484301571	-0.174717
C	0.6131352490072118 0.0450412024981721 0.9436596232777884	-0.125523
C	0.5578820009400776 0.0448773552426327 0.9443455909073285	-0.124072
C	0.5216480067058251 0.3876372415955684 0.6309151464096935	0.100068
C	0.5227734193103692 0.3323958496147951 0.6360404506276103	-0.174937
C	0.0450399731349835 0.6131355070038456 0.0562702043880551	-0.125736
C	0.0448785979890466 0.5578841456379922 0.0555765777754156	-0.123968
C	0.4783312821954576 0.6126686230863768 0.6290517501901438	0.096240
C	0.4772177691767159 0.6678935787791153 0.6339446049639597	-0.171235
C	0.9549639319050355 0.3869926778202445 0.0562512307158075	-0.125638
C	0.9551172157338124 0.4422393145742466 0.0555671269427664	-0.124670
C	0.3875410969981866 0.4776664315702782 0.6301064322150769	0.098205
C	0.3322691052390520 0.4770553267886162 0.6351338797133712	-0.172837
C	0.6131319733338366 0.9549607205535194 0.0562558738570639	-0.125259
C	0.5578806803848698 0.9551144029338712 0.0556025075708272	-0.123825
C	0.6128349469254999 0.5223476575131508 0.6315584278630251	0.103912
C	0.6680585706552290 0.5230568169677565 0.6368367087166631	-0.173530
C	0.3870121735662632 0.0450384681589347 0.0563197569212569	-0.125204
C	0.4422560898610614 0.0448763145182455 0.0556498600785948	-0.125453
C	0.5450176184717013 0.8869581109001761 0.5564321804118109	-0.125543
C	0.5448605189887352 0.9422133121041301 0.5557249840278643	-0.125485
C	0.0217026173438737 0.1129115806906957 0.1316989298858256	0.104459
C	0.0228753012728484 0.1681216907976795 0.1365671270751068	-0.172895
C	0.4549908389990136 0.1131934669604268 0.5563428733511196	-0.125239
C	0.4551354915249170 0.0579319672527698 0.5556402984930381	-0.123349
C	0.9783331709402080 0.8874116433786756 0.1300712344814145	0.096801
C	0.9772306071127871 0.8321601655409050 0.1347877985137739	-0.171876
C	0.1131930378174543 0.5450155382066167 0.5563508743715795	-0.125277
C	0.0579334772460535 0.5448507300085631 0.5556697301349373	-0.124049
C	0.8873686401265529 0.0223426093795185 0.1308452406086991	0.101795
C	0.8321288636426136 0.0229932970731846 0.1363792701813782	-0.173690
C	0.8869482641232709 0.4549714882144951 0.5563326498383669	-0.125031
C	0.9422013840640248 0.4551241564485247 0.5556506921424282	-0.125141
C	0.1129007334810460 0.9776637297328360 0.1289949255544824	0.097384
C	0.1681342362221120 0.9769953760649961 0.1343890840418960	-0.170967
C	0.4549860464429741 0.8869500972702963 0.4436661962112333	-0.125070
C	0.4551309481600423 0.9422040840119558 0.4443471778751195	-0.125311
C	0.9776842392247086 0.1129106994873800 0.8709970445846170	0.097650
C	0.9770138303614342 0.1681429487128681 0.8655670934919348	-0.171144
C	0.5450166386713419 0.1131987685379282 0.4436195417703584	-0.125530
C	0.5448508620147020 0.0579394450396058 0.4442979926485851	-0.123889
C	0.0223382479228573 0.8873834789798304 0.8690720329296059	0.102020
C	0.0230053870245869 0.8321390004375382 0.8635938162502160	-0.174140
C	0.8869656241700060 0.5450292825420211 0.4435501326502051	-0.125499
C	0.9422208597501167 0.5448732131894277 0.4442556622478698	-0.125514
C	0.1129209486267685 0.0217155692426145 0.8683341471258063	0.105306
C	0.1681317825063386 0.0228772187190209 0.8633894642505771	-0.172945
C	0.1131977712421826 0.4549915676801960 0.4436499102802341	-0.125199
C	0.0579365088007553 0.4551446441716017 0.4443478638808842	-0.123520
C	0.8874255430060520 0.9783457194877834 0.8698731133920535	0.097250
C	0.8321702015747023 0.9772307835398526 0.8652134048338508	-0.171604
C	0.4999301749567041 0.3033128208955884 0.5005850704860251	0.176674
C	0.5000694688145819 0.2468325018414268 0.5005220905515405	-0.116882
C	0.5000488936681269 0.1982769348332218 0.5001847480246601	-0.094625
C	0.5000166330710392 0.1418156155253519 0.5000207720022353	0.123898
C	0.4999897140841752 0.0293521940052992 0.4999790708336179	0.065807
C	0.0000279303019837 0.8031593302613809 -0.0008831093851368	0.174898
C	-0.0000329685045756 0.7467158454709621 -0.0008022847999333	-0.116221
C	0.0000073339097024 0.6981772325480265 -0.0002245031327269	-0.095041
C	0.0000050215780718 0.6417470038355437 0.0000169987732907	0.123966
C	0.0000029525271130 0.5293287095767938 -0.0000125860309538	0.066647
C	0.5000386906438100 0.6969655712378987 0.4984867227612342	0.172705
C	0.4999939303408552 0.7534135632124465 0.4987702785763916	-0.113900
C	0.5000374911187345 0.8019514175337819 0.4995692595050061	-0.096854
C	0.5000121866241090 0.8583731521215950 0.4999939279192439	0.125173
C	0.4999933761636858 0.9707859074320841 0.5000172062769673	0.066678
C	-0.0000697593705007 0.1970839967075193 0.0010820971482359	0.173230
C	0.0000696745697289 0.2535055740016502 0.0007588467096331	-0.114327
C	0.0000622642540288 0.3020286922396240 0.0002870616177417	-0.097259
C	0.0000146609024503 0.3584290935158975 0.0000206819489936	0.125124
C	0.0000031900560577 0.4708009902908427 -0.0000343349499819	0.066066
C	0.6969727968591003 0.5000326222424847 0.5014541634255767	0.173328
C	0.7534198771225450 0.4999820870104943 0.5011629730760084	-0.114284
C	0.8019579204465335 0.5000294022750530 0.5004013682843269	-0.096387
C	0.8583774503443481 0.5000089622991167 0.4999907527614888	0.124889
C	0.9707863008758495 0.4999983062921963 0.4999699781147388	0.066766
C	0.1970887155413243 -0.0000725199866537 -0.0011388171702334	0.173700
C	0.2535107577285945 0.0000722334288873 -0.0008549992358187	-0.114860
C	0.3020360498309906 0.0000626221986296 -0.0003362386492219	-0.096537
C	0.3584346674422276 0.0000143512191205 -0.0000376973237873	0.124566
C	0.4707954599759400 -0.0000058059121948 0.0000183232353184	0.066329
C	0.3033067853476731 0.4999226305379592 0.4994377434262640	0.176997
C	0.2468285452340072 0.5000551713228235 0.4995080305726278	-0.117078
C	0.1982738415495381 0.5000417629494439 0.4998133394694033	-0.094292
C	0.1418143441309418 0.5000136129776384 0.4999663850530771	0.123942
C	0.0293505943544606 0.4999958382742277 0.4999979300781326	0.066242
C	0.8031612305070364 0.0000227414822370 0.0008916342990374	0.175062
C	0.7467159657962777 -0.0000234213537443 0.0008396616070292	-0.116421
C	0.6981734510787634 0.0000108847070024 0.0002317721769752	-0.094551
C	0.6417404218524418 0.0000057081516753 -0.0000237751019013	0.123660
C	0.5293263661163918 -0.0000056655719787 -0.0000112954047836	0.066648
H	0.4608998558230752 0.4110311332891682 0.2652298988088280	0.108976
H	0.4593017459677763 0.3118144684624803 0.2562159698025440	0.126888
H	0.9202592041283948 0.6348629053275817 0.8979305666151075	0.111099
H	0.9204975924514760 0.5363579383052183 0.8965776078897838	0.105723
H	0.5389994478740265 0.5892873893866338 0.2644653939475842	0.104068
H	0.5410418742211216 0.6886020754233243 0.2549267313232240	0.126399
H	0.0797240231161479 0.3652507706500616 0.8979273978226359	0.110980
H	0.0795409222829198 0.4638005201771679 0.8965564332096346	0.106284
H	0.5892617999947658 0.4623087735045414 0.2653929674188182	0.109613
H	0.6882421916575058 0.4591579436397163 0.2575978133963984	0.127752
H	0.3652126839779730 0.9202857339744832 0.8979504287006100	0.111631
H	0.4637668159617694 0.9204755569253484 0.8966001600041865	0.106414
H	0.4114199429889115 0.5388234098735643 0.2659312722010659	0.104287
H	0.3119773319250495 0.5410256094079898 0.2560114408851142	0.126645
H	0.6348579815427514 0.0797657489062176 0.8978725074562156	0.111127
H	0.5363343198347329 0.0795193728602464 0.8965578420417610	0.105752
H	0.5388151788565588 0.4113994793018339 0.7340180574516789	0.103664
H	0.5410285522939055 0.3119601476134560 0.7439465215689501	0.126479
H	0.0797545597073828 0.6348432403651223 0.1020844605777613	0.111001
H	0.0795093534976501 0.5363356687930037 0.1033837276317557	0.105564
H	0.4622927572685915 0.5892369195052521 0.7346172113861029	0.109630
H	0.4591570672186766 0.6882138278452136 0.7423897357618013	0.127572
H	0.9202802259351092 0.3652126258196000 0.1020453674217236	0.111550
H	0.9204746473116773 0.4637595724791467 0.1034079696293768	0.106298
H	0.4110062273319298 0.4609028078261213 0.7347984117807520	0.109293
H	0.3117846601137869 0.4592849278740548 0.7438593029888311	0.127159
H	0.6348610970916022 0.9202503624584892 0.1020760431490239	0.111158
H	0.5363378495896201 0.9204692909546456 0.1034282086327063	0.105901
H	0.5892666892236441 0.5389931497930485 0.7354595002358679	0.104589
H	0.6885807487211988 0.5410286828360137 0.7449746262192584	0.126418
H	0.3652353970850351 0.0797194960957832 0.1020527731302311	0.111047
H	0.4637910611057574 0.0795201945274056 0.1034143059451340	0.106399
H	0.5797261454715668 0.8652073635851344 0.6021205796563177	0.111112
H	0.5795201205008628 0.9637438354909137 0.6034381100520344	0.106277
H	0.0382561037068882 0.0892976884773214 0.2356717296457178	0.103566
H	0.0412207794182805 0.1885851490279112 0.2441654855363453	0.125542
H	0.4202609009271424 0.1348847945672109 0.6021118956587882	0.111293
H	0.4204861391626140 0.0363852925591506 0.6034153441992183	0.105609
H	0.9616600717738949 0.9109589597595023 0.2346288359183515	0.107929
H	0.9591049075736380 0.8117386883702622 0.2430021363196370	0.126573
H	0.1348929855380830 0.5797472499499714 0.6021120328619161	0.110952
H	0.0363866323739447 0.5794902187330297 0.6034131293968699	0.105689
H	0.9111541341689007 0.0395650249311595 0.2337248269905169	0.104052
H	0.8116144796738342 0.0409190216805260 0.2446324766621165	0.126053
H	0.8651861896739540 0.4202668477632797 0.6020978685697606	0.111629
H	0.9637270199218544 0.4204686473550688 0.6034505643276836	0.106571
H	0.0894336402177621 0.9615225731507197 0.2342279126313843	0.109690
H	0.1885565677516634 0.9592338151239567 0.2431756883249770	0.127208
H	0.4202895157394654 0.8651942830926639 0.3979249100832051	0.111508
H	0.4204759659023082 0.9637285687742674 0.3965597599959102	0.106507
H	0.9615717680916466 0.0894521214924301 0.7657525663440027	0.109169
H	0.9592555388601074 0.1885653893876982 0.7567724657730200	0.126709
H	0.5797523750888182 0.1348997614659042 0.3978550011561994	0.111008
H	0.5794955611147145 0.0364013734823686 0.3965433304814897	0.105623
H	0.0395667827082043 0.9111730451916809 0.7661477473537707	0.103472
H	0.0409228275316856 0.8116370975957951 0.7553206658014989	0.125636
H	0.8652168609988603 0.5797437283658547 0.3978427853253096	0.111102
H	0.9637612302313114 0.5795369688999475 0.3965277957012593	0.106397
H	0.0893122666464861 0.0382822482623974 0.7643952315484448	0.104171
H	0.1886039349044687 0.0412404549534725 0.7557744711153856	0.125938
H	0.1348970411066336 0.4202639366604032 0.3978758995135548	0.111277
H	0.0363909056137607 0.4205030145985850 0.3965793572826481	0.105789
H	0.9109721424826859 0.9616658129629276 0.7652875593876592	0.109027
H	0.8117412316970730 0.9591153433198302 0.7570235809670025	0.127035
Co	0.5001883252863801 0.5001844426810974 0.4999996135956068	0.685445
Co	0.0000633106108415 0.0001624540820817 0.0001467909248902	0.690744
Fe	0.4988992210666915 0.4988945519744134 0.0000012322202683	1.248640
Fe	-0.0011548059289809 -0.0011692520470089 0.5002010348076992	1.252261
F	0.5019627605245464 0.4980618084140968 0.2480893008649355	-0.515384
F	-0.0023554812382850 0.0019256339269325 0.7471990500878858	-0.514846
F	0.4980403966785505 0.5019528819376773 0.7519096255109972	-0.515264
F	0.0017175582846733 -0.0025426522160359 0.2532453017707649	-0.513486
F	0.4464781943780846 0.4464758752374954 0.0000961351678021	-0.573997
F	0.9464245388402248 0.9463629888455861 0.5009471558517062	-0.564262
F	0.4776418008261729 0.5699271596040071 0.0094093363698909	-0.571774
F	0.9784011393161963 0.0701471769777377 0.4903588132182200	-0.575446
F	0.5699323428076871 0.4776443302045577 0.9905494752207339	-0.570338
F	0.0701893507651006 0.9783996752667936 0.5096632096835179	-0.571706
N	0.4994434162103086 0.4149110592681038 0.5007747357465174	-0.204517
N	0.0005127405998793 0.9146974353467626 -0.0003791241128594	-0.209280
N	0.5005251280841793 0.5854248434661421 0.4987132189359791	-0.209954
N	-0.0005190687615013 0.0855831943723640 0.0018565802973020	-0.216320
N	0.5854270561990268 0.5005313251609875 0.5012522082999317	-0.208671
N	0.0855766915314221 -0.0005074046734477 -0.0017945819000287	-0.212276
N	0.4149040176775146 0.4994483224197226 0.4992202930543154	-0.203183
N	0.9146883056762213 0.0005413745219271 0.0002808164701497	-0.204970
	  	
