#======================================================================

# CRYSTAL DATA

#----------------------------------------------------------------------

data_VESTA_phase_1


_pd_phase_name                         FeFFIVE_4_Fe_i
_cell_length_a                         23.30270
_cell_length_b                         20.49425
_cell_length_c                         9.49039
_cell_angle_alpha                      90.01385
_cell_angle_beta                       90.02690
_cell_angle_gamma                      90.00393
_symmetry_space_group_name_H-M         P 1
_symmetry_Int_Tables_number            1

loop_
_symmetry_equiv_pos_as_xyz
   x, y, z

loop_
   _atom_site_label
   _atom_site_fract_x
   _atom_site_fract_y
   _atom_site_fract_z
   _atom_site_charge
C	0.4179363694269282 0.5974226405952766 0.6287412052462348	0.094891
C	0.3742429105052056 0.5514950733502044 0.6271430902021776	-0.169732
C	0.2779506534130596 0.4486291872231299 0.6265811513493992	-0.118921
C	0.2316655302240794 0.4060374798005443 0.6252836920318912	-0.114697
C	0.1300321370861279 0.3187332776053474 0.6242266975993104	-0.167721
C	0.0836737947527950 0.2763470994094823 0.6276773222537110	0.090090
C	0.9176258386885564 0.0977899555592397 0.6289108229161019	0.095655
C	0.8741991736926253 0.0515275579996049 0.6271145831308942	-0.169280
C	0.7779578304293893 0.9484294672594847 0.6264005077894361	-0.119243
C	0.7316502492526494 0.9058602114090746 0.6251782915044639	-0.113592
C	0.6298357922304866 0.8189066713712375 0.6240781191352127	-0.168577
C	0.5831893600355421 0.7769454748313172 0.6274353014868328	0.089420
C	0.5824779337080598 0.4019240964127884 0.1289945644667448	0.104546
C	0.6258529922767635 0.4482352361496065 0.1269037239148124	-0.174769
C	0.7224068785033478 0.5510851836349100 0.1263145166521882	-0.114463
C	0.7685674023418654 0.5938333181701114 0.1251830382121383	-0.113582
C	0.8700107843568192 0.6811891787362190 0.1240662980938588	-0.166276
C	0.9166897364728840 0.7231139706796537 0.1271697616745952	0.088187
C	0.0819774350541981 0.9024603763514968 0.1288130121686638	0.096896
C	0.1257068404102042 0.9483268252904201 0.1269842816244675	-0.173743
C	0.2223310418499466 0.0508896971308074 0.1264993301384079	-0.115778
C	0.2684954224128354 0.0936212362426504 0.1252215454100364	-0.111078
C	0.3698004666347953 0.1811412613222020 0.1239292876289080	-0.168543
C	0.4161909803630323 0.2234907870310136 0.1269735911355974	0.096595
C	0.5822537201116621 0.5976680504957833 0.8711546799072705	0.094736
C	0.6258867817919227 0.5516407209979732 0.8730628427518098	-0.172777
C	0.7223007096272563 0.4486497893073113 0.8736629106713485	-0.119150
C	0.7685741131228232 0.4060610298322266 0.8748765452812871	-0.111863
C	0.8704343845511532 0.3194312662061026 0.8761719992498542	-0.166624
C	0.9168440137304906 0.2771233776874690 0.8731048431160525	0.088334
C	0.0827037989338804 0.0981277116422049 0.8708388886857866	0.096380
C	0.1259905380917785 0.0516920376830998 0.8727866105637271	-0.172651
C	0.2222789505888666 0.9485159110399484 0.8734444892511803	-0.118816
C	0.2685550893490020 0.9059157630795136 0.8746799183175187	-0.111573
C	0.3706638260768491 0.8193851132394199 0.8756695024944220	-0.166736
C	0.4173825190416581 0.7774967438565404 0.8722441222299853	0.086376
C	0.4178414905193393 0.4024502472457988 0.3710223637337007	0.100958
C	0.3743527548758095 0.4486231880209103 0.3727863883275936	-0.169996
C	0.2776742072017476 0.5510434204623977 0.3734243576589425	-0.116001
C	0.2315189766112151 0.5937968805718097 0.3747163644833169	-0.114947
C	0.1304426528842552 0.6817664269857009 0.3759368858551584	-0.166461
C	0.0837813229210704 0.7237169057578643 0.3728217677685469	0.088954
C	0.9183538575781077 0.9027844145772652 0.3711834158522785	0.094467
C	0.8745583057458755 0.9485695979395400 0.3730012388340995	-0.169520
C	0.7777035381195723 0.0508557330110836 0.3736258243953545	-0.118219
C	0.7315555026223554 0.0936216274163175 0.3748005963189562	-0.112419
C	0.6305609843405551 0.1818049486389531 0.3757265167957835	-0.168457
C	0.5841701080303001 0.2241631860847669 0.3723139648686388	0.095054
C	0.5825212533189087 0.4020010289188968 0.3710146291108395	0.104368
C	0.6259032658756472 0.4483063739155260 0.3729369772944290	-0.174715
C	0.7223697900429963 0.5511562616028700 0.3735552227377957	-0.114563
C	0.7685502698412700 0.5938860887851319 0.3748099052838846	-0.113265
C	0.8700496834043198 0.6812293643774119 0.3759799785175938	-0.166871
C	0.9167307125500905 0.7231486938822516 0.3728917747114514	0.088696
C	0.0819409591905631 0.9024813861082414 0.3710394648352658	0.096637
C	0.1256606874062254 0.9483501636724395 0.3730476440648327	-0.173895
C	0.2224017435184872 0.0509405291978659 0.3737059992068244	-0.116677
C	0.2685595603046312 0.0936906437078597 0.3748913406173219	-0.111371
C	0.3699200715815545 0.1812590563219177 0.3758339941361903	-0.168384
C	0.4162932975456200 0.2236432763220549 0.3724747125708363	0.096579
C	0.4181271578893387 0.5975176951939096 0.8709746518746945	0.095265
C	0.3743955244531813 0.5516296649865905 0.8730507626992871	-0.169237
C	0.2779705256460394 0.4486087053529544 0.8738226230204259	-0.119623
C	0.2316890995249873 0.4060197272746026 0.8749408065793360	-0.114189
C	0.1300819453328698 0.3189028389104768 0.8760787655100314	-0.168654
C	0.0837171179912637 0.2765318642167598 0.8728894588289183	0.090427
C	0.9176415153208133 0.0978944175615197 0.8711147873402710	0.095651
C	0.8742317702415142 0.0516124758293466 0.8730135017848289	-0.168888
C	0.7779683479527157 0.9484633232959762 0.8736562005078441	-0.118961
C	0.7316719148556081 0.9058905411464326 0.8748089797292921	-0.113810
C	0.6298736661029192 0.8189759519404058 0.8759295378573296	-0.168780
C	0.5832406548590574 0.7769855736362017 0.8726738910883648	0.089085
C	0.4179094858707684 0.4024517976214264 0.1288891036866545	0.101546
C	0.3744535190620946 0.4486559598443167 0.1269236572401166	-0.170710
C	0.2776790165640499 0.5511506304614264 0.1261706735020392	-0.116721
C	0.2314970474289132 0.5938734475184485 0.1250207958055990	-0.115568
C	0.1304086396011637 0.6817979649336566 0.1239964638386256	-0.166944
C	0.0837464326574673 0.7237472681166728 0.1271630701872291	0.089500
C	0.9183267361808567 0.9028039171581660 0.1287977525890974	0.095085
C	0.8745544027300755 0.9486120348617538 0.1269993554414968	-0.169508
C	0.7777221120799123 0.0508794632725667 0.1263630976164797	-0.117910
C	0.7315556457772572 0.0936179085909579 0.1251433676402569	-0.112658
C	0.6306203130359691 0.1817124383907098 0.1238554800081566	-0.168087
C	0.5842132551591260 0.2240371980046713 0.1269139492907562	0.094910
C	0.5822352238529072 0.5976923496294928 0.6289856303183583	0.094976
C	0.6258755509691446 0.5516820515298729 0.6270594777554221	-0.172653
C	0.7223483879295083 0.4487246417112993 0.6264326229596910	-0.119757
C	0.7686019857760819 0.4061046371363542 0.6252737319751202	-0.111839
C	0.8704747516889529 0.3193416110352282 0.6243029709750424	-0.168017
C	0.9168818124249423 0.2770218091306767 0.6276649448973595	0.089388
C	0.0826910878583781 0.0981316607251830 0.6286912974095575	0.096045
C	0.1260234215963498 0.0517474492574429 0.6268163687901128	-0.172181
C	0.2222437624101404 0.9484847633089433 0.6262308514855375	-0.118817
C	0.2685113159991262 0.9058822795949100 0.6250677188949973	-0.110675
C	0.3705772760245562 0.8195445259622050 0.6238020851554981	-0.167182
C	0.4172680858533406 0.7776260830566436 0.6268076444687429	0.087805
C	0.3499156930335311 0.5246239366910017 0.7501976532730592	0.109374
C	0.3027399063415463 0.4744522653502833 0.7502418352906002	0.070354
C	0.2058283860946648 0.3843019959147330 0.7500822617032571	0.066027
C	0.1553576108963591 0.3408155901545737 0.7500974375575313	0.099596
C	0.8498907488013346 0.0245242456044089 0.7500774024517272	0.109111
C	0.8027401562422591 0.9742953964174843 0.7500492118199382	0.071807
C	0.7058067485223715 0.8841509954568467 0.7499724753674993	0.064629
C	0.6552639813338620 0.8407701613787699 0.7499941033603249	0.100942
C	0.6503082553249605 0.4752669227777460 0.2498946743127494	0.117358
C	0.6975655968635487 0.5253577926588126 0.2499062591662123	0.066028
C	0.7942879987196915 0.6157713171039232 0.2500230176262496	0.070940
C	0.8446616457100865 0.6593813702387165 0.2500210499005849	0.096669
C	0.1502256720909807 0.9751674181018809 0.2500683991470026	0.110850
C	0.1975300622625481 0.0251423270069882 0.2501227768429262	0.069596
C	0.2942384473801811 0.1155346400738304 0.2500338204668167	0.066211
C	0.3445741524655552 0.1592029475557068 0.2499545714177145	0.103248
C	0.6502721728867839 0.5246462093699039 0.7500577766290679	0.106833
C	0.6975144448735598 0.4745056469101493 0.7500452981278288	0.066668
C	0.7944526344427113 0.3843996430477647 0.7500877498285399	0.068481
C	0.8450287476895318 0.3411146909099431 0.7501712676169426	0.098512
C	0.1502863959227370 0.0245699103436119 0.7498112702742165	0.107364
C	0.1974435293633013 0.9743279983160843 0.7498295163281956	0.067475
C	0.2944093959397701 0.8842245626923237 0.7498884541661124	0.066997
C	0.3450788938336552 0.8410511905423161 0.7498199249810885	0.099997
C	0.3498772733013908 0.4754357533142770 0.2498161269163806	0.120526
C	0.3025472234653004 0.5253804689278498 0.2497738439867480	0.069476
C	0.2058779799569004 0.6158689246682261 0.2498935717887681	0.068786
C	0.1556660968209216 0.6597068235297948 0.2499479216244701	0.096984
C	0.8499327116898273 0.9752874492064777 0.2500051462654032	0.112357
C	0.8025609989571340 0.0251721327094132 0.2500052151990128	0.074610
C	0.7059008168740613 0.1156381443310114 0.2499492954886709	0.062372
C	0.6557268313870364 0.1595439502749582 0.2498635457493313	0.105538
H	0.4359677162291159 0.6168035480838471 0.5308977117181501	0.112147
H	0.3608532482799457 0.5388356991754317 0.5224175598342347	0.105716
H	0.2940211961594710 0.4606131540413237 0.5238068387649132	0.086519
H	0.2158590527375631 0.3900371427397299 0.5229180771183856	0.103311
H	0.1460716198212030 0.3335279260351294 0.5214368779753311	0.118474
H	0.0635415903420441 0.2572872620420933 0.5320121580810634	0.109881
H	0.9356116883603884 0.1173104966922409 0.5311499465073471	0.111236
H	0.8609868768459280 0.0387224505888462 0.5223285477114763	0.105628
H	0.7939963827651991 0.9604490160633502 0.5235878132154371	0.086672
H	0.7158380552986897 0.8898844766847791 0.5228305397614644	0.103215
H	0.6458965219783109 0.8336838451370263 0.5213138598052685	0.119117
H	0.5628086581903847 0.7582204614164801 0.5317861795609151	0.111228
H	0.5642967074380426 0.3818977262610360 0.0319509127405700	0.107988
H	0.6390881212881063 0.4612198272494674 0.0222636963682147	0.103611
H	0.7065876486543727 0.5387430285611862 0.0234501818220734	0.086043
H	0.7844057206281908 0.6097689145527938 0.0229012656414599	0.105511
H	0.8540786928794439 0.6665164519381266 0.0210884868268286	0.121155
H	0.9366861335229212 0.7415109000122588 0.0306818707680792	0.113297
H	0.0635624709898303 0.8826874563592862 0.0317576920202732	0.114151
H	0.1391172194833235 0.9612247759971970 0.0224286769245267	0.104997
H	0.2063907686830252 0.0386519245579842 0.0236958507922672	0.085832
H	0.2842692310440059 0.1095923480053926 0.0228893810253748	0.104005
H	0.3538605896108386 0.1663658407902472 0.0209656850610240	0.118999
H	0.4360536458610442 0.2420434836255203 0.0305528774421974	0.107725
H	0.5643896283832862 0.6176904723341164 -0.0313926134634616	0.113345
H	0.6393807108046250 0.5390411742489856 -0.0222416527850268	0.105099
H	0.7063288874237454 0.4607470546824622 -0.0235049544651082	0.086060
H	0.7843768312860282 0.3900656711092833 -0.0227997659629677	0.104131
H	0.8546529180367705 0.3345369861452229 -0.0210232075744691	0.119379
H	0.9371872576717523 0.2588601949115826 -0.0307555703814919	0.111935
H	0.0650386253037413 0.1183602564122750 -0.0316903106185246	0.112127
H	0.1393242817488231 0.0389278777261986 -0.0225038965281217	0.105482
H	0.2063839940884976 0.9607089069108224 -0.0237085637555939	0.086672
H	0.2844258048920958 0.8899865549723061 -0.0230087687923928	0.104012
H	0.3548817483165767 0.8343427139641207 -0.0214083758250712	0.120013
H	0.4379289640002972 0.7594455234427193 -0.0316692551507616	0.113291
H	0.4363129960345228 0.3831005315395040 0.4684475459235820	0.109767
H	0.3613337982796551 0.4617506055185537 0.4774689106723906	0.103922
H	0.2935418611108063 0.5386690902016138 0.4762396251194046	0.086309
H	0.2156956733304393 0.6097057269573171 0.4770744305835958	0.104503
H	0.1466125127410205 0.6673402996457248 0.4788550502122130	0.120566
H	0.0638884398308044 0.7426743862593211 0.4689192192184353	0.114312
H	0.9370472246584308 0.8836461324281176 0.4685308952349906	0.114148
H	0.8614495539374453 0.9615705095103406 0.4777199630540108	0.105476
H	0.7936230581865621 0.0386051557828530 0.4764340320277572	0.087144
H	0.7157653675224297 0.1096237333825029 0.4771165654869918	0.103182
H	0.6466813171586634 0.1673650916470615 0.4786983067370934	0.119148
H	0.5644690233488109 0.2434114182150908 0.4683634767236948	0.109218
H	0.5643429808244377 0.3820519504026426 0.4680779190675662	0.108314
H	0.6392047565279505 0.4613800453561022 0.4775110536608601	0.103586
H	0.7064952574948752 0.5388868207156132 0.4763731104818888	0.085905
H	0.7843764583084086 0.6098570671251398 0.4771341289164935	0.105526
H	0.8541461382202636 0.6665754457742552 0.4789686409951875	0.121359
H	0.9367616816766950 0.7415704381452493 0.4693479229405138	0.113245
H	0.0635110194061353 0.8827265254372191 0.4680413409777144	0.114359
H	0.1390136006704841 0.9612800535269277 0.4776563780665444	0.105297
H	0.2065348548934239 0.0387324503072523 0.4765518815922914	0.086561
H	0.2843816561827379 0.1097188614114277 0.4771877187297357	0.104535
H	0.3540778005906731 0.1665702405946564 0.4788962355301330	0.119084
H	0.4361354882567080 0.2422910407625364 0.4689254373990456	0.107557
H	0.4363148781164080 0.6169012173965169 -0.0312979099534944	0.111567
H	0.3611329241940606 0.5391025999330242 -0.0220754161694683	0.105534
H	0.2940409240460831 0.4605842471529504 -0.0233504654082712	0.086767
H	0.2159098554047792 0.3900069670354720 -0.0227602510128289	0.103523
H	0.1461552296737556 0.3338232439822438 -0.0212001418743253	0.118724
H	0.0635669011259034 0.2575791437137948 -0.0314498794695455	0.110098
H	0.9355789108756165 0.1174793556996274 -0.0310637790454525	0.111052
H	0.8610600849819341 0.0388783948606292 -0.0221558045831302	0.105441
H	0.7940013811239555 0.9605187939667065 -0.0235120437926522	0.086659
H	0.7158735932066158 0.8899381033078492 -0.0228699148426704	0.103301
H	0.6459783594639700 0.8338147095982157 -0.0213359312011013	0.119126
H	0.5629235753717424 0.7582507484521640 -0.0316738645679608	0.110949
H	0.4363672114373027 0.3831221165053206 0.0314706373966200	0.109341
H	0.3615258404807359 0.4618198384662263 0.0221566580073791	0.104412
H	0.2935672857473830 0.5388884212736857 0.0233339184986829	0.087285
H	0.2156399170098444 0.6098313042768223 0.0227181038753144	0.105073
H	0.1465530149240252 0.6673937319440535 0.0210574371153552	0.120804
H	0.0638360716759409 0.7427232349287531 0.0310855663792301	0.113985
H	0.9369968727421569 0.8836557424652711 0.0314515156311165	0.113825
H	0.8614578060154796 0.9616581539063226 0.0222878511861073	0.105480
H	0.7936691899262118 0.0386683305479671 0.0235832434477221	0.087164
H	0.7157540026031841 0.1095984337120585 0.0227982268167566	0.103265
H	0.6467690554918951 0.1672186025250060 0.0209888090630164	0.119129
H	0.5644529544105769 0.2431883793757232 0.0308264627425369	0.109377
H	0.5643940138454077 0.6176806022977469 0.5314613947827432	0.113224
H	0.6393576212179753 0.5391212761585958 0.5223418277381264	0.105476
H	0.7064198850831341 0.4609092511187305 0.5235902741898015	0.086203
H	0.7844097891179455 0.3901163146812561 0.5229668495904592	0.104192
H	0.8547281033270249 0.3343979110105810 0.5214072427918655	0.119798
H	0.9372019058274703 0.2587154738125580 0.5315448691799982	0.111579
H	0.0649519052400887 0.1183028163996841 0.5312343453938249	0.112750
H	0.1394047655001003 0.0390428489941579 0.5221210893732339	0.105119
H	0.2063438526650037 0.9606518250306078 0.5233535273631142	0.086366
H	0.2843313748268849 0.8899075548842088 0.5227573349747798	0.103672
H	0.3547261836051143 0.8346288705021845 0.5210053479163796	0.120296
H	0.4377174455520631 0.7595698972518737 0.5306489042965244	0.112923
Fe	0.5000347876978656 0.6884552565229913 0.7494028297971312	0.608666
Fe	0.0000525645125737 0.1884357994764338 0.7504127721759779	0.604294
Fe	0.4999853656994870 0.3115345915413034 0.2494075890815133	0.788348
Fe	-0.0000075778601054 0.8115756386757653 0.2499305180720348	0.614780
Fe	0.4983103029877720 0.6849008655177157 0.2504997965738337	1.499424
Fe	-0.0018359665187258 0.1852971247447620 0.2498505187786915	1.502561
Fe	0.4982491487548432 0.3130222974860764 0.7502176914372464	1.505271
Fe	-0.0017980723411860 0.8128780949809725 0.7500474056144016	1.336353
F	0.4990954340182122 0.6867756564573826 0.4700682028932255	-0.611792
F	-0.0005086264621666 0.1862638168033338 0.4689797012274484	-0.608865
F	0.4994775661059126 0.3118463059821094 0.9701724551289385	-0.616263
F	-0.0005086152784129 0.8129911078625317 0.9676998922244330	-0.572889
F	0.5004467492899580 0.6865063939297971 0.0315955794025788	-0.612567
F	-0.0003466972770528 0.1874688152781435 0.0302542646752258	-0.608361
F	0.4994840329832006 0.3135129890000918 0.5311190764107214	-0.616375
F	-0.0005242646093966 0.8128200357594224 0.5323800124956075	-0.572850
F	0.4745876763996465 0.7709696194404018 0.2501038941674689	-0.612322
F	0.5747516359391841 0.6604635556619434 0.2536676651549901	-0.608699
F	0.9727746037098279 0.2707487297829529 0.2513529497153173	-0.610651
F	0.0751032940824632 0.1629001551050076 0.2498396949106745	-0.608223
F	0.5749322286826909 0.2896498097367666 0.7499837581870612	-0.611354
F	0.4756946016386087 0.3994679240330090 0.7531825269248204	-0.601661
F	0.0744181728677152 0.7868539352084261 0.7502062348566804	-0.615015
F	0.9776638206359358 0.9002084878499022 0.7497338052370055	-0.584712
F	0.4426260680159873 0.6204983919290904 0.2496852048560370	-0.600002
F	0.9436248954190934 0.1196398858703028 0.2479522803127598	-0.598867
F	0.4413269556982147 0.2501553632862182 0.7485829022590003	-0.607197
F	0.9400542126540695 0.7511311012409816 0.7502646483930232	-0.608781
N	0.4402264608169866 0.6204221334628987 0.7497202744439132	-0.187791
N	0.5605663220992382 0.7557822605069665 0.7500634406528690	-0.194731
N	0.9396086467543560 0.1210927404749401 0.7499874991147161	-0.187153
N	0.0612095067719614 0.2550330783631300 0.7503572543290477	-0.193737
N	0.5604957331221309 0.3787525572029611 0.2500310167166598	-0.241859
N	0.4387399702786612 0.2449417491638956 0.2496287921621673	-0.250523
N	0.0597391789824284 0.8795973449475959 0.2498852598761360	-0.188855
N	0.9394244198457766 0.7441415708201381 0.2500340417160395	-0.195660
N	0.5599635161061353 0.6205547192334873 0.7500836432273179	-0.183593
N	0.4397961073193493 0.7561385162778850 0.7494132020768380	-0.192528
N	0.0606237533136806 0.1212600800329020 0.7497578767022697	-0.187265
N	0.9391461404536914 0.2554101394463190 0.7504672669200185	-0.195640
N	0.4397581628165172 0.3790699959878361 0.2499975946053267	-0.235583
N	0.5614607850474655 0.2452005165029166 0.2495200079375655	-0.242657
N	0.9404234109447794 0.8797768576866682 0.2499780748008905	-0.188719
N	0.0608493184232046 0.7444684325028978 0.2500086876950321	-0.196357
	  	
