#======================================================================

# CRYSTAL DATA

#----------------------------------------------------------------------

data_VESTA_phase_1


_pd_phase_name                         FeFFIVE_7_Fe
_cell_length_a                         18.92588
_cell_length_b                         18.95639
_cell_length_c                         8.05329
_cell_angle_alpha                      89.98571
_cell_angle_beta                       90.01038
_cell_angle_gamma                      89.57951
_symmetry_space_group_name_H-M         P 1
_symmetry_Int_Tables_number            1

loop_
_symmetry_equiv_pos_as_xyz
   x, y, z

loop_
   _atom_site_label
   _atom_site_fract_x
   _atom_site_fract_y
   _atom_site_fract_z
   _atom_site_charge
C	0.6673492885231638 0.8693411658235062 0.6979308887286060	0.093423
C	0.6154130360478661 0.9214485802589906 0.7019252934333511	-0.177587
C	0.5808627002907333 0.8868771269416351 0.4281422101889515	-0.171528
C	0.6331217237571410 0.8354149433685767 0.4332282054949576	0.096721
C	0.8327419997387110 0.6305085049066039 0.6978550541554863	0.101100
C	0.8845937434137212 0.5783929672060600 0.7023085350818453	-0.177764
C	0.9189943364506438 0.6131013704128583 0.4284395836081621	-0.171377
C	0.8667629778841950 0.6646680587981583 0.4331299896099485	0.089213
C	0.6305748373681447 0.6666730504985170 0.6977840140339228	0.096659
C	0.5785855102857367 0.6153893329156629 0.7019101143622929	-0.175878
C	0.6132185858519946 0.5809976239488611 0.4278896615203643	-0.172102
C	0.6645308556668218 0.6327042361531167 0.4328751616648939	0.096218
C	0.8694984787617935 0.8323991187331802 0.6978034190389998	0.098102
C	0.9212177224253016 0.8839514575749082 0.7018474985532743	-0.178434
C	0.8860671318026905 0.9185701163996060 0.4281078471186915	-0.174341
C	0.8345291297876839 0.8670503460850649 0.4336738211658717	0.095100
C	0.3341409623851472 0.3713226540497073 0.3024089796154710	0.095731
C	0.3858048157022593 0.4229366700067446 0.2980567090265228	-0.179771
C	0.4204902656320619 0.3880037297492943 0.5723578258437555	-0.173760
C	0.3688205669815723 0.3366289176171666 0.5669825001554784	0.093234
C	0.1649139644563791 0.1286510499168101 0.3018876585963005	0.094794
C	0.1135049868924707 0.0767978762022441 0.2977920932034181	-0.178230
C	0.0791879245322003 0.1112728639062058 0.5724423034395562	-0.173789
C	0.1310756558004294 0.1624166085230060 0.5673776247862714	0.092502
C	0.3690448334879254 0.1673855194783302 0.3015146187721102	0.091646
C	0.4212560596072480 0.1155753261152775 0.2978539009457494	-0.178253
C	0.3865356246366277 0.0812366440183630 0.5717844081256150	-0.173589
C	0.3350594238095638 0.1334830462872134 0.5665786015889932	0.095018
C	0.1309152506113941 0.3327158521281903 0.3022323874422606	0.098662
C	0.0786687986175489 0.3844413475983370 0.2977161244946422	-0.178530
C	0.1133458272644922 0.4188159561814447 0.5715946153540087	-0.172831
C	0.1649499401144292 0.3666213028472819 0.5671938043648050	0.087457
C	0.4318359210981043 0.0711118885968824 0.4353497477510935	0.137267
C	0.4869201538678582 0.0170841321839665 0.4322778868096202	-0.124910
C	0.0680643383373861 0.4289537113366182 0.4350453249235878	0.137097
C	0.0129550639972361 0.4829687532874706 0.4320660770645702	-0.125018
C	0.4301683759127276 0.4331277535616906 0.4357031735772068	0.140368
C	0.4838104716609596 0.4878119545751696 0.4322596496773223	-0.125234
C	0.0693234491555615 0.0664101265264283 0.4355702002925073	0.137241
C	0.0157019683923540 0.0117583228376080 0.4320396680695298	-0.122504
C	0.5681034447557428 0.5711358138235280 0.5644255811281965	0.136166
C	0.5134005378515397 0.5175643804980338 0.5676781637670303	-0.121425
C	0.9314144416295151 0.9283582568925322 0.5643869257683385	0.139369
C	0.9860837123828811 0.9820207158411254 0.5674374422252915	-0.124554
C	0.5708356324729199 0.9321157139417936 0.5645711136373480	0.137818
C	0.5168376483345303 0.9871796237152386 0.5677741732450141	-0.125865
C	0.9291463756259434 0.5678288930956910 0.5648984374408729	0.137834
C	0.9831590057568165 0.5127558436751101 0.5678084789848857	-0.124827
H	0.7020294639161300 0.8604215017090667 0.8041895981616586	0.099558
H	0.6102440185750105 0.9541166487067901 0.8126497867808541	0.115860
H	0.5470964420429291 0.8903971429076071 0.3189645655239496	0.113785
H	0.6421141894151899 0.7998182753908123 0.3293346496715406	0.091590
H	0.7976062910696780 0.6397503242807234 0.8027042171080540	0.090869
H	0.8898919866305887 0.5456779213782706 0.8128855542351683	0.114322
H	0.9526963067349220 0.6097659921558937 0.3190546830560624	0.115830
H	0.8582725060143067 0.6999204373510804 0.3278520092218613	0.099147
H	0.6399352124540536 0.7003511153880857 0.8047608119898483	0.097792
H	0.5460758776453425 0.6102744789670260 0.8128397543248774	0.114813
H	0.6097429298206514 0.5477118994511955 0.3180635831874501	0.115125
H	0.6989942021962660 0.6416341379113334 0.3270779736910325	0.097985
H	0.8614840789278934 0.7969890093436908 0.8026920627106091	0.095922
H	0.9541557072228157 0.8889785842667417 0.8121223167762661	0.114503
H	0.8893697489865859 0.9522748976621572 0.3188866586584734	0.115692
H	0.7981805071656004 0.8594979585337806 0.3302517798163929	0.094117
H	0.2985401641069608 0.3631876039358087 0.1976210780565187	0.102961
H	0.3909795316657985 0.4557813754353278 0.1877465685830903	0.117285
H	0.4542817444942359 0.3913363850403010 0.6814951535920495	0.116682
H	0.3610128692179471 0.3003424972688757 0.6704816862582104	0.102066
H	0.1987203104930108 0.1381938749054710 0.1949620684485355	0.105400
H	0.1082017820938936 0.0443452929160475 0.1869483175960719	0.117216
H	0.0457960147892223 0.1078055083538023 0.6822072243921607	0.117664
H	0.1402961912916905 0.1968450622568038 0.6732253250233471	0.104724
H	0.3600198124744437 0.2018280081050748 0.1949784982657588	0.106048
H	0.4540533742271314 0.1104474432366003 0.1872386792095811	0.117707
H	0.3900161101615094 0.0475791986780162 0.6810803665609818	0.115939
H	0.2994466291450850 0.1426144124646246 0.6704988800354515	0.098974
H	0.1403113194851854 0.2976761063918348 0.1973877971388225	0.098103
H	0.0459269164078877 0.3896570587125368 0.1871041901584912	0.116220
H	0.1099728788829891 0.4524774992741973 0.6809683819097527	0.117813
H	0.2001303158743217 0.3580102059337341 0.6726298750004537	0.106132
H	0.5061586172010626 0.0020432114633601 0.3089312890431399	0.101684
H	0.9936258182495327 0.4981994456507092 0.3089276820856897	0.101457
H	0.4987305466557374 0.5068003716525673 0.3088263797249292	0.102078
H	0.0008767884843858 0.9927642629086837 0.3086033730231574	0.100856
H	0.4942206873579946 0.5026421190950804 0.6909011783492924	0.100951
H	0.0052242267919520 0.9970036678831526 0.6906923264452647	0.102111
H	0.5018084772786947 0.0064087691644316 0.6910669210775785	0.102104
H	0.9983821653753676 0.4934393172296080 0.6909161578650307	0.101306
Fe	0.2497997481490624 0.2498527208606580 0.4339186938225163	0.623519
Fe	0.7498618748729845 0.7497597143084103 0.5659970525052824	0.883135
Fe	0.2511238058889029 0.2511673518640334 0.9344469053129857	1.483341
Fe	0.7511907242228145 0.7510538639636507 0.0656138175513293	1.512107
F	0.2508690865366972 0.2489051849117027 0.1751244863424492	-0.544873
F	0.2486205023295451 0.2504107786656270 0.6935553454320833	-0.544847
F	0.7511593716311668 0.7510857987602235 0.8204381490326348	-0.561109
F	0.7486769905983867 0.7483427570553233 0.3109845304985169	-0.560459
F	0.1809095774813334 0.1820631809524134 0.9352206080044837	-0.605390
F	0.2282980850003660 0.3472043145994815 0.9382710933184527	-0.603371
F	0.3469748690348433 0.2269225998318197 0.9296486080064652	-0.602993
F	0.7267662030378912 0.8461982255511068 0.0697894665786042	-0.586187
F	0.8468359799417728 0.7281626750775396 0.0645911597922353	-0.586158
F	0.6823017980832572 0.6814798010895111 0.0623763161878491	-0.588538
N	0.3260868013401152 0.1763729891875992 0.4339754450261803	-0.194837
N	0.1738283378952714 0.3236400086887747 0.4345333905530536	-0.194357
N	0.3258524880975386 0.3284224038873464 0.4345222559679391	-0.190891
N	0.1736415558634274 0.1711168025957104 0.4344467207202931	-0.196991
N	0.6734357163207412 0.6754675295763846 0.5655235835901300	-0.257364
N	0.8261507713221087 0.8239676799246922 0.5660790160671847	-0.251314
N	0.6762498037978850 0.8264416301012472 0.5655118949109066	-0.255151
N	0.8236853807097378 0.6734434161460535 0.5657341661439728	-0.254302
	  	
