#======================================================================

# CRYSTAL DATA

#----------------------------------------------------------------------

data_VESTA_phase_1


_pd_phase_name                         FeFFIVE_2_Ni_i
_cell_length_a                         13.85321
_cell_length_b                         13.85113
_cell_length_c                         8.10353
_cell_angle_alpha                      90.00005
_cell_angle_beta                       90.00033
_cell_angle_gamma                      89.89024
_symmetry_space_group_name_H-M         P 1
_symmetry_Int_Tables_number            1

loop_
_symmetry_equiv_pos_as_xyz
   x, y, z

loop_
   _atom_site_label
   _atom_site_fract_x
   _atom_site_fract_y
   _atom_site_fract_z
   _atom_site_charge
C	0.0002559985916052 0.3016506260618808 0.3513481338735218	-0.158303
C	0.0001808054847479 0.2015078107916665 0.3569304455894812	0.095300
C	0.5002517456578168 0.8018793949719853 0.8512528371417574	-0.158077
C	0.5001799631002126 0.7017807284173913 0.8568944342587137	0.095850
C	0.0000258822238288 0.6989390471451677 0.3512679777002007	-0.163968
C	-0.0002503063404819 0.7990724246757203 0.3570227104920047	0.105915
C	0.5000158180612905 0.1987490643885607 0.8511752363110040	-0.162901
C	0.4997362957230935 0.2988311493023227 0.8569946099562004	0.105953
C	0.6989420031964181 0.0000230161783520 0.3512305706580108	-0.163791
C	0.7990642978633646 -0.0002498700238570 0.3570386027995127	0.105826
C	0.1987677635126689 0.5000191802898808 0.8511495792749787	-0.163017
C	0.2988454107900854 0.4997388835419459 0.8569804814710602	0.105924
C	0.3016592348122248 0.0002606878311215 0.3513130316562568	-0.157879
C	0.2015253995760076 0.0001830685424925 0.3569438225086849	0.095264
C	0.8018553634145328 0.5002516224991771 0.8512266496594960	-0.158189
C	0.7017605496702325 0.5001828142140362 0.8568878081438730	0.095909
C	0.0002559904752846 0.3016508572964370 0.6486525881358451	-0.158243
C	0.0001807816319530 0.2015080515731509 0.6430706965858464	0.095272
C	0.5002516061591188 0.8018793491563447 0.1487468011307376	-0.158151
C	0.5001801955515373 0.7017813127839950 0.1431048051961762	0.095898
C	0.0000258361542713 0.6989392084753380 0.6487299831520384	-0.164017
C	-0.0002503416350947 0.7990726344612913 0.6429749818424060	0.105913
C	0.5000159420087615 0.1987490206471091 0.1488233829901634	-0.162909
C	0.4997361674927798 0.2988310012505850 0.1430059655423609	0.105955
C	0.3016599604595158 0.0002606447689533 0.6486870317771869	-0.157935
C	0.2015261238999108 0.0001830200586588 0.6430557167234706	0.095279
C	0.8018568205983880 0.5002513412919507 0.1487730963538765	-0.158059
C	0.7017620416404206 0.5001823938861465 0.1431124853981651	0.095749
C	0.6989426806046847 0.0000229853865616 0.6487689340833143	-0.163845
C	0.7990649341685531 -0.0002498607101368 0.6429617001922364	0.105788
C	0.1987686146404972 0.5000191944052689 0.1488504873495889	-0.163036
C	0.2988463471059781 0.4997387600995842 0.1430200844611600	0.105954
C	0.0003742507424949 0.4562482313382237 0.5000000014516350	-0.088974
C	0.0003959136999201 0.3540752681816193 0.5000001105107551	0.157861
C	0.5003663595891067 0.9562654358348406 0.0000010925248232	-0.089765
C	0.5003850158780647 0.8541888124092376 -0.0000000295790621	0.158811
C	0.0004389723462652 0.5443256530507569 0.4999993272581683	-0.100631
C	0.0003474433405432 0.6464646031611817 0.4999991442084455	0.163333
C	0.5004376306703732 0.0443302868472828 0.0000003970039568	-0.100183
C	0.5003358646172043 0.1463857333433662 0.0000001185444859	0.163354
C	0.5443337868391082 0.0004405290631573 0.4999992619648888	-0.100815
C	0.6464679329086807 0.0003446016405915 0.4999995056691139	0.163249
C	0.0443325978396304 0.5004434142288648 -0.0000002724183034	-0.100100
C	0.1463989337983760 0.5003419946574128 0.0000000819139850	0.163038
C	0.4562521034357070 0.0003787552241714 0.5000003430793154	-0.088973
C	0.3540859769545848 0.0004030977563355 0.5000001033552643	0.157467
C	0.9562619196269012 0.5003679191257729 -0.0000005002184629	-0.089684
C	0.8541707923108249 0.5003828592719878 -0.0000003378768024	0.158604
H	-0.0001970545870689 0.3386711542194865 0.2329404670943710	0.117783
H	-0.0012400695955000 0.1594692921243577 0.2435505095776960	0.100101
H	0.4998078139267590 0.8389912945408200 0.7329835187464140	0.118285
H	0.4987941624198608 0.6596771894405049 0.7435836840604023	0.100465
H	-0.0003776958445453 0.6615729213521883 0.2331482107395926	0.119037
H	-0.0017926553393133 0.8420546643276128 0.2447127928843795	0.093843
H	0.4996296637045133 0.1612745035136273 0.7332013488180397	0.119215
H	0.4982154052079233 0.3418561267218545 0.7447110074534697	0.093752
H	0.6615588738455723 -0.0003770418614436 0.2331332828691164	0.119002
H	0.8420591279181353 -0.0017870176620993 0.2446805019641625	0.093776
H	0.1612823560000405 0.4996320411089308 0.7331559936666974	0.119374
H	0.3418703424667225 0.4982131929280104 0.7446971863585949	0.093836
H	0.3387008471194639 -0.0001949966439805 0.2329239709409361	0.117681
H	0.1594745387000114 -0.0012349313271490 0.2435212907814836	0.100044
H	0.8389804555165865 0.4998044728031684 0.7329397755124508	0.118350
H	0.6596606022113344 0.4987953364345170 0.7435686299349739	0.100386
H	-0.0001970619735558 0.3386718109632071 0.7670600240903743	0.117790
H	-0.0012400519915313 0.1594699052634770 0.7564513502516921	0.100106
H	0.4998076371793340 0.8389912011028602 0.2670157511846492	0.118319
H	0.4987943279676991 0.6596771406770698 0.2564151468290916	0.100478
H	-0.0003777178939964 0.6615735569345935 0.7668499724774211	0.119071
H	-0.0017925753059133 0.8420553752052395 0.7552838489701904	0.093874
H	0.4996295777148311 0.1612744954139985 0.2667991108424821	0.119182
H	0.4982146326238424 0.3418564052027035 0.2552891000364779	0.093763
H	0.3387018191213569 -0.0001950195640950 0.7670765994070664	0.117701
H	0.1594752108884079 -0.0012348394074512 0.7564772987270757	0.100065
H	0.8389826894776594 0.4998042127543075 0.2670595984641013	0.118324
H	0.6596624242095518 0.4987950590805170 0.2564316924963468	0.100392
H	0.6615596061746855 -0.0003770883722027 0.7668655947235034	0.119036
H	0.8420598268832159 -0.0017869949200491 0.7553205656919314	0.093808
H	0.1612837997112669 0.4996320790152763 0.2668438510138050	0.119365
H	0.3418717876895585 0.4982124224866179 0.2553039623424156	0.093795
Ni	0.0005831999046348 0.0005806674491042 0.5000003658696708	0.768729
Ni	0.5005788627719302 0.5005817420143870 0.0000005572129756	0.768952
Fe	-0.0005356154096338 -0.0005420723376755 0.0000004565806753	1.498933
Fe	0.4994985667862184 0.4994929056349389 0.5000005771955230	1.501219
N	0.0002421216883368 0.1517728675003925 0.5000008266078114	-0.230284
N	0.5002416152342066 0.6521267295170576 -0.0000004322749599	-0.231899
N	-0.0000333147720060 0.8488758705689348 0.4999986407679200	-0.230273
N	0.4999499846321402 0.3485573457357306 -0.0000001501539101	-0.230943
N	0.8488187363153240 -0.0000350102181113 0.5000003669717029	-0.230139
N	0.3485651011109869 0.4999521266897470 0.0000003846957454	-0.230846
N	0.1518504730142482 0.0002419985687070 0.4999994866854499	-0.230407
N	0.6521145700619969 0.5002464512783511 0.0000002542443930	-0.231609
F	0.0004453897516283 0.0004317534047729 0.7544640111453855	-0.571527
F	0.5006263037773164 0.5006338162400820 0.2551237308289740	-0.571238
F	0.0004444989902763 0.0004289988908650 0.2455379381882292	-0.571509
F	0.5006124401835884 0.5006270576312539 0.7448776849838125	-0.571239
F	0.6282092742831530 0.4629214694561082 0.5000115772534536	-0.567026
F	0.4629706519258441 0.6282374410133368 0.5000052821788662	-0.567027
F	0.4051202818111466 0.4051599006896463 0.4999843553084581	-0.578787
F	0.9051591624058181 0.9052022778795299 0.0000001949859082	-0.577612
F	0.9629311185469366 0.1280321600330761 0.0000019246037850	-0.565760
F	0.1280185069470198 0.9629087827094126 0.0000023823672140	-0.565725
	  	
