#======================================================================

# CRYSTAL DATA

#----------------------------------------------------------------------

data_VESTA_phase_1


_pd_phase_name                         FeFFIVE_3_Co
_cell_length_a                         13.87336
_cell_length_b                         13.86666
_cell_length_c                         8.05383
_cell_angle_alpha                      90.01199
_cell_angle_beta                       90.08923
_cell_angle_gamma                      90.47614
_symmetry_space_group_name_H-M         P 1
_symmetry_Int_Tables_number            1

loop_
_symmetry_equiv_pos_as_xyz
   x, y, z

loop_
   _atom_site_label
   _atom_site_fract_x
   _atom_site_fract_y
   _atom_site_fract_z
   _atom_site_charge
C	0.2667541950375388 0.4468865355831844 0.6388100200657724	0.053537
C	0.2304442330689780 0.0556872617381429 0.6401209424561730	0.057234
C	0.2328677795701205 0.4468521109631972 0.3583087819962636	0.046777
C	0.2681390365338856 0.0554841280996512 0.3612541495186787	0.056652
C	0.0491858924952149 0.2669356288381149 0.3628821679976825	0.058171
C	0.4532386863079260 0.2326222570362878 0.3580456441017887	0.047911
C	0.4530436209801990 0.2663581764089695 0.6373349829996819	0.053320
C	0.0492669852844525 0.2318875338523018 0.6413663582843556	0.057500
C	0.9486162922697170 0.2329096619643755 0.6419442624644606	0.045148
C	0.5535503120031949 0.2669192592752557 0.6378932031275272	0.056586
C	0.5539128240279150 0.2316490657856272 0.3591286049058203	0.054107
C	0.9486970542583522 0.2668470176455056 0.3624235531022744	0.049772
C	0.7311671689357040 0.0584365012131458 0.3598152037615930	0.052662
C	0.7673156160475847 0.4440977954727537 0.3614286909864309	0.048791
C	0.7686534867727359 0.0582839653665801 0.6389324890165757	0.053087
C	0.7317318272436031 0.4440044889543333 0.6412693415831130	0.043164
C	0.4505395875144823 0.7315136645414170 0.6409264205388072	0.055339
C	0.0518697760361998 0.7685294478994594 0.6393723900245030	0.064925
C	0.0518224335467050 0.7307589657886174 0.3602940448341883	0.063310
C	0.4503935624571985 0.7672223432669539 0.3608468856906905	0.061316
C	0.2318615179182688 0.5472224142701144 0.3595728414839158	0.064970
C	0.2673674802879607 0.9553881170793384 0.3613942346704229	0.063005
C	0.2669078243809387 0.5470824730193837 0.6384834482627738	0.065536
C	0.2319016384047343 0.9554396714104886 0.6406280426002674	0.055266
C	0.7684662681336438 0.9579837199067003 0.6381838357896240	0.063893
C	0.7302984647516774 0.5444274719078793 0.6397031728570447	0.067108
C	0.7329882995190942 0.9580211280199413 0.3593805357265546	0.057356
C	0.7664325431917074 0.5443794319519136 0.3617235321970413	0.068538
C	0.5503504746527791 0.7667787182012964 0.3608072543234783	0.067043
C	0.9517664414889287 0.7326432198957010 0.3592275199200326	0.055702
C	0.9519191195005715 0.7690653107722842 0.6388093073610146	0.061919
C	0.5506351230180080 0.7296993558630502 0.6397729374618546	0.064557
H	0.2773047405359268 0.4070342016162882 0.7533474683074830	0.117289
H	0.2143015577264664 0.0953747577741376 0.7532803434969347	0.116473
H	0.2201373759069440 0.4077223727875225 0.2428597642020381	0.120808
H	0.2814802248907813 0.0959254080441033 0.2480267900118061	0.113061
H	0.0891705253169679 0.2795173332900728 0.2486285237522055	0.114763
H	0.4145280099829320 0.2201022317568575 0.2416712999626501	0.121776
H	0.4135112764457226 0.2762630720058609 0.7527040537807123	0.119143
H	0.0885628797199165 0.2160630228377123 0.7555223058992120	0.117779
H	0.9097493756893289 0.2204522245783951 0.7579707081190683	0.121798
H	0.5936081038036287 0.2797436244051417 0.7520494413744711	0.114136
H	0.5934174643451896 0.2159278989928533 0.2453763350650796	0.117686
H	0.9091551700320154 0.2767645436308098 0.2470377214100333	0.119326
H	0.7145512859579982 0.0982095124072764 0.2468991174422019	0.116386
H	0.7783358808763919 0.4041580344102961 0.2470940842718858	0.118052
H	0.7821563850235587 0.0988948818955852 0.7520618266045986	0.113963
H	0.7190689448041904 0.4048047566324535 0.7566183792047114	0.120319
H	0.4108897295836872 0.7187879038293455 0.7558371289864120	0.115248
H	0.0927625440793101 0.7821109779133107 0.7524764516536201	0.105753
H	0.0919632961086029 0.7141888957877480 0.2476868422642060	0.110437
H	0.4100710952064515 0.7784330756700631 0.2466184195042591	0.110596
H	0.2159935013381008 0.5870374711691529 0.2460643007581326	0.110894
H	0.2775382001089350 0.9156251356953565 0.2462425178744063	0.112791
H	0.2801310324171455 0.5873178492211812 0.7523922291928211	0.107960
H	0.2193232583630818 0.9161518063183486 0.7563019530163484	0.116514
H	0.7794173255122563 0.9179711544248741 0.7529195338320074	0.112874
H	0.7142717241663111 0.5842301580781164 0.7531555142983181	0.111685
H	0.7200157094192532 0.9185816403043144 0.2439123766882377	0.117684
H	0.7793595013605724 0.5846847001445605 0.2477913893942401	0.108451
H	0.5910234872767989 0.7802543123440594 0.2477200482985833	0.106140
H	0.9120056892290738 0.7195479850090095 0.2443705683180794	0.115749
H	0.9116021937810318 0.7806002795210594 0.7526909074190102	0.111682
H	0.5908351170755750 0.7132168824308938 0.7524538354825193	0.110132
Co	0.2508497086886986 0.2503267079496239 0.4988308563393715	0.606802
Co	0.7509371240462585 0.2509691000360880 0.5011802754903382	0.571737
Co	0.2510285024700499 0.7521845779174395 0.5013818812253155	0.840792
Co	0.7510629158558392 0.7509843818084623 0.4987600394543096	0.840525
Fe	0.2489961595162157 0.2489636824386267 0.9978056266538013	1.459070
Fe	0.7488139572393540 0.2489197968197139 0.0023263281139336	1.459020
Fe	0.2489919377037348 0.7489753721719895 0.0020566877720961	1.494740
Fe	0.7488114677089469 0.7488969090588201 0.9979134350950087	1.498897
F	0.2535497703599068 0.2527202522913595 0.7534155540734954	-0.561955
F	0.2486256087255976 0.2493970274136952 0.2425702733314809	-0.564732
F	0.1543562128117578 0.1547476537806825 0.9860312373080411	-0.567983
F	0.2123294881357351 0.3771275586013014 0.9993571861425096	-0.568240
F	0.3771973492223825 0.2123863971465656 0.0009038220949269	-0.569436
F	0.7486244894923224 0.2490881655352357 0.7612803328669747	-0.561710
F	0.7534376740769638 0.2526402602519827 0.2431027075431198	-0.559266
F	0.6536455600752856 0.1544219961259941 0.0139475427893381	-0.570336
F	0.7119979266017529 0.3776331996853466 0.0004192422269235	-0.572004
F	0.8775401261180689 0.2118568876970962 -0.0004991368577944	-0.572973
F	0.2498012687268793 0.7490137674199755 0.7550669316102873	-0.582806
F	0.2519165001413646 0.7526655063982899 0.2488127212074904	-0.580253
F	0.1548445000102363 0.6547024837554208 0.0112842848423387	-0.560444
F	0.2132384684888624 0.8771835958798083 -0.0003221242465592	-0.563143
F	0.3767598915566560 0.7120388706535594 0.0007871521477850	-0.561563
F	0.7528405017041452 0.7535830331040348 0.7505389517018164	-0.581650
F	0.7496682701203371 0.7492611067770358 0.2455331310198541	-0.583806
F	0.6548165753115616 0.6547381841631296 0.9879616629825703	-0.561141
F	0.7123782922183759 0.8767176029838046 0.0004138792421318	-0.565157
F	0.8761877035039088 0.7114720497783017 0.9995521688823578	-0.563427
N	0.4021678494162340 0.2501248958565063 0.4970093590073916	-0.155027
N	0.1002335644935257 0.2496467545740979 0.5021661424723919	-0.155100
N	0.2504447236619531 0.3965203084382368 0.4981892995268838	-0.153064
N	0.2496105195206639 0.1061194427406447 0.5005356367445472	-0.149321
N	0.8977087772066060 0.2506044342770068 0.5024059814909581	-0.143909
N	0.6047873369300399 0.2497305562539930 0.4988457323458818	-0.144776
N	0.7504438182407336 0.3936578507154019 0.5017628088434103	-0.141537
N	0.7500746446365891 0.1087957693485978 0.4995822500362810	-0.141221
N	0.4005991305453828 0.7503129503162805 0.5013161335609169	-0.215048
N	0.1017952199295957 0.7496578132794564 0.5001582128804282	-0.211933
N	0.2502172153075843 0.9047769786153882 0.5013358686276125	-0.216828
N	0.2496419619935323 0.5977369334689191 0.4992514734504986	-0.213578
N	0.9020115720218510 0.7519577528335050 0.4984515807292415	-0.214091
N	0.6004024430514999 0.7481154573129359 0.4999936107488885	-0.213635
N	0.7516925128634515 0.9075900921791107 0.4982623640857614	-0.216053
N	0.7481729808254916 0.5949212772278653 0.5004340423990378	-0.215986
	  	
