#======================================================================

# CRYSTAL DATA

#----------------------------------------------------------------------

data_VESTA_phase_1


_pd_phase_name                         FeFFIVE_4_Ni_i
_cell_length_a                         23.47198
_cell_length_b                         20.63964
_cell_length_c                         9.41820
_cell_angle_alpha                      89.99917
_cell_angle_beta                       90.00137
_cell_angle_gamma                      90.00347
_symmetry_space_group_name_H-M         P 1
_symmetry_Int_Tables_number            1

loop_
_symmetry_equiv_pos_as_xyz
   x, y, z

loop_
   _atom_site_label
   _atom_site_fract_x
   _atom_site_fract_y
   _atom_site_fract_z
   _atom_site_charge
C	0.4167703910606357 0.5970258269874821 0.6283293513882201	0.104092
C	0.3734415874849876 0.5512847970171371 0.6262235575573267	-0.170996
C	0.2775818639772109 0.4486445025377434 0.6255144628756547	-0.118533
C	0.2315716018402507 0.4063886812086034 0.6243635375777048	-0.114574
C	0.1308265803970335 0.3196604465452573 0.6229545948284991	-0.168543
C	0.0844746292943697 0.2779563144743715 0.6266098341414291	0.098389
C	0.9168231948579915 0.0969808450565751 0.6283264470720855	0.104565
C	0.8734862515155586 0.0512477580577523 0.6261671993449124	-0.171313
C	0.7775905762322104 0.9486684481064483 0.6255259381925036	-0.118361
C	0.7315907954801313 0.9063864794855317 0.6244245253503222	-0.114338
C	0.6308076136525465 0.8197325308600968 0.6229525287573385	-0.168472
C	0.5844480852923718 0.7780195942905543 0.6265425618802286	0.098392
C	0.5833274941973159 0.4027435823202833 0.1285265517831016	0.103593
C	0.6266272419745046 0.4485301448916500 0.1261623884661663	-0.175025
C	0.7227127304610885 0.5508725791223836 0.1254796398945370	-0.116725
C	0.7685467543828328 0.5933431321159480 0.1243617697949997	-0.113121
C	0.8690158807599021 0.6804105479726276 0.1229813878043251	-0.168041
C	0.9154101145168392 0.7220798840889529 0.1265000838721779	0.097616
C	0.0832794750047483 0.9028162295533063 0.1285142358312161	0.103120
C	0.1265847053526339 0.9485955015463517 0.1261557003760276	-0.175044
C	0.2227051180992460 0.0508761938896104 0.1254828897144256	-0.116869
C	0.2685319146641283 0.0933443067168516 0.1243559708047221	-0.112970
C	0.3690383179894796 0.1803647280958469 0.1229871717067084	-0.167827
C	0.4154472888705336 0.2220182789407488 0.1265130767672793	0.097078
C	0.5835331073368532 0.5973309932577040 0.8715242873732315	0.104113
C	0.6267026243760410 0.5513725993685338 0.8737769023579555	-0.173969
C	0.7226139314907746 0.4486812591968879 0.8745049178395404	-0.117142
C	0.7685707909004552 0.4063814826290142 0.8756392373287393	-0.112662
C	0.8696249165479514 0.3202121261648518 0.8770252460631889	-0.168512
C	0.9160746246785552 0.2786441719271961 0.8734439961660972	0.096579
C	0.0835343765446820 0.0973393169384501 0.8715946903257726	0.104118
C	0.1267023001451885 0.0513716002727096 0.8738544107815798	-0.173923
C	0.2225825055805349 0.9486786733124751 0.8744983925670746	-0.117433
C	0.2685486932815186 0.9063709031675365 0.8755951920877029	-0.112484
C	0.3696638596273804 0.8202703841667288 0.8770237355332455	-0.168588
C	0.4161137856687199 0.7786731058950742 0.8734541078578915	0.097019
C	0.4171272950268442 0.4033260631552887 0.3716320545064615	0.101453
C	0.3736863244199544 0.4489169090123403 0.3737937187929176	-0.170889
C	0.2773243231907359 0.5508339294638301 0.3744991040009074	-0.117569
C	0.2314876099421811 0.5933253439702940 0.3756102513201581	-0.114443
C	0.1313595458528976 0.6809653528662549 0.3770243743326523	-0.169359
C	0.0849510824340047 0.7226125436671579 0.3735066745741916	0.096761
C	0.9171400883570184 0.9033478739769829 0.3716058779499753	0.101871
C	0.8736991910104419 0.9489319495630780 0.3737920427645249	-0.171240
C	0.7773580983295185 0.0508609968345778 0.3745036852427707	-0.118070
C	0.7315301632004071 0.0933575563131031 0.3756194077062185	-0.114401
C	0.6313866879528565 0.1809643111960960 0.3770291460941342	-0.169433
C	0.5849597661029791 0.2225829284337602 0.3735117897924214	0.096874
C	0.5833453658431836 0.4027619996755802 0.3715514597500633	0.102752
C	0.6266423796301523 0.4485444148603157 0.3738426614000981	-0.174331
C	0.7227139719806455 0.5508697914567007 0.3744816096043037	-0.116567
C	0.7685457578725328 0.5933415661048791 0.3756101575809923	-0.112855
C	0.8690052923451730 0.6803973559205087 0.3770385124086760	-0.167638
C	0.9153981481471279 0.7220661767897806 0.3735678360920910	0.097457
C	0.0832933583764409 0.9028301678612122 0.3715337872567931	0.102757
C	0.1265973169392866 0.9486075459529637 0.3738498036672748	-0.174907
C	0.2227043392880322 0.0508762857649071 0.3744984069703952	-0.116651
C	0.2685303717546643 0.0933450249625762 0.3756297913755490	-0.112925
C	0.3690213268783386 0.1803503363411792 0.3770413672587101	-0.167727
C	0.4154285169928558 0.2219975525471315 0.3735781630543792	0.097158
C	0.4167961881655598 0.5970482882434388 0.8715896231647395	0.104043
C	0.3734636130730832 0.5512989612612058 0.8737723162516597	-0.170631
C	0.2775818223020876 0.4486414177423839 0.8745071696991762	-0.118532
C	0.2315707982747645 0.4063864331560050 0.8756431083295171	-0.114581
C	0.1308191482272246 0.3196532602603527 0.8770297226343076	-0.168606
C	0.0844665935153617 0.2779448197817641 0.8733524008105291	0.098097
C	0.9168320105989030 0.0969902319533044 0.8716457972145057	0.104131
C	0.8734940166523186 0.0512537667219311 0.8738300549133460	-0.171006
C	0.7775911184752120 0.9486654950299312 0.8744839440823592	-0.118635
C	0.7315900919983157 0.9063837809667845 0.8755797461143323	-0.114070
C	0.6307825955289967 0.8197151883609173 0.8769868438684284	-0.168922
C	0.5844234054651430 0.7779951214356179 0.8733250466971036	0.098494
C	0.4171448680586208 0.4033046295831637 0.1284527134689674	0.101690
C	0.3737014218516567 0.4489012758787332 0.1262223734828477	-0.171220
C	0.2773245894176475 0.5508377744030413 0.1254779123505598	-0.117853
C	0.2314868081388183 0.5933281799141478 0.1243685361263763	-0.114362
C	0.1313474088522925 0.6809783114471063 0.1229941831260321	-0.169234
C	0.0849356772336023 0.7226266313456476 0.1265536065581047	0.096496
C	0.9171526100832880 0.9033359868206654 0.1284430191161041	0.101864
C	0.8737084918429462 0.9489209415280961 0.1262162140396587	-0.171368
C	0.7773564505946632 0.0508622778238247 0.1254755836950782	-0.118281
C	0.7315270686996064 0.0933578731852872 0.1243571425386079	-0.114527
C	0.6313689603531049 0.1809814114886853 0.1230001374199624	-0.169311
C	0.5849404338267595 0.2226050133138721 0.1265799516975736	0.096653
C	0.5835593637773605 0.5973100616517184 0.6283543757636866	0.103660
C	0.6267259065959897 0.5513569720207767 0.6261850634707619	-0.173836
C	0.7226131692427434 0.4486869971906277 0.6254967090311074	-0.116959
C	0.7685693402432017 0.4063854294739007 0.6243518274938096	-0.112834
C	0.8696149351273953 0.3202235832937309 0.6229195512312194	-0.168510
C	0.9160648143036499 0.2786576379335143 0.6264658374473245	0.096641
C	0.0835433526606838 0.0973294432812175 0.6283967355033863	0.103997
C	0.1267095775096940 0.0513654656448316 0.6261535553783986	-0.174017
C	0.2225849959503337 0.9486826430588835 0.6255143811486952	-0.117578
C	0.2685486667466702 0.9063744753526505 0.6244256357145862	-0.112251
C	0.3696421642996455 0.8202985231099392 0.6229432460571160	-0.168327
C	0.4160905233651600 0.7787061003781153 0.6264372586974910	0.096096
C	0.3492458703707680 0.5243818383525383 0.7500131511658130	0.112219
C	0.3023091882035056 0.4743452117894154 0.7500146469008195	0.067546
C	0.2059373001825476 0.3847433412671480 0.7500040086943468	0.065797
C	0.1559011404384934 0.3414102589720230 0.7499989029527946	0.103097
C	0.8492845749128833 0.0243705947058801 0.7500061487285911	0.111806
C	0.8023303516272841 0.9743818161025881 0.7500051692935086	0.067816
C	0.7059239474868474 0.8847066611483509 0.7500022781122367	0.065876
C	0.6558729370943570 0.8414421299640277 0.7499871864058421	0.103213
C	0.6509482585819300 0.4753845132541148 0.2499886544313028	0.113646
C	0.6979750907490119 0.5252263182219451 0.2499807002699242	0.067895
C	0.7940610472517451 0.6151911582817320 0.2499861410497740	0.068664
C	0.8439834741499833 0.6586551092990806 0.2499979596046793	0.100248
C	0.1509178874270118 0.9754159800253477 0.2499918749868427	0.113509
C	0.1979611795322868 0.0252350671697106 0.2499898423619049	0.067289
C	0.2940421576514287 0.1151842501158589 0.2499900554455914	0.069309
C	0.3439863313673335 0.1586294493294420 0.2500035020015752	0.099568
C	0.6509043217552940 0.5243790701533362 0.7499937771538383	0.110109
C	0.6978652757561146 0.4743502630906718 0.7500062250826304	0.063227
C	0.7941928722773000 0.3847520488505543 0.7499941311033209	0.068118
C	0.8443809670872447 0.3416668228255150 0.7499811004828743	0.102163
C	0.1508801017938900 0.0243801777787027 0.7500108205772075	0.109773
C	0.1978306332621460 0.9743696020257355 0.7500073413014343	0.063365
C	0.2942194235895187 0.8847340725797691 0.7500095663138083	0.067602
C	0.3444212884556097 0.8417151652267935 0.7500029570331505	0.102766
C	0.3492614540306269 0.4755615948356889 0.2499970462492380	0.115546
C	0.3021244047066057 0.5252609711175950 0.2499866913419584	0.070688
C	0.2060386717330594 0.6152997302450065 0.2499897298918885	0.065221
C	0.1562661665375349 0.6590078599442639 0.2499974602160842	0.101857
C	0.8492789885177782 0.9755729430981549 0.2499965241853573	0.115654
C	0.8021483386265551 0.0252744675424269 0.2499889640347745	0.070703
C	0.7060851881993303 0.1153270478770333 0.2499919691563144	0.065444
C	0.6563009329803775 0.1590189393314313 0.2499975132644139	0.102385
H	0.4345830707988174 0.6162565601317532 0.5296617258711764	0.107639
H	0.3603772303983349 0.5387642626317198 0.5206009626171791	0.105600
H	0.2934229199576164 0.4604276220062254 0.5217238321918783	0.087752
H	0.2158915808312270 0.3905881747390074 0.5212127172117242	0.103584
H	0.1470186292621176 0.3343212644704938 0.5195801030459372	0.117484
H	0.0643814472252181 0.2592332492846714 0.5301819243396402	0.107087
H	0.9346899044686248 0.1161835064771542 0.5296720443428834	0.107501
H	0.8604166896677095 0.0387408732294740 0.5204896830841276	0.105844
H	0.7934261019988208 0.9604189812472229 0.5217268348367402	0.087587
H	0.7158827006678480 0.8905967408504215 0.5212720069032603	0.103228
H	0.6469987900215795 0.8344067651328666 0.5195738879228292	0.117593
H	0.5642993795800219 0.7593567650997769 0.5300558901649934	0.106910
H	0.5652262365392083 0.3830968604332355 0.0306400826102205	0.107650
H	0.6397450504361080 0.4613402021712864 0.0207128892186215	0.103478
H	0.7070921627700475 0.5388736028635120 0.0216510016877564	0.086985
H	0.7842942700337039 0.6091640726338595 0.0212450688305637	0.104107
H	0.8530074890354816 0.6658925048896001 0.0193277938840405	0.119046
H	0.9352460591585470 0.7404121835603452 0.0292535493712801	0.107617
H	0.0651410510460266 0.8832000335414139 0.0306619662109399	0.108064
H	0.1397038034758938 0.9614156402006938 0.0207093719109774	0.103400
H	0.2070959288643071 0.0388649763358466 0.0216398382393663	0.086904
H	0.2842939281322486 0.1091744713858640 0.0212790201328771	0.104296
H	0.3530345429639485 0.1658201991927824 0.0193473152949244	0.118888
H	0.4353111931660765 0.2403013578535045 0.0292673921741380	0.107955
H	0.5659395909138939 0.6171488955577813 -0.0301205101406928	0.108902
H	0.6398655615072580 0.5388188200149352 -0.0206981338065592	0.104812
H	0.7069928566906324 0.4606571006809099 -0.0216361450882223	0.086735
H	0.7843015054865788 0.3906114518040231 -0.0212283507555761	0.104464
H	0.8537196805786550 0.3350654331968537 -0.0194520458535853	0.118760
H	0.9363657666516967 0.2606530081568039 -0.0296627558476785	0.108087
H	0.0659233653430871 0.1171763550165837 -0.0300697428358171	0.108894
H	0.1399059553809666 0.0388372416540602 -0.0205883389980642	0.105119
H	0.2069557025945034 0.9606218865249587 -0.0216375960045921	0.086937
H	0.2842970923588287 0.8906135764250406 -0.0212579339879181	0.104244
H	0.3537366302396550 0.8351375306105636 -0.0194564784347275	0.118502
H	0.4364269040081516 0.7606881460175705 -0.0295923586824127	0.108069
H	0.4354532152800140 0.3843510515876674 0.4699229262575414	0.108343
H	0.3608139780270795 0.4618571274968435 0.4793285149212480	0.103842
H	0.2929745194211844 0.5388158532941921 0.4783261931847812	0.087080
H	0.2157441833820241 0.6090843716476394 0.4787716757485747	0.103271
H	0.1476586258516929 0.6667066425577064 0.4805608857122185	0.118888
H	0.0652483136351501 0.7414441856540623 0.4704329217640887	0.107663
H	0.9354712247854344 0.8843527503033224 0.4698563814831077	0.108144
H	0.8608220330999498 0.9618657379830670 0.4793294623343732	0.103968
H	0.7930068733798133 0.0388407721991900 0.4783422888046060	0.087129
H	0.7157806445746023 0.1091318047395027 0.4787407153711676	0.103355
H	0.6477062507543327 0.1667001632040783 0.4805376982107497	0.118770
H	0.5652447270494880 0.2414216471019996 0.4704112084041079	0.107601
H	0.5652496904272327 0.3831209864745757 0.4694432115446297	0.107983
H	0.6397708767181651 0.4613643877501022 0.4792779134192617	0.103272
H	0.7070955374682509 0.5388717144331124 0.4783117423091835	0.086941
H	0.7842934472074671 0.6091610777897811 0.4787267598376200	0.104011
H	0.8529948959745070 0.6658780571656573 0.4806823130529516	0.118851
H	0.9352313461996952 0.7403937711407702 0.4708158353887058	0.107590
H	0.0651588123630115 0.8832180439620780 0.4693895368325706	0.108204
H	0.1397223726612891 0.9614327387812609 0.4792843865711711	0.103330
H	0.2070936125226511 0.0388652681747035 0.4783432331158298	0.086838
H	0.2842900043293140 0.1091742424341767 0.4787056612190932	0.104232
H	0.3530171889264702 0.1657978325776218 0.4806695867695555	0.118928
H	0.4352929459114598 0.2402747096619073 0.4708258369754484	0.107947
H	0.4346175946484109 0.6162787236585459 -0.0297465054556219	0.107314
H	0.3604078230295945 0.5387796319386295 -0.0205958942028857	0.105365
H	0.2934247476827763 0.4604222771692462 -0.0217042840050575	0.087610
H	0.2158899284127152 0.3905866520338372 -0.0212069550843067	0.103582
H	0.1470122585758566 0.3343178216951955 -0.0195941578954304	0.117463
H	0.0643757006203912 0.2592261436768276 -0.0302075345542737	0.107177
H	0.9347027543664020 0.1161961598329368 -0.0297023852769555	0.107598
H	0.8604259462758509 0.0387473872389244 -0.0204870337929100	0.105804
H	0.7934279421814799 0.9604146503990717 -0.0217177488182610	0.087617
H	0.7158810386172817 0.8905934187510230 -0.0212681022973972	0.103185
H	0.6469680675041058 0.8343857917245376 -0.0196198866884343	0.117657
H	0.5642716307958606 0.7593354583722937 -0.0301793546469260	0.107120
H	0.4354721359503569 0.3843241508947730 0.0301679312319556	0.108116
H	0.3608355964434947 0.4618374142677011 0.0206759335702153	0.103960
H	0.2929781655666575 0.5388244344326489 0.0216530449604676	0.087184
H	0.2157403798355977 0.6090881488814208 0.0212088014301181	0.103227
H	0.1476413591195863 0.6667228437188997 0.0194461236128437	0.118921
H	0.0652267187740444 0.7414580485204367 0.0296310690964554	0.107790
H	0.9354835018959121 0.8843395800700813 0.0301924650495937	0.108094
H	0.8608378947108963 0.9618547001881440 0.0206711160694530	0.103961
H	0.7930040529101015 0.0388432670579322 0.0216407178092061	0.087190
H	0.7157753772012493 0.1091335324129329 0.0212385984662686	0.103449
H	0.6476791596763731 0.1667257350257795 0.0194735343299508	0.118707
H	0.5652208240072603 0.2414431172631072 0.0296849764377486	0.107764
H	0.5659831061034885 0.6171298285423612 0.5299849658571796	0.108986
H	0.6398970582253600 0.5388031203371324 0.5206684733099416	0.104991
H	0.7069926815626040 0.4606659424836922 0.5216424614254545	0.086657
H	0.7842955232634841 0.3906175855762460 0.5212156524838678	0.104532
H	0.8537032964599086 0.3350847966247538 0.5194033542336819	0.118700
H	0.9363554055046058 0.2606755444631238 0.5295605468714751	0.108025
H	0.0659317809723871 0.1171736743321060 0.5300813273066324	0.108810
H	0.1399098759407070 0.0388386997457801 0.5205991322149077	0.105151
H	0.2069614650834125 0.9606275588342411 0.5216485106581946	0.086919
H	0.2842961750620969 0.8906177683679891 0.5212739071268622	0.104119
H	0.3537101089994026 0.8351716410168381 0.5194390367180416	0.118657
H	0.4364048224387078 0.7607238131798451 0.5294991844133220	0.108470
Ni	0.4999406323206149 0.6888421021037503 0.7492262728828263	0.772065
Ni	-0.0001077487376399 0.1887835705843091 0.7496535263229474	0.772056
Ni	0.4999224017747335 0.3109658399736501 0.2505574133765703	0.772088
Ni	-0.0000905489561281 0.8109715693468514 0.2503915125666732	0.772102
F	0.4995741582048946 0.6872117495049580 0.4741450525457825	-0.625417
F	-0.0003955900931777 0.1872058086132159 0.4735904920105637	-0.625381
F	0.4996009498902367 0.3123228764288584 0.9730489548646669	-0.625282
F	-0.0003869300196444 0.8123542610348825 0.9731765744457339	-0.625377
F	0.4996647761240349 0.6870829180054756 0.0273882270974286	-0.625241
F	-0.0004260647122579 0.1871724320715856 0.0270631643777961	-0.625501
F	0.4995615246637418 0.3122716444405589 0.5257479121457952	-0.625242
F	-0.0004400404959913 0.8123757718439404 0.5259916673124532	-0.625369
F	0.4753503984777155 0.7707964022800703 0.2503543658217845	-0.605834
F	0.5742754670544392 0.6613832918792080 0.2507466073501526	-0.604426
F	0.9727253951433773 0.2702315961936768 0.2502537606648197	-0.606062
F	0.0748504480279916 0.1653229812097257 0.2501813611253977	-0.604974
F	0.5744937977076456 0.2892931574917948 0.7496778946744820	-0.607562
F	0.4758716305889754 0.3981479694051601 0.7495706824358281	-0.598659
F	0.0736532311792897 0.7869789879597130 0.7497561963380025	-0.607535
F	0.9771871875814018 0.8986844418099792 0.7498691856413657	-0.599350
F	0.4429952390498861 0.6214288201099716 0.2505114362491538	-0.595756
F	0.9446388020959549 0.1200885764758739 0.2502442815435920	-0.596425
F	0.4424910624152977 0.2495307216700000 0.7496716623746604	-0.603549
F	0.9408951479134742 0.7512227724290228 0.7496962466563282	-0.603812
N	0.4387803143318335 0.6199307816803118 0.7499300862985587	-0.234780
N	0.5619131729078950 0.7571346767970667 0.7499053399766742	-0.243258
N	0.9388063430214926 0.1198835194215643 0.7499731075330229	-0.234731
N	0.0619398008879451 0.2571007045047837 0.7499692646007259	-0.243179
N	0.5613196269639650 0.3798738639717342 0.2500625338174183	-0.232104
N	0.4379956993526545 0.2428146198759385 0.2500677711833248	-0.245756
N	0.0612826506101010 0.8799326715380961 0.2500418331329456	-0.231828
N	0.9379694988597086 0.7428690680229771 0.2500470060012838	-0.246558
N	0.5615112726810828 0.6201756568015890 0.7499063004926076	-0.233122
N	0.4384899530166750 0.7576501457810462 0.7499170647824919	-0.241471
N	0.0615045260298146 0.1201811934389078 0.7499826641276953	-0.232474
N	0.9384593420969667 0.2576391382093494 0.7499415893833785	-0.241502
N	0.4390657136221749 0.3803287678180306 0.2500655116508498	-0.233787
N	0.5622080461558941 0.2431555338288195 0.2500682902550656	-0.242989
N	0.9390731637055300 0.8803559228775742 0.2500385200808803	-0.233533
N	0.0622098917174006 0.7431946260978923 0.2500477279895498	-0.243144
Fe	0.4983038609218703 0.6853433114663258 0.2501026970807842	1.510172
Fe	-0.0017782166737457 0.1857150110172175 0.2500348081064362	1.511475
Fe	0.4984467971332158 0.3125194792285789 0.7499610988486481	1.512167
Fe	-0.0017787299579530 0.8125556994616729 0.7499530922807330	1.513243
	  	
