#======================================================================

# CRYSTAL DATA

#----------------------------------------------------------------------

data_VESTA_phase_1


_pd_phase_name                         FeFFIVE_1_Zn
_cell_length_a                         11.38657
_cell_length_b                         11.38660
_cell_length_c                         8.01730
_cell_angle_alpha                      90.07699
_cell_angle_beta                       89.92092
_cell_angle_gamma                      89.98719
_symmetry_space_group_name_H-M         P 1
_symmetry_Int_Tables_number            1

loop_
_symmetry_equiv_pos_as_xyz
   x, y, z

loop_
   _atom_site_label
   _atom_site_fract_x
   _atom_site_fract_y
   _atom_site_fract_z
   _atom_site_charge
C	0.2508933764364872 0.4577567832851584 0.3673612590321508	0.103952
C	0.1287554677193881 0.4574182871729801 0.3624981599566650	-0.175544
C	0.7501095871486112 0.5409640743622015 0.3676623453914736	0.107909
C	0.8721562113164365 0.5421064264375921 0.3627127147047199	-0.176281
C	0.5416785035866789 0.2506674876872771 0.3686626257677972	0.104712
C	0.5423717409105951 0.1286189696473811 0.3632091430584895	-0.176632
C	0.4586844430992079 0.7498379876127901 0.3676233202628342	0.102647
C	0.4578912998939640 0.8719685388878504 0.3629201181086326	-0.174971
C	0.7498330178826812 0.4586833922984666 0.6323824320246055	0.102418
C	0.8719636809349143 0.4578922458178814 0.6370851718345697	-0.174964
C	0.2506654134701401 0.5416782328734936 0.6313323823828428	0.104563
C	0.1286156896649656 0.5423706395845198 0.6367899366616748	-0.176606
C	0.4577532981545683 0.2508918543387407 0.6326364832320247	0.103909
C	0.4574140301892321 0.1287525343278883 0.6375036821642163	-0.175661
C	0.5409622824058343 0.7501093208132018 0.6323423619556618	0.107858
C	0.5421036760941420 0.8721559866528472 0.6372908826908867	-0.176204
C	0.0652074583540305 0.4999234278551208 0.4996442205679045	0.102616
C	0.9355386410693112 0.4999628120695675 0.4998875708216106	0.098702
C	0.4999207193505409 0.0652083851363957 0.5003583241410077	0.102664
C	0.4999603207866969 0.9355399700964914 0.5001158801299825	0.098626
H	0.3031878844693401 0.4244524836864502 0.2630350955527028	0.102973
H	0.0832009283545438 0.4219943215133749 0.2541208840144494	0.121532
H	0.6978414436584557 0.5716429006787758 0.2629070040738942	0.100703
H	0.9176816429217156 0.5770685977361109 0.2539954257524660	0.119179
H	0.5749941716828149 0.3033487858929295 0.2653856753795235	0.099010
H	0.5777657454259896 0.0829235949259553 0.2547037579718905	0.119772
H	0.4282447378754249 0.6979643948742318 0.2616942067014263	0.106146
H	0.4230057195834941 0.9172272201420300 0.2541402857857492	0.120927
H	0.6979581817170969 0.4282420612977645 0.7383142373930007	0.105563
H	0.9172209321092180 0.4230069568015594 0.7458654615052333	0.120814
H	0.3033431827995065 0.5749907963243749 0.7346106006379577	0.099160
H	0.0829172344917799 0.5777642902133013 0.7452946516381078	0.119832
H	0.4244485182534209 0.3031827000897667 0.7369644330563710	0.102990
H	0.4219904621775976 0.0831967511397447 0.7458837600740619	0.121708
H	0.5716395787398907 0.6978403075919403 0.7370975866180596	0.100820
H	0.5770662542578897 0.9176788839908036 0.7460049623101168	0.119258
Zn	0.5007492206202931 0.5007496480213413 0.5000007619463844	0.731101
Fe	0.4989783824135181 0.4989727748895986 -0.0000021082241978	1.308862
F	0.5017253649404921 0.4987469427770444 0.7561667521258415	-0.519552
F	0.4987816798799926 0.5017398964029284 0.2438261513860775	-0.520409
F	0.3831667186025167 0.3831700820637812 0.0000236121865034	-0.568842
F	0.6568969669697576 0.4547772854092421 0.0035872033021024	-0.569744
F	0.4548082416934856 0.6568977537044492 0.9963584556156584	-0.571383
N	0.3105961949873722 0.4997495681263158 0.4994101612698794	-0.222726
N	0.6901860405192163 0.4997896505423605 0.4998855153720896	-0.229013
N	0.4997465077278523 0.3105955735843028 0.5005857891451718	-0.223124
N	0.4997892226588800 0.6901884816216655 0.5001208225197286	-0.229272
	  	
