#======================================================================

# CRYSTAL DATA

#----------------------------------------------------------------------

data_VESTA_phase_1


_pd_phase_name                         FeFFIVE_1_Co
_cell_length_a                         11.01310
_cell_length_b                         11.01309
_cell_length_c                         8.15503
_cell_angle_alpha                      90.08238
_cell_angle_beta                       89.91638
_cell_angle_gamma                      90.00420
_symmetry_space_group_name_H-M         P 1
_symmetry_Int_Tables_number            1

loop_
_symmetry_equiv_pos_as_xyz
   x, y, z

loop_
   _atom_site_label
   _atom_site_fract_x
   _atom_site_fract_y
   _atom_site_fract_z
   _atom_site_charge
C	0.2593141362977354 0.4573478662098169 0.3690045923332116	0.092652
C	0.1331002722710335 0.4567947821267712 0.3650893631345418	-0.171237
C	0.7411642021251592 0.5424126124386131 0.3695973346312795	0.096916
C	0.8673054992280967 0.5433315561009450 0.3652587371647982	-0.169811
C	0.5423978366307219 0.2590916109707279 0.3696088802120059	0.097093
C	0.5432566347448715 0.1329177368993299 0.3651810817349527	-0.171798
C	0.4573625558582815 0.7409336982191997 0.3696075319090369	0.091758
C	0.4567242409865804 0.8670967672947834 0.3655200059492340	-0.169612
C	0.7409314690418459 0.4573623387636900 0.6303933229752621	0.091642
C	0.8670945529945215 0.4567245588735988 0.6344791481583107	-0.169622
C	0.2590903448345960 0.5423985769673680 0.6303897805191888	0.097167
C	0.1329165083643196 0.5432576034021361 0.6348171934376114	-0.171911
C	0.4573469846939795 0.2593126342669429 0.6309946581854964	0.092660
C	0.4567934182987464 0.1330987676976567 0.6349113937654914	-0.171220
C	0.5424122154372959 0.7411632811386882 0.6304013468895849	0.096906
C	0.5433305963628717 0.8673048242921728 0.6347385920862937	-0.169829
C	0.0671194931201184 0.5000842786676346 0.4999238100534928	0.099811
C	0.9330874807465666 0.5000609163469065 0.4998959564133685	0.095062
C	0.5000829426994807 0.0671196658081603 0.5000750696018642	0.099753
C	0.5000600345701881 0.9330884847785925 0.5001023152757008	0.095034
H	0.3132404770429184 0.4249808377046896 0.2653410896881256	0.108569
H	0.0866748888219608 0.4207897560856761 0.2576485703407388	0.124305
H	0.6869955142016251 0.5731558526561354 0.2662938832415211	0.105190
H	0.9136727887624752 0.5788652284983877 0.2574101077602207	0.121245
H	0.5746035863750962 0.3138002508595002 0.2671565596990160	0.103277
H	0.5790874502343003 0.0862314249817975 0.2576215511658145	0.122116
H	0.4269539599894762 0.6876151768465417 0.2647957777670147	0.109904
H	0.4211445733517730 0.9130345463875484 0.2575736607870561	0.123818
H	0.6876130010446005 0.4269528274001998 0.7352068045029577	0.109948
H	0.9130320208436749 0.4211445883820877 0.7424253404965165	0.123794
H	0.3137983798404187 0.5746037151199291 0.7328394954162746	0.103273
H	0.0862286781395210 0.5790879943542846 0.7423766753010346	0.122078
H	0.4249803418781056 0.3132403203553611 0.7346563190462683	0.108562
H	0.4207882651439995 0.0866730312963467 0.7423533873095515	0.124359
H	0.5731545162359626 0.6869946685363911 0.7337067276818340	0.105222
H	0.5788634160491136 0.9136707936017854 0.7425862039813892	0.121323
Co	0.5000214725895569 0.5000217770591538 0.5000006937373889	0.583555
Fe	0.4997049191961494 0.4997053366439627 0.0000052780946273	1.502629
F	0.5006183645986366 0.4998605614736347 0.7617532753028989	-0.573978
F	0.4998723604865700 0.5006339223151476 0.2382527045440143	-0.573962
F	0.3795134967043453 0.3795232508981265 0.0000399238393149	-0.604848
F	0.6637134013139739 0.4552005025400676 0.0015266951517647	-0.605071
F	0.4552567433087202 0.6637334829596592 0.9984400067496073	-0.605110
N	0.3213782207925440 0.4998782127453914 0.4997373064839898	-0.183890
N	0.6788539894598471 0.4998764240539548 0.4999631386523120	-0.186883
N	0.4998775002365403 0.3213782686007166 0.5002615689710188	-0.183917
N	0.4998762720510677 0.6788547473797764 0.5000372998570007	-0.186923
	  	
