#======================================================================

# CRYSTAL DATA

#----------------------------------------------------------------------

data_VESTA_phase_1


_pd_phase_name                         FeFFIVE_4_Zn_i
_cell_length_a                         22.01583
_cell_length_b                         22.31849
_cell_length_c                         7.74240
_cell_angle_alpha                      87.59125
_cell_angle_beta                       85.62300
_cell_angle_gamma                      89.84075
_symmetry_space_group_name_H-M         P 1
_symmetry_Int_Tables_number            1

loop_
_symmetry_equiv_pos_as_xyz
   x, y, z

loop_
   _atom_site_label
   _atom_site_fract_x
   _atom_site_fract_y
   _atom_site_fract_z
   _atom_site_charge
C	0.4448894087872381 0.5534768375869179 0.6331794000834791	0.104575
C	0.4029945955451020 0.5070436516858924 0.6310945943892428	-0.160201
C	0.2360616377597971 0.4820793266137973 0.6659148201628404	-0.125211
C	0.1919485917324145 0.4374527952668749 0.6757591379639325	-0.138499
C	0.1178911358369618 0.3282422231368591 0.6103822844602652	-0.185302
C	0.0737290553546493 0.2836455299951802 0.6225501419651108	0.099240
C	0.9349868814138236 0.0625706243699635 0.6345779758141175	0.116778
C	0.8913113742041895 0.0176411890189709 0.6387308887201301	-0.165469
C	0.7272079718607758 0.9923892673791782 0.7164029602408708	-0.119591
C	0.6834692259252029 0.9473065896560779 0.7235868572246442	-0.134709
C	0.6119883004141340 0.8375683189650552 0.6376795250963704	-0.187995
C	0.5712618957607590 0.7901350289725395 0.6383116973133934	0.097818
C	0.6287505369938914 0.3785511923691832 0.1603570237596522	0.092712
C	0.6755663980976248 0.4199584363430762 0.1641359355102011	-0.183678
C	0.6967325291943767 0.5803894487010884 0.2013605628330085	-0.114770
C	0.7413098681543498 0.6246252196677339 0.1972121256130339	-0.128160
C	0.8542693512148031 0.7022134077170991 0.1099868354032442	-0.181454
C	0.8996994721566931 0.7453913192697794 0.1118885703440393	0.083849
C	0.0531724209540650 0.9559051905210232 0.2666137412868856	0.106050
C	0.0957115009515249 0.0013287535723897 0.2717991002037145	-0.171340
C	0.2637854046276394 0.0163309551871400 0.3004751984334506	-0.117391
C	0.3095900026528694 0.0594528870535455 0.2918351452558889	-0.144915
C	0.3458928869696447 0.2107176700581805 0.1414287533808841	-0.182939
C	0.3918870666568077 0.2536585883824303 0.1309602245152640	0.085941
C	0.5631129929258242 0.5589095743649970 0.8559537737071780	0.108470
C	0.6061481477612937 0.5133883989459843 0.8498266585576800	-0.151062
C	0.7686490567642482 0.4893106376127039 0.7738514477449649	-0.125403
C	0.8128504413772720 0.4446661401855865 0.7718145459765122	-0.136999
C	0.8880617379250560 0.3346125585725677 0.8546630178843341	-0.185841
C	0.9311748221591127 0.2890161947163341 0.8495104997477416	0.100154
C	0.1247090300810099 0.1166919897163070 0.7313203745739982	0.096261
C	0.1708583242473548 0.0751576812190252 0.7491247029432894	-0.171966
C	0.1948819728496408 0.9156861708131145 0.9143764545578771	-0.100364
C	0.2394170201570512 0.8713063262488385 0.9112631450878563	-0.122302
C	0.3570372575884940 0.7984877427481363 0.9425212429379565	-0.184481
C	0.4026706975446046 0.7555221772521098 0.9262967719855836	0.101038
C	0.3806986615530289 0.3881468897558892 0.3080140121360936	0.091911
C	0.3355019054166233 0.4314679717284127 0.3006857391035895	-0.184321
C	0.3195516628255070 0.5929835230220797 0.1754641038066928	-0.099834
C	0.2768866398946910 0.6391859899264505 0.1778324029145380	-0.120357
C	0.1299745573020254 0.6810876924291619 0.3647588730346305	-0.180631
C	0.0862093297537533 0.7260781595236220 0.3710575985834593	0.091044
C	0.8760972951354445 0.8739619527835975 0.3477501182558598	0.100426
C	0.8273209562444446 0.9137240166713133 0.3529663872581491	-0.183638
C	0.8016157014258432 0.0722452805485680 0.2739150118824365	-0.117576
C	0.7579922326709582 0.1174212319330792 0.2815826308076101	-0.120705
C	0.6519008822463846 0.1996784355639326 0.3801190344874492	-0.183139
C	0.6090964914406247 0.2455908348798049 0.3743855356194397	0.084374
C	0.5632243044292544 0.4368826407913213 0.3308710598721646	0.104321
C	0.6063134034519764 0.4820243396757189 0.3324900892760566	-0.152151
C	0.7699011443095413 0.5066089623066264 0.2933035678536699	-0.122818
C	0.8136565121199719 0.5513529019033285 0.2953690772908457	-0.133555
C	0.8872925673066433 0.6600990663671465 0.3762565536873018	-0.191093
C	0.9309070105130560 0.7052017176077929 0.3701412371167290	0.096441
C	0.1172781710786869 0.8855008414399189 0.3776383963428850	0.090742
C	0.1626123520960475 0.9281338534830919 0.3876405448541586	-0.176240
C	0.1874234808931378 0.0944259566611118 0.3114648304320918	-0.102622
C	0.2331629622559362 0.1374769553126610 0.2976070211032625	-0.127937
C	0.3862212767369224 0.1690844555725829 0.4000109438097737	-0.189985
C	0.4295289361287376 0.2145295681745233 0.3841735496046664	0.097981
C	0.3717442988307781 0.6171052248775811 0.7499238826099204	0.102174
C	0.3267647044006894 0.5739667590388826 0.7475300526699559	-0.177325
C	0.3108692012077363 0.4096205341745837 0.7550418103783371	-0.112081
C	0.2660966929257781 0.3653691817164716 0.7695305357863791	-0.119814
C	0.1520194036705975 0.2894945554693510 0.8801479707446980	-0.182447
C	0.1058279188847406 0.2468732089700159 0.8853522827372992	0.097278
C	0.8729390999183890 0.1206183261141122 0.8149036236099613	0.099017
C	0.8254445218752328 0.0797730785849968 0.8165902850273334	-0.189061
C	0.8036090350952259 0.9190332243100697 0.7869242438055662	-0.117229
C	0.7593151862774193 0.8744054067259424 0.7999471268259478	-0.122855
C	0.6510148622142199 0.7916817095077388 0.8917240837545564	-0.184145
C	0.6084417692138253 0.7461074032280073 0.8839527547853147	0.122796
C	0.4435635838973726 0.4412138733968013 0.1041744194228754	0.098789
C	0.4019684764173354 0.4880259298433344 0.0962627561684440	-0.160858
C	0.2381955182720762 0.5201955994060466 0.2182719903989501	-0.117622
C	0.1956001771207891 0.5663598738881560 0.2240092730964638	-0.145312
C	0.1600592629453186 0.7153224954509076 0.0733395023532928	-0.184692
C	0.1134033476081028 0.7576088904953799 0.0862788776039975	0.096558
C	0.9251635129437941 0.9274576446803382 0.1154481658478717	0.094730
C	0.8812543117042970 0.9720394153727224 0.1235748253487757	-0.171492
C	0.7223208562633804 0.9993526401256749 0.2402321228154918	-0.121547
C	0.6791816486372245 0.0450288006072880 0.2416852937821098	-0.135874
C	0.6066458979665120 0.1563153994241095 0.1424705705421063	-0.190959
C	0.5663980049872140 0.2043394894506815 0.1422376843376039	0.097605
C	0.6229828189153667 0.6191804295315342 0.6606702268294937	0.096051
C	0.6698950002523405 0.5775052480557576 0.6562635157452283	-0.185836
C	0.6931882563554121 0.4166521627858167 0.7071586820280915	-0.112758
C	0.7379703526983900 0.3725161070543038 0.6994909594995246	-0.121253
C	0.8492602006530828 0.2958453825088696 0.6005792200102716	-0.183316
C	0.8942836243389886 0.2519919797620851 0.6024056717060272	0.096794
C	0.0521267044951092 0.0489838893468783 0.8427808645336052	0.111615
C	0.0950243570412270 0.0035447761724343 0.8539660492539708	-0.153689
C	0.2598361612899996 0.9777587960816830 0.7163814232116305	-0.125810
C	0.3035726114673229 0.9329325518568624 0.7091713389008696	-0.136568
C	0.3706614506467270 0.8176333279439586 0.6349901039619749	-0.182855
C	0.4144453841901402 0.7726943780021205 0.6279656905446640	0.097781
C	0.3422810016668474 0.5165611339638800 0.6920468146719385	0.109299
C	0.2961162460997802 0.4687192931691992 0.7041621348002495	0.058536
C	0.2061735245167416 0.3784535252218858 0.7293358212181508	0.051916
C	0.1586823104096668 0.3317586955757547 0.7405218457383886	0.109854
C	0.8348801780825250 0.0259021945060016 0.7312805793576642	0.107605
C	0.7879317497443717 0.9786818625630964 0.7451796207312534	0.055813
C	0.6988376738092141 0.8875579819556783 0.7656980305967636	0.051685
C	0.6533887874894819 0.8391200504763014 0.7667573584224749	0.108139
C	0.6641759209283414 0.4736412239380052 0.2487803177951492	0.109468
C	0.7110391313564315 0.5206824911561136 0.2470889819379160	0.063532
C	0.8002829076317077 0.6108903770307943 0.2451424117620057	0.049157
C	0.8473002942326325 0.6578340436130421 0.2437394185603171	0.108513
C	0.1535508068468533 0.9873572083712582 0.3261760851517011	0.112298
C	0.2020743148862984 0.0330015856107985 0.3140344108757323	0.058167
C	0.2947179978135526 0.1206559572440636 0.2900739168503930	0.051924
C	0.3426892495881715 0.1669642530230938 0.2771384284885618	0.113459
C	0.6612619006054157 0.5225978411248308 0.7498889908423362	0.111096
C	0.7083955008800369 0.4756689523022540 0.7425644880806325	0.058770
C	0.7982959587604999 0.3857139721903083 0.7325715983473073	0.048691
C	0.8454128032145808 0.3386286056463243 0.7287524858262163	0.107533
C	0.1566893523616771 0.0162448393931954 0.8090138996661967	0.109982
C	0.2041448247376947 0.9697233632711529 0.8159226423975976	0.065655
C	0.2940197447685066 0.8787666103618746 0.8062089713538423	0.056912
C	0.3405780252227503 0.8313588652301996 0.7950109892054652	0.109725
C	0.3460794537818407 0.4838943821532559 0.1961135297261915	0.117355
C	0.3008430605842146 0.5327724406981849 0.1952106112577223	0.054564
C	0.2144184043004992 0.6265514675477772 0.2033471157508882	0.051856
C	0.1682726153973580 0.6749005062255633 0.2132568614378147	0.114330
C	0.8307004687323205 0.9654627078655715 0.2438179307404627	0.116175
C	0.7839091196839620 0.0126956359876249 0.2540381022160522	0.061782
C	0.6964411900834954 0.1046654349106005 0.2632137947074537	0.046792
C	0.6513295500275372 0.1535293159330173 0.2627502929599061	0.110351
H	0.4922522848509385 0.5471805492860892 0.5857053442413320	0.095000
H	0.4183236855672744 0.4636519755162057 0.5859880736441447	0.123547
H	0.2244961099860574 0.5275770440293152 0.6228333826878126	0.100911
H	0.1455920238557704 0.4483213302898097 0.6446741706422502	0.101294
H	0.1216198586121561 0.3591330906582092 0.4971990268437499	0.115026
H	0.0428937207129970 0.2784169759996753 0.5201750025938768	0.102151
H	0.9786727493128766 0.0584593517146505 0.5600788640068213	0.094651
H	0.9016657220201850 0.9766472972389317 0.5710593493570711	0.125372
H	0.7148233380594290 0.0384881182883519 0.6820809844490748	0.102701
H	0.6366479800345040 0.9584324174866131 0.6974131876952729	0.099517
H	0.6129887621409604 0.8719530358021972 0.5332694428918224	0.111817
H	0.5405413593282936 0.7862035357700943 0.5354645637875345	0.094230
H	0.6342801061921054 0.3382197231161719 0.0858685391218852	0.095145
H	0.7194121919898691 0.4119610540791780 0.0937690330628818	0.111942
H	0.6502559952765432 0.5917405763667771 0.1715856272145789	0.125834
H	0.7298523420081038 0.6708721068973127 0.1614299281846985	0.103802
H	0.8251844770569027 0.7026644465471883 0.0019927187851752	0.111342
H	0.9061352467526315 0.7798331586577180 0.0073290853001260	0.103480
H	0.0088458395110373 0.9663080228937069 0.2201207696625035	0.070662
H	0.0842250012544355 0.0466645484152196 0.2265584426359648	0.132904
H	0.2760409900797512 0.9690804237729695 0.2949712591563213	0.099054
H	0.3573703722934627 0.0459250252384856 0.2810511412978121	0.100931
H	0.3135099085090885 0.2103044066154237 0.0417403137278195	0.115272
H	0.3977358683251796 0.2867467690234708 0.0222318172183680	0.111295
H	0.5211565191437563 0.5552608450294008 0.9396050159426538	0.096122
H	0.5970884060337347 0.4713471662789200 0.9231531164472260	0.120700
H	0.7802790606522716 0.5349727954081293 0.8045747828482273	0.103449
H	0.8594101255896761 0.4555144716602886 0.7983781449018280	0.100397
H	0.8865311918270758 0.3656900553976456 0.9598216940468356	0.115296
H	0.9632838910758004 0.2834231295288471 0.9497433569897790	0.099459
H	0.1346646979205030 0.1614069502245023 0.6750676874560526	0.080317
H	0.2175635623259208 0.0891158624795312 0.7126283043990222	0.107991
H	0.1523251092123168 0.9079439290918342 0.9935283865280095	0.110402
H	0.2308565656263828 0.8294498491159312 0.9870121439679893	0.094492
H	0.3355099813323610 0.8071457281418880 0.0703798083170622	0.118507
H	0.4169084361571760 0.7297552762855691 0.0388717764677893	0.097240
H	0.3752406609222958 0.3490680405791421 0.3973464633536644	0.092141
H	0.2935307876328910 0.4256216126118094 0.3834238744718567	0.105086
H	0.3677817800454862 0.6047864488032804 0.1642728016154505	0.121549
H	0.2927945951440007 0.6854707202006948 0.1666013507105125	0.105051
H	0.1351957312205199 0.6518171118500803 0.4789321752653934	0.117432
H	0.0585967622847395 0.7347819789518140 0.4902588489009528	0.098711
H	0.8782751455307325 0.8363583832382834 0.4416814999315685	0.099643
H	0.7889825627911540 0.9063055377127577 0.4487711806967009	0.111088
H	0.8493298292087972 0.0839288762713563 0.2846017741388244	0.129999
H	0.7723494772068523 0.1635505557417244 0.2961704902056742	0.108877
H	0.6848533780657952 0.1993260849446658 0.4783358594030381	0.115135
H	0.6067882362718303 0.2807605568088016 0.4692002760322164	0.109922
H	0.5187762240861310 0.4405646722301884 0.4012865891989859	0.090069
H	0.5946700190429337 0.5235198491647709 0.3961300624806420	0.134861
H	0.7806249553283497 0.4605771467959443 0.3332299400682263	0.106854
H	0.8590917618726625 0.5400359474280294 0.3338231066709164	0.101162
H	0.8833700286967681 0.6278545543407482 0.4862609999969216	0.111772
H	0.9608238398214514 0.7094291991523975 0.4746535291612835	0.087897
H	0.1236137374861146 0.8394757613815170 0.4250570531029541	0.087486
H	0.2046893518013110 0.9147609008064931 0.4440175668461337	0.108183
H	0.1399755761502342 0.1090725120081595 0.3187993382195007	0.130126
H	0.2211201924612309 0.1849231038422565 0.2967526745548547	0.105185
H	0.3851784352480446 0.1365035868211273 0.5091873806968122	0.115846
H	0.4628666846632914 0.2194682860969067 0.4797418101162181	0.093827
H	0.3610414837000978 0.6607715726330989 0.8012056391748561	0.076745
H	0.2805301456130689 0.5839909825569405 0.7988266908222735	0.110401
H	0.3572523298589094 0.3972860039020766 0.7831400003467160	0.125976
H	0.2784242409930734 0.3196193917932272 0.8082867959377706	0.104134
H	0.1819009734671715 0.2905405182700342 0.9859440797199199	0.113636
H	0.0990536770392159 0.2134405212106930 0.9923682162063970	0.093467
H	0.8693598107676428 0.1606143696649061 0.8911081165277128	0.096242
H	0.7829348574880257 0.0879859795976126 0.8935433421873317	0.112815
H	0.8506073755305025 0.9066714703540669 0.8072325312704139	0.122088
H	0.7726076753763941 0.8282683170364782 0.8300595342627635	0.107449
H	0.6812806878992832 0.7908151710814625 -0.0031057748185089	0.112306
H	0.6053148608407762 0.7090813654255308 0.9801093773163958	0.092077
H	0.4858634718407180 0.4422589798661943 0.0213420573843749	0.090761
H	0.4128468724875726 0.5270942706582683 0.0105129364640317	0.118238
H	0.2226913881890389 0.4737884589018702 0.2302428115713855	0.101568
H	0.1470035577715416 0.5559914451416519 0.2416014742152863	0.100196
H	0.1883504036654632 0.7125987677268569 0.9520066145170748	0.120055
H	0.1033311545127026 0.7870008246597332 0.9757982605244624	0.108940
H	0.9626214980924505 0.9283510779895003 0.0150890508510365	0.091514
H	0.8854752673988661 0.0110284519501881 0.0342760861973327	0.115829
H	0.7086451925490820 0.9531212274708649 0.2235263938008386	0.107136
H	0.6314441613657190 0.0344882171918244 0.2283266739515131	0.099458
H	0.6046144326874295 0.1221916292118786 0.0463695221628609	0.113551
H	0.5324416448350077 0.2091637645615031 0.0471901714432743	0.091004
H	0.6259988843874423 0.6607846221024818 0.5817361740806959	0.093742
H	0.7115486575366887 0.5863991929744963 0.5739038371768209	0.109561
H	0.6464465916636505 0.4046387598861905 0.6855059998953484	0.123572
H	0.7252117571826661 0.3268093414879407 0.6726899311524815	0.108647
H	0.8179201734082030 0.2972933536439929 0.4980817034253677	0.113026
H	0.8986236616894496 0.2180443340091734 0.5044394497921776	0.091444
H	0.0043701187186735 0.0402332269071807 0.8822754768936247	0.083252
H	0.0793657908664616 0.9583947552904573 0.8922938750255843	0.119839
H	0.2682208824654344 0.0187616517403688 0.6373398912194495	0.092078
H	0.3460176415491650 0.9400517425888766 0.6285708682198400	0.098725
H	0.3587626889381891 0.8406401637799485 0.5152872746371151	0.116031
H	0.4363595672536661 0.7587090253102479 0.5051761583962917	0.101926
Zn	0.4990183458062240 0.6736789040844424 0.7507178387224609	0.740014
Zn	0.9992186929170334 0.1744888473397230 0.7471625171328029	0.740856
Zn	0.5027077431514744 0.3228035373716066 0.2377622189455926	0.742503
Zn	0.0023001786612753 0.8248091718215228 0.2490902282626148	0.738767
F	0.5161826501187319 0.6870267484137040 0.4864711919687219	-0.507577
F	0.0223866147504838 0.1736845698972370 0.4821223622862413	-0.573968
F	0.5199915894950230 0.3197332687059020 0.9751034124000347	-0.568053
F	0.0201211991077804 0.8475672302427523 0.9837116169330911	-0.568014
F	0.4791414675825044 0.6508425129354594 0.0140480934684547	-0.510152
F	0.9725741721417540 0.1757416099881298 0.0097640352349497	-0.574004
F	0.4883805478574719 0.3268654449267959 0.5036282775367148	-0.571036
F	0.9842176194537086 0.8115888673291870 0.5143208932209267	-0.568748
F	0.5284888925972271 0.7456971965840651 0.1770756770287581	-0.576854
F	0.5482446542391691 0.6033891772342522 0.2571990781705798	-0.572781
F	0.0018662339208043 0.2623205611363941 0.2357007288629444	-0.598365
F	0.0671619234035724 0.1371685155677111 0.1734448984318619	-0.579234
F	0.5872916082032749 0.3195770620605692 0.6834699666077190	-0.588315
F	0.5110963624245741 0.4259336304741702 0.7309791755441535	-0.576247
F	0.0745566257999107 0.7961114739349454 0.7146298313556867	-0.600969
F	0.0078414593443544 0.9221323734951204 0.6857780420509332	-0.572599
F	0.4143266155819171 0.6784427775172438 0.3081426741399105	-0.575846
F	0.9208488083198867 0.1458315466699055 0.3265020466821842	-0.583442
F	0.4227236766323166 0.3258702175043672 0.7975507040329677	-0.592077
F	0.9192327559530314 0.8288654867998951 0.8073296673504504	-0.578218
N	0.4302602109936413 0.6073698110192370 0.6962829962449316	-0.228103
N	0.5689829042044554 0.7451824645922474 0.7600776888263771	-0.232079
N	0.9268050975703354 0.1123657098581016 0.7251296168511094	-0.228100
N	0.0676637042186336 0.2436968269193013 0.7580850561356480	-0.231575
N	0.5736352725245418 0.3865232045106636 0.2438093640610423	-0.231344
N	0.4326592644155624 0.2556288766130963 0.2517112078055607	-0.228451
N	0.0637210681869426 0.8981907583764430 0.3110916434531802	-0.235190
N	0.9376925795239323 0.7471140491113514 0.2399941344893306	-0.233698
N	0.5707279291168370 0.6103801913092863 0.7602471737827963	-0.232484
N	0.4308262390463576 0.7425825268259649 0.7715350139987945	-0.223738
N	0.0659701060149095 0.1046687207258618 0.7797752543983810	-0.217745
N	0.9343887167141081 0.2484387703702645 0.7251802037350358	-0.232730
N	0.4339712976168511 0.3923657421041357 0.2107737421028393	-0.237174
N	0.5672637245135205 0.2481561951851018 0.2561094189877497	-0.234327
N	0.9242049037489732 0.8804873380167221 0.2305867856376525	-0.219707
N	0.0770741013935124 0.7629930090774003 0.2330945676636345	-0.229222
Fe	0.4978653661903122 0.6708657883619895 0.2506349557603326	1.293746
Fe	0.9962695826808691 0.1790622073682310 0.2462427177236119	1.506381
Fe	0.5060253316040367 0.3429959269241533 0.7379742607364329	1.508936
Fe	0.0022264713207991 0.8409777148186165 0.7393167809562216	1.503191
	  	
