#======================================================================

# CRYSTAL DATA

#----------------------------------------------------------------------

data_VESTA_phase_1


_pd_phase_name                         FeFFIVE_2_Ni
_cell_length_a                         13.73091
_cell_length_b                         13.61511
_cell_length_c                         8.23284
_cell_angle_alpha                      90.09914
_cell_angle_beta                       89.87873
_cell_angle_gamma                      90.04987
_symmetry_space_group_name_H-M         P 1
_symmetry_Int_Tables_number            1

loop_
_symmetry_equiv_pos_as_xyz
   x, y, z

loop_
   _atom_site_label
   _atom_site_fract_x
   _atom_site_fract_y
   _atom_site_fract_z
   _atom_site_charge
C	0.5294942943672100 0.6968126541468669 0.1324903893313996	0.099786
C	0.5307073851572595 0.7986538499365546 0.1376586249271092	-0.162626
C	0.4687274477313172 0.3041726089695773 0.1325864667583540	0.097500
C	0.4681712319000336 0.2023118452703844 0.1371225065310028	-0.164393
C	0.3014482343703210 0.5306007936207878 0.1312266384756147	0.100236
C	0.2004140326076032 0.5314519503983920 0.1368753228083205	-0.165935
C	0.6992823342722372 0.4702703169074467 0.1327323602401321	0.094935
C	0.8002995844171159 0.4692094817122505 0.1371182122244828	-0.163537
C	0.4703130954386704 0.6967191467046226 0.8674672196978808	0.094676
C	0.4692982245564601 0.7985565666798473 0.8631858717920508	-0.162806
C	0.5307685006906957 0.3041649764918421 0.8687960480776683	0.100556
C	0.5316079331006396 0.2023129335989413 0.8633385531540501	-0.165127
C	0.6994131005160266 0.5293846948412723 0.8674323581159259	0.100229
C	0.8004310582425144 0.5306923731023333 0.8621193643215590	-0.163383
C	0.3015385102036338 0.4687632834681356 0.8672455551791634	0.098439
C	0.2004871962649791 0.4681609348828779 0.8625638697732806	-0.164297
C	0.4999930632401465 0.1490655813909669 0.0001761825667830	0.171156
C	0.5001597501723664 0.0451854861920313 0.0001548053721183	-0.094040
C	0.5000674989308742 0.8518372532008530 0.0004987490751544	0.166788
C	0.5001787970171521 0.9556775200965953 0.0005529514086586	-0.092527
C	0.8530292888484790 0.4999955628046560 -0.0004499402618221	0.165848
C	0.9560057692106601 0.5001049116177838 -0.0005971409746868	-0.090174
C	0.1477331327738659 0.4998881711407322 -0.0002499011317034	0.170627
C	0.0447327797612169 0.5000422718924441 -0.0001668884023256	-0.096514
H	0.5501217180106719 0.6526799122416345 0.2370142193496210	0.101972
H	0.5549440778930268 0.8363986157086074 0.2469515736025785	0.127521
H	0.4448470886809374 0.3480044019355452 0.2363688493759103	0.104694
H	0.4429031405428902 0.1644099996917723 0.2455524367321289	0.128912
H	0.3455635446784015 0.5539844804195077 0.2342901374405719	0.099933
H	0.1625801451320334 0.5564390072439206 0.2456539209771142	0.128490
H	0.6562436302499340 0.4492320945375710 0.2386749425180981	0.106773
H	0.8378479949256662 0.4447152055928709 0.2460233273130100	0.128800
H	0.4492665583729363 0.6533089864033126 0.7617249181199069	0.107816
H	0.4448272794960759 0.8361034778366597 0.7541059562117540	0.128612
H	0.5542206055336327 0.3487222300684358 0.7660376096673557	0.100119
H	0.5566774955865162 0.1643970699802602 0.7546168251272442	0.127944
H	0.6557432862210710 0.5499859710701436 0.7626186672557129	0.101479
H	0.8381676434875166 0.5549609035102986 0.7529372850998196	0.127126
H	0.3450415736097542 0.4448964693693039 0.7632976696923623	0.103993
H	0.1627005834442803 0.4429524684309352 0.7541419881594636	0.128672
Ni	0.5003066067648068 0.5003869392748427 0.0000769881293500	0.757037
Fe	0.4989179600893151 0.4990100097385391 0.5000064567451294	1.514080
F	0.4993732490980920 0.5014453631191420 0.7352035914865915	-0.579071
F	0.5013539531429331 0.4995181260699864 0.2647727257800860	-0.578091
F	0.4612655298697727 0.6314156752621742 0.4974571610916522	-0.601606
F	0.4023086947272921 0.4018191038577981 0.4999970579631416	-0.602040
F	0.6302306836883798 0.4609671424729400 0.5025991096375205	-0.602503
N	0.4998297292060701 0.3541363828077430 0.0007881396811772	-0.231597
N	0.4999902509325282 0.6467062869344076 -0.0001428526406891	-0.235104
N	0.6496681826606435 0.4999109375844730 0.0002276950151275	-0.236472
N	0.3510866161633265 0.4997876007689626 -0.0008744885918954	-0.232904
	  	
