#======================================================================

# CRYSTAL DATA

#----------------------------------------------------------------------

data_VESTA_phase_1


_pd_phase_name                         FeFFIVE_18_Co
_cell_length_a                         13.98339
_cell_length_b                         14.04492
_cell_length_c                         7.98252
_cell_angle_alpha                      89.69444
_cell_angle_beta                       95.36971
_cell_angle_gamma                      90.05500
_symmetry_space_group_name_H-M         P 1
_symmetry_Int_Tables_number            1

loop_
_symmetry_equiv_pos_as_xyz
   x, y, z

loop_
   _atom_site_label
   _atom_site_fract_x
   _atom_site_fract_y
   _atom_site_fract_z
   _atom_site_charge
F	0.5010685459376899 0.3442401545927052 0.5076277807336728	-0.573049
F	0.5206013986937404 0.4940404771507637 0.7427863748103528	-0.573495
F	0.3745768948371725 0.5249672748886506 0.5141785555276943	-0.556199
F	0.0014372808002037 0.8436510816753255 0.5075465793759392	-0.574143
F	0.0208845190914323 0.9945339080912680 0.7424122040173690	-0.571692
F	0.8735669558588788 0.0227527919462823 0.5152964380853071	-0.556663
F	0.6251469253217060 0.5252189834306261 0.4884542629433404	-0.555554
F	0.4790754017504033 0.4902999483185062 0.2607842262310234	-0.574909
F	0.1254402421142782 0.0243232981895967 0.4887520482548832	-0.555490
F	0.9791951034399476 -0.0089723149410850 0.2623532521490785	-0.573229
C	0.6825277682760883 0.1639289160328577 0.6582316721458402	-0.423038
C	0.7548558943696508 0.1548839831947378 0.8062719916453267	0.204653
C	0.7596208767931145 0.1980388003699187 0.9646378139675764	-0.149895
C	0.6895078951500788 0.2627065644590497 0.0265160563929776	-0.143985
C	0.6741461614958140 0.3600568932102573 0.9835402764380229	0.215880
C	0.7289387961365924 0.4205568101574554 0.8715726540180082	-0.426745
C	0.8862446752797026 0.1905079229762947 0.2253164709873658	-0.433252
C	0.8462084845430196 0.1651062162842824 0.0518850669362560	0.220040
C	0.6227251525951537 0.2409585979494036 0.1414274461817556	0.204745
C	0.6001853489655995 0.1497658342172432 0.2256044096846995	-0.424965
C	0.1808165924024928 0.6644924254650618 0.6577498916147954	-0.422599
C	0.2537996160538246 0.6552306371200470 0.8049296817206844	0.204136
C	0.2586421600344105 0.6984563860350835 0.9631945040674081	-0.150644
C	0.1888612712317564 0.7634033987815525 0.0254774273267502	-0.144001
C	0.1739491196189193 0.8609228714984204 0.9835926527187715	0.215435
C	0.2281797776068468 0.9218342959951645 0.8713832825130438	-0.427873
C	0.3844036051531753 0.6913438128963066 0.2241185439386817	-0.433976
C	0.3450874618576991 0.6652740288186400 0.0506760342907348	0.220917
C	0.1224355547880554 0.7417533554635933 0.1411239900008876	0.205862
C	0.0998837055877202 0.6506883221092294 0.2255768036604412	-0.427958
C	0.3156086065175234 0.1657603656311578 0.3422890225263307	-0.423197
C	0.2431924464711001 0.1565326723487016 0.1946708761031631	0.204517
C	0.2400588349636381 0.1973486669786157 0.0338181442537422	-0.150124
C	0.3116689324499243 0.2606391924215117 0.9716098781992827	-0.145214
C	0.3274262651851106 0.3575037399189179 0.0158514971525419	0.214362
C	0.2706294520441723 0.4171380369877886 0.1247754035618826	-0.429228
C	0.1130885251643300 0.1928971314068804 0.7743164395086448	-0.433960
C	0.1524252542255309 0.1664652094855364 0.9481928365728906	0.222484
C	0.3795315924936237 0.2394439339152022 0.8586753570700967	0.203914
C	0.4022724448382618 0.1495003804620823 0.7721516182117325	-0.426218
C	0.8171558000512497 0.6664343551839940 0.3423455562017492	-0.422773
C	0.7445322032670898 0.6565510659615718 0.1947760605089110	0.204195
C	0.7412283843161001 0.6976867719114038 0.0341202202622394	-0.151093
C	0.8125066609531563 0.7613867110960406 0.9719961974812598	-0.145198
C	0.8280120470557431 0.8582306845298464 0.0163255631432598	0.215709
C	0.7716673342620298 0.9179061313977064 0.1258941296130652	-0.430135
C	0.6149257266003314 0.6933244166139035 0.7746520700677929	-0.433788
C	0.6538337301287456 0.6663010541385435 0.9482173944533049	0.221996
C	0.8802182430285188 0.7404375740734765 0.8588176277603682	0.206673
C	0.9024614011914985 0.6506267395689778 0.7717678938682596	-0.429085
H	0.7166520548375505 0.1849920900648354 0.5452206783330428	0.145607
H	0.6291153653251969 0.2181929720258794 0.6815554022942432	0.139637
H	0.6451343822620965 0.0960642875527617 0.6302441335027791	0.134652
H	0.6825161774907724 0.4510683339342661 0.7664254464159730	0.147063
H	0.7852145856943226 0.3780570709324523 0.8207451379421592	0.132379
H	0.7632405413752649 0.4804068360473358 0.9424634927357317	0.131343
H	0.8551108505585975 0.0614069738841259 0.7050650014051012	0.279297
H	0.8681031831056032 0.1365746035739503 0.3174786646530203	0.141653
H	0.8565519692760533 0.2591861423092381 0.2605871075672770	0.130775
H	0.9648478232319193 0.1955451909392035 0.2330935845716409	0.139744
H	0.5634713723818379 0.1629990991347382 0.3388435761226909	0.140654
H	0.6656775454273447 0.1085433991086100 0.2611887104318825	0.150331
H	0.5525539111809364 0.1048917744499328 0.1413019637822235	0.132850
H	0.5234373332371854 0.3347726311905887 0.2434921752299739	0.271152
H	0.2139680734733693 0.6859575045016235 0.5439362383869841	0.145468
H	0.1276121091061207 0.7186900126415280 0.6826671857403327	0.139796
H	0.1427468392613639 0.5969135015627089 0.6296575366472272	0.134155
H	0.1811869871595151 0.9522731397623571 0.7669547427612388	0.147066
H	0.2843940216856277 0.8797844213503681 0.8194036246292681	0.132854
H	0.2624244470401045 0.9817965310967692 0.9420716042367717	0.131657
H	0.3544610518050959 0.5619345746009504 0.7040430089983928	0.279954
H	0.3654866813826450 0.6382364825527505 0.3172254573870670	0.142433
H	0.3546084182180564 0.7604082339833883 0.2570394854609985	0.131046
H	0.4630569679172177 0.6961885532100238 0.2334000055240095	0.139839
H	0.0632782558430029 0.6641128923367354 0.3388429487308351	0.141317
H	0.1653408146132638 0.6094694518578426 0.2612243933663237	0.150982
H	0.0522029900761327 0.6060224396166622 0.1410096678578927	0.133619
H	0.0244407369625092 0.8357878013403134 0.2456703364554182	0.270775
H	0.2810205156227548 0.1820865253010379 0.4566969364056558	0.145692
H	0.3662318689365390 0.2233323586785610 0.3212525398423560	0.139840
H	0.3567608117451547 0.0995336330044110 0.3666830447073264	0.134632
H	0.3165460002513742 0.4539205174310071 0.2229307004094230	0.147632
H	0.2190271392715228 0.3724786348974756 0.1847144947824191	0.133940
H	0.2300359266093196 0.4716938081735170 0.0485056372948208	0.132457
H	0.1415390108147843 0.0653351399821993 0.2992299886279304	0.278185
H	0.1267710845952751 0.1370419215493847 0.6837733715844566	0.142676
H	0.1476302065540260 0.2589243351138411 0.7365039551300900	0.130440
H	0.0350777272856299 0.2037990260131206 0.7673026689517218	0.140839
H	0.4397399749383401 0.1646953776109691 0.6601572570878455	0.141798
H	0.3368461548960123 0.1089349524494651 0.7337988819918059	0.150564
H	0.4492597598268241 0.1030975066816744 0.8554554752622054	0.132680
H	0.4796150286671639 0.3338563382441637 0.7586996007142179	0.270338
H	0.7827017288434580 0.6811690031750185 0.4575946174381658	0.145576
H	0.8662632864442756 0.7253785438012614 0.3213429149580294	0.140229
H	0.8602770868866838 0.6012278698627663 0.3653535719481440	0.133793
H	0.8180186039770182 0.9546242110839510 0.2235397491423965	0.147603
H	0.7202803829724927 0.8732485518527875 0.1864937861459096	0.134055
H	0.7308167549178775 0.9725718707720069 0.0501575096993062	0.132341
H	0.6427705827445068 0.5649984560937712 0.2988723671581552	0.278820
H	0.6302231352064150 0.6388074825054502 0.6826693857160240	0.142998
H	0.6484084107979290 0.7603923759661901 0.7392431176761836	0.130291
H	0.5366870295201602 0.7027095854945870 0.7664574147194958	0.141156
H	0.9389474369954521 0.6659155711096686 0.6588246707806602	0.142105
H	0.8368101958954576 0.6101157570650806 0.7351773173157538	0.151257
H	0.9500583875641158 0.6045350676862065 0.8544838394436214	0.133712
H	0.9796431058088220 0.8351117083865589 0.7582465383631936	0.269323
N	0.8335992401426218 0.0996320405103064 0.8059898780080192	-0.149652
N	0.6020434044598758 0.3947717866051622 0.0656523893120917	-0.270968
N	0.8902693089356294 0.1049133454812371 0.9531549768246236	-0.271183
N	0.5729947948658266 0.3219102646942975 0.1604542327165256	-0.143742
N	0.3325566436718162 0.5998689975951412 0.8048654830896780	-0.149683
N	0.1023088630413198 0.8957377111330788 0.0667177790126515	-0.269385
N	0.3892151471259161 0.6049815417252367 0.9521824572658838	-0.272274
N	0.0731727509362122 0.8228097155713049 0.1612212188262725	-0.144791
N	0.1627420537360673 0.1039064117300332 0.1976205140619621	-0.149305
N	0.4008408545858505 0.3924859780021915 0.9369518520909552	-0.268264
N	0.1065516324511765 0.1086129816133352 0.0497789688213926	-0.273713
N	0.4305441139678802 0.3202482805638798 0.8428556950412820	-0.144654
N	0.6642225567560135 0.6035253993226311 0.1974164322419923	-0.149423
N	0.9013352070227997 0.8933529815837020 0.9374193101953475	-0.269692
N	0.6079891205277201 0.6081651333031174 0.0494182441450511	-0.273982
N	0.9311434163669295 0.8212296163185151 0.8431681510605841	-0.144387
Fe	0.4998594428067371 0.4774492544005794 0.5023181544047942	1.512864
Fe	-0.0002804685924962 0.9771658045165672 0.5028387048614793	1.511397
Co	0.4999207762187789 0.5072500042346320 0.0009549112139938	0.874105
Co	0.0000015644624258 0.0072593941379238 0.0016163754384267	0.871512
	  	
