#======================================================================

# CRYSTAL DATA

#----------------------------------------------------------------------

data_VESTA_phase_1


_pd_phase_name                         FeFFIVE_13_Co_i
_cell_length_a                         15.27928
_cell_length_b                         15.28574
_cell_length_c                         7.65550
_cell_angle_alpha                      89.97706
_cell_angle_beta                       89.46808
_cell_angle_gamma                      88.86633
_symmetry_space_group_name_H-M         P 1
_symmetry_Int_Tables_number            1

loop_
_symmetry_equiv_pos_as_xyz
   x, y, z

loop_
   _atom_site_label
   _atom_site_fract_x
   _atom_site_fract_y
   _atom_site_fract_z
   _atom_site_charge
C	0.5471690120241902 0.6860841976694224 0.8729547624896934	0.109806
C	0.5505544744481741 0.7768536451588535 0.8714103349509323	-0.152162
C	0.4604922431984782 0.3195065131100076 0.8790338383712717	0.105775
C	0.4572346558776261 0.2287444581707918 0.8827288756791147	-0.142777
C	0.8193386889299938 0.9645665315698461 0.3676198821413018	0.104181
C	0.7283623869375916 0.9629681141390116 0.3645124173978700	-0.135399
C	0.3198572854821775 0.5467674732148692 0.8542650369992469	0.106969
C	0.2287646230775108 0.5514931952753752 0.8525458185578288	-0.147780
C	0.1840626747933645 0.9747211437197937 0.3580660070618062	0.087838
C	0.2750513712978813 0.9723194434277002 0.3570108927892201	-0.135052
C	0.6869047609255651 0.4583095416181961 0.8892360178693157	0.107474
C	0.7777771595420162 0.4553277152441687 0.8879776979138901	-0.140531
C	0.4555202430094052 0.6869332315634654 0.1169257508206605	0.104389
C	0.4520289654309448 0.7778188565185911 0.1196649639361791	-0.137634
C	0.5460325721324480 0.3219231376250838 0.1294657031442351	0.104094
C	0.5498849951269830 0.2310093470543738 0.1366259273520752	-0.148547
C	0.1793408101994642 0.0279760726435499 0.6419824104157796	0.106739
C	0.2700879760031683 0.0300610864908380 0.6500691832677445	-0.136330
C	0.6830299086778034 0.5479495180242073 0.1341599507570219	0.111719
C	0.7738565313746872 0.5520034056634722 0.1373443379275214	-0.152265
C	0.8177722025164171 0.0305279754813685 0.6412193425150691	0.098031
C	0.7268164295164288 0.0325748614167710 0.6473337852188049	-0.133670
C	0.3188661851901731 0.4569866379953043 0.1001002798243296	0.109110
C	0.2281363673667913 0.4549252105805739 0.1023395597362083	-0.144032
C	0.9633669998748534 0.8180444231750972 0.6312982433071184	0.102301
C	0.9616493301268190 0.7271568159929919 0.6358149845153477	-0.134565
C	0.9767782657535830 0.1823988790681625 0.6429589314316408	0.086203
C	0.9753703827423231 0.2733256383109992 0.6454891144580318	-0.136831
C	0.0328887362397565 0.8165449892398130 0.3598628361832107	0.097403
C	0.0356302712334384 0.7256786100770081 0.3559879989382557	-0.131408
C	0.0293273085749844 0.1796318890199259 0.3574420933814312	0.106381
C	0.0319794590076550 0.2703892635253129 0.3503526596671845	-0.137846
C	0.0034003812217986 0.3183815633237393 0.4966751445285504	0.057185
C	0.0021599320753426 0.4146177782324502 0.4951445937416569	0.255024
C	0.5013062127472796 0.8235704092074424 0.9962417466246157	0.055821
C	0.5021865478968180 0.9196806133681638 0.0028874608101146	0.247423
C	0.9991787977420706 0.6797828108216398 0.4964230794634882	0.045674
C	0.0000225596084257 0.5834264980329315 0.4958692653879023	0.248317
C	0.5036852594873571 0.1837926072106261 0.0125025197832407	0.050248
C	0.5033622620121770 0.0876404460966156 0.0155025980374450	0.255740
C	0.6808843773436523 0.9978924383303165 0.5066009467226279	0.049914
C	0.5844766483503439 0.9974077237852306 0.5092467285335369	0.248421
C	0.1823275443670319 0.5041129368430702 0.9777063016402686	0.051998
C	0.0861316067365925 0.5050677489736323 0.9838765123958516	0.252628
C	0.3192017843494161 0.0004822788428785 0.5055720165482495	0.058460
C	0.4155019408130964 0.9986674392733406 0.5092039202713825	0.253301
C	0.8220231947526051 0.5041281945196219 0.0126668831773975	0.057167
C	0.9182411433175440 0.5049782482798523 0.0066653343555527	0.249180
H	0.5815301061790341 0.6461686806557712 0.7754298631757860	0.095948
H	0.5899499456193498 0.8103536847792396 0.7737322924817986	0.119173
H	0.4292864395146250 0.3571751097341373 0.7744153596978225	0.105607
H	0.4221689727528377 0.1931481761309928 0.7829570988261200	0.113298
H	0.8580108670148726 0.9386612095252778 0.2582792314849899	0.104005
H	0.6953751197899195 0.9360551162610057 0.2515675676262248	0.123751
H	0.3592637642095295 0.5793868601881769 0.7544994312126608	0.106388
H	0.1951175748110591 0.5903936206973204 0.7535430494769570	0.122131
H	0.1479824397138536 0.9560241879224860 0.2419927658992251	0.104962
H	0.3104276870884405 0.9501700545049229 0.2404407351401462	0.120054
H	0.6493875695308283 0.4261138686952347 0.7880426801525220	0.109941
H	0.8140578991541566 0.4192613984556099 0.7873439169051520	0.115322
H	0.4229355650393185 0.6483186259800898 0.2173945180746749	0.110737
H	0.4153176588186795 0.8127684030346041 0.2211591154028077	0.114591
H	0.5767682286215932 0.3619532249639143 0.2292988942014227	0.106991
H	0.5867257630443926 0.1980849466329815 0.2395043636879712	0.122225
H	0.1385493107783620 0.0471596441491893 0.7530521866667012	0.096945
H	0.3017919738622927 0.0523199059128365 0.7684763307884415	0.123546
H	0.6422507794610410 0.5815002784225533 0.2316320881653705	0.090539
H	0.8063431019217968 0.5907201847960867 0.2361192703866885	0.121069
H	0.8553171165434775 0.0546843407442356 0.7507935756991806	0.099866
H	0.6928091957092632 0.0594810486102345 0.7614676719828855	0.124789
H	0.3573752872891954 0.4238633741871138 0.2005384268454244	0.104220
H	0.1931302111162032 0.4192049093061527 0.2033092892786776	0.113449
H	0.9365287528710725 0.8566503124686059 0.7395368579971461	0.104567
H	0.9327779137436232 0.6942409563413391 0.7479865147943863	0.122440
H	0.9577242565889769 0.1456280316614524 0.7588813845241418	0.104103
H	0.9539430458940089 0.3080393275918521 0.7630396853368633	0.121957
H	0.0581892724158888 0.8539567114532575 0.2500863214355167	0.097305
H	0.0645243472588150 0.6915797543027288 0.2439623036579503	0.123614
H	0.0481462686098975 0.1396099232427508 0.2454710934860577	0.097195
H	0.0539641548940872 0.3029798783802282 0.2317117207219192	0.122209
N	0.9414167475797570 0.5427625595808117 0.5994383418898390	-0.156507
N	0.4245983777311750 0.0489570808057057 0.0174205642075615	-0.164766
N	0.5421730291703656 0.0556547487026238 0.6144042461559168	-0.152815
N	0.9604214844454314 0.4265311630958938 -0.0019033008969069	-0.155509
N	0.0587815461494172 0.5420030167879065 0.3901306633250494	-0.151459
N	0.5815010709827064 0.0447313772506343 0.0167151719746501	-0.156211
N	0.9573385491311249 0.5834059857859663 0.0036931196518960	-0.156627
N	0.5446661038959014 0.9374099866579242 0.4093848629328730	-0.159116
N	0.0599776049981134 0.4552030490456068 0.3902515943882104	-0.146516
N	0.5809513485924787 0.9582763201193155 0.0063829617205160	-0.155452
N	0.4577408902113640 0.9382520147564487 0.4094063348820669	-0.147334
N	0.0437993103315607 0.5834323108696714 0.9882067220917912	-0.152842
N	0.9424471169240809 0.4559554127991291 0.5984807763646469	-0.148397
N	0.4241519665788762 0.9622892582532793 0.0144516731338833	-0.154495
N	0.0469493299923252 0.4265619613652635 0.9898624459480382	-0.162657
N	0.4552884206909215 0.0561353863728576 0.6142483104469793	-0.149516
N	0.0021580074630263 0.1362948848109305 0.5006464338227775	-0.186889
N	0.5016106794386818 0.6420254464541792 0.9945084066412399	-0.248009
N	0.9984490799009983 0.8619442009891747 0.4957534883218873	-0.185402
N	0.5029998835829084 0.3649423891156562 0.0016554819367059	-0.251637
N	0.8632169809322450 -0.0021593888613342 0.5035245087727127	-0.177671
N	0.3636944147654421 0.5013007668742633 0.9774713081473512	-0.247161
N	0.1369747831619645 0.0007924904169014 0.4990214463963521	-0.177466
N	0.6404513642320310 0.5032195045867415 0.0111749434276875	-0.248083
Co	-0.0000535375793916 0.9985778788523210 0.4999161794078071	0.663543
Co	0.5017240204735499 0.5033170835343337 0.9948273520337447	0.851035
Fe	0.9896689509983095 0.9871787841349804 0.0009155225904077	1.506585
Fe	0.4914316033519879 0.4949644907237677 0.4971756589834906	1.535000
F	-0.0002127256617753 0.0005667232991850 0.2494659252613451	-0.541534
F	0.5182339375575492 0.5036297785363751 0.7372511193866740	-0.574365
F	0.0004890461397236 0.9968898359369256 0.7505082464226914	-0.542066
F	0.4833344324219648 0.5052114456158047 0.2528002442461439	-0.574359
F	0.9067378795402808 0.9028634234831554 0.0014959182810425	-0.559766
F	0.4066366376334763 0.4110301063494011 0.5185419540384768	-0.595295
F	0.9294368415992162 0.0921340226659979 -0.0029426172815155	-0.575636
F	0.4328332500140439 0.6012970888464589 0.5173998111172067	-0.612033
F	0.0957830490225878 0.9291752504419266 0.0015147262957599	-0.575489
F	0.5968343952908376 0.4355847912849545 0.4676692272781272	-0.614104
	  	
