#======================================================================

# CRYSTAL DATA

#----------------------------------------------------------------------

data_VESTA_phase_1


_pd_phase_name                         FeFFIVE_3_Cd
_cell_length_a                         15.08126
_cell_length_b                         15.08153
_cell_length_c                         8.22959
_cell_angle_alpha                      90.00061
_cell_angle_beta                       90.00033
_cell_angle_gamma                      90.76021
_symmetry_space_group_name_H-M         P 1
_symmetry_Int_Tables_number            1

loop_
_symmetry_equiv_pos_as_xyz
   x, y, z

loop_
   _atom_site_label
   _atom_site_fract_x
   _atom_site_fract_y
   _atom_site_fract_z
   _atom_site_charge
C	0.2566300332959318 0.4550805214075810 0.6317078249227076	0.057352
C	0.2355539224335045 0.0483842150479599 0.6454641204668810	0.062365
C	0.2365256106636260 0.4557807764493733 0.3530987270463745	0.051733
C	0.2569647321242116 0.0474670499795333 0.3676687191722598	0.057815
C	0.0474564558624920 0.2569822845332150 0.3676532266713396	0.058107
C	0.4557756240840271 0.2365351317599769 0.3531059654885120	0.051912
C	0.4550722853319007 0.2566348493366429 0.6317088733621838	0.057270
C	0.0483692433247460 0.2355677322042067 0.6454507418314197	0.062508
C	0.9557749175830661 0.2365399489826146 0.6468959009618030	0.051935
C	0.5474590609148340 0.2569747095329425 0.6323500648012895	0.058113
C	0.5483778173202193 0.2355598777633388 0.3545496182174475	0.062432
C	0.9550734884395106 0.2566354275680250 0.3682736126145983	0.057002
C	0.7355657209307014 0.0483722490909903 0.3545613324223942	0.062565
C	0.7566286922323161 0.4550654194579742 0.3682848142623114	0.057137
C	0.7569664749368857 0.0474469848647144 0.6323517129886321	0.058271
C	0.7365323479330108 0.4557608529619526 0.6468951804468778	0.051802
C	0.4557688529551623 0.7365374065398647 0.6469117347002590	0.051820
C	0.0474583181738962 0.7569779676413561 0.6323460583452883	0.058220
C	0.0483774806313127 0.7355603810281868 0.3545685955215689	0.062510
C	0.4550671319986804 0.7566343214001731 0.3683187096369056	0.057341
C	0.2355536198206125 0.5483827264654006 0.3545434357632282	0.062463
C	0.2566275218414952 0.9550788531341401 0.3683049981435952	0.055023
C	0.2569752797569030 0.5474641645893096 0.6323406674917349	0.057924
C	0.2365340789036394 0.9557781835205508 0.6469013998272861	0.051756
C	0.7566294879640442 0.9550680967986590 0.6317060432413164	0.057160
C	0.7355576291022005 0.5483557007153660 0.6454524678991584	0.062573
C	0.7365361690892883 0.9557774260963358 0.3531057089716166	0.051741
C	0.7569737526003552 0.5474453693179707 0.3676699602121836	0.058117
C	0.5474637857578187 0.7569760315318974 0.3676856836055171	0.058106
C	0.9557665534516165 0.7365348723528475 0.3531185432770742	0.051853
C	0.9550636232080836 0.7566396376968891 0.6317084897419538	0.057712
C	0.5483832781467753 0.7355654919568551 0.6454705093838508	0.062540
H	0.2628317711688846 0.4169022221750349 0.7436944755566052	0.117625
H	0.2246892847842118 0.0863916179301824 0.7566986300134797	0.115322
H	0.2288184870816455 0.4188499142632611 0.2392887499612456	0.120013
H	0.2646295177432212 0.0853912281922265 0.2556722046063111	0.114093
H	0.0853837704158220 0.2646510630574671 0.2556597569777844	0.113968
H	0.4188452594107344 0.2288295278067166 0.2393042212862065	0.119950
H	0.4168902642023414 0.2628305691486472 0.7436844332196427	0.117669
H	0.0863860474799895 0.2246977046564617 0.7566821790888002	0.115260
H	0.9188392307589063 0.2288334637057754 0.7607027434942157	0.119946
H	0.5853765209265313 0.2646425770075446 0.7443501131914670	0.113949
H	0.5863868205505912 0.2246922091521484 0.2433216605114796	0.115318
H	0.9168943173759619 0.2628262246140234 0.2562916305240669	0.117723
H	0.7247062028135547 0.0863869067364527 0.2433320326011523	0.115229
H	0.7628224386420528 0.4168890145788203 0.2562996069201495	0.117668
H	0.7646273336443985 0.0853681530783350 0.7443538827471889	0.113967
H	0.7288236853692537 0.4188265937576126 0.7606997913667044	0.120107
H	0.4188420968190820 0.7288302582708603 0.7607178170266790	0.119977
H	0.0853801399485322 0.7646409959783634 0.7443524095709269	0.113928
H	0.0863854006730275 0.7246910455167852 0.2433317073862817	0.115254
H	0.4168924894527428 0.7628306780111720 0.2563300064019149	0.117600
H	0.2246867097412914 0.5863935852093124 0.2433092071841794	0.115392
H	0.2628313812121930 0.9169035074758891 0.2563201679893615	0.120880
H	0.2646437295672001 0.5853873337432489 0.7443425212543836	0.114008
H	0.2288290568879895 0.9188508977292045 0.7607075506168341	0.120006
H	0.7628293581639193 0.9168837154467904 0.7436791059034232	0.117633
H	0.7246878476916657 0.5863630101245793 0.7566878014920644	0.115180
H	0.7288316538588567 0.9188453383627220 0.2393023900988681	0.120072
H	0.7646420220682258 0.5853736819749206 0.2556814670243963	0.113929
H	0.5853819644101290 0.7646455852332691 0.2556831066480655	0.113923
H	0.9188431221137252 0.7288248210246626 0.2393020934072752	0.119892
H	0.9168928110869677 0.7628438230935761 0.7436981969060444	0.117282
H	0.5863893187094934 0.7247038344272219 0.7567120257354244	0.115269
Cd	0.2514190783353545 0.2514206877830576 0.4954396934042000	0.829850
Cd	0.7514370028416479 0.2514242253243301 0.5045468496862492	0.829801
Cd	0.2514194845519174 0.7514152478468241 0.5045625286508292	0.829754
Cd	0.7514071706054624 0.7514120475232221 0.4954052784978560	0.829660
Fe	0.2534181647820088 0.2533960876383842 -0.0059984975578362	1.505176
Fe	0.7533971032477598 0.2533938270951089 0.0059718203552930	1.504941
Fe	0.2533737514617634 0.7534364783732315 0.0059893632814013	1.505294
Fe	0.7534331059267250 0.7533298986621197 -0.0060329283896477	1.505342
F	0.2683962899530422 0.2683071821852469 0.7599744446590668	-0.576205
F	0.2385383473352347 0.2384667029433339 0.2283838305789746	-0.580265
F	0.1670488984366279 0.1671792357989218 -0.0464040975979319	-0.586007
F	0.2217176238722508 0.3716477814557255 0.0111787188475401	-0.584834
F	0.3716822382758196 0.2216469985369611 0.0111301927930021	-0.584923
F	0.7385399473567745 0.2384908436613964 0.7715492885592121	-0.580341
F	0.7684228758623174 0.2684335447615061 0.2399888327409193	-0.576139
F	0.6670223474688224 0.1672016692803542 0.0463629403388331	-0.585874
F	0.7216602043559813 0.3716333638341391 -0.0112405656764601	-0.584771
F	0.8716448132932814 0.2216304613421068 -0.0111970259246189	-0.584822
F	0.2384103107431429 0.7385302311789009 0.7715792450557798	-0.580268
F	0.2683463932482374 0.7684302439433307 0.2400237009773591	-0.576728
F	0.1671953003902464 0.6670612580344004 0.0465321404899619	-0.585927
F	0.2216145151960257 0.8716832359748656 -0.0112979987028980	-0.585193
F	0.3716166561128353 0.7216753762310824 -0.0111976396099102	-0.584865
F	0.7683641169020610 0.7683399180876318 0.7599384400096265	-0.576092
F	0.7385330316155009 0.7383953395142492 0.2283697935136067	-0.580245
F	0.6670765443351344 0.6671104242761179 -0.0464368914514081	-0.586022
F	0.7216892162513043 0.8715713451506992 0.0113085791660364	-0.584909
F	0.8717106995339405 0.7216484613335320 0.0111007857342229	-0.584943
N	0.4098287482876718 0.2473486284909948 0.4916190978691735	-0.203485
N	0.0935125317868318 0.2467402884077243 0.5060207274553983	-0.204594
N	0.2473397087465878 0.4098314807113619 0.4916146654139608	-0.203372
N	0.2467227211510486 0.0935274633803849 0.5060334336261308	-0.204474
N	0.9098347082184371 0.2473459707217087 0.5083706923708904	-0.203300
N	0.5935178951405823 0.2467320382980909 0.4939861528367009	-0.204662
N	0.7473410842895954 0.4098277663519670 0.5083735228642142	-0.203440
N	0.7467329193764305 0.0935052905501012 0.4939923044248339	-0.204643
N	0.4098276375002818 0.7473432837314188 0.5083980044426764	-0.203280
N	0.0935126616742057 0.7467322927077437 0.4939922496978380	-0.204630
N	0.2473447067668650 0.9098300166095936 0.5083879834789030	-0.203452
N	0.2467313640327282 0.5935279035104736 0.4939779416326574	-0.204540
N	0.9098262093843922 0.7473488369531871 0.4916233297359586	-0.203398
N	0.5935131509833060 0.7467352242192963 0.5060444519119164	-0.204524
N	0.7473441682766819 0.9098321353594153 0.4916146743166886	-0.203374
N	0.7467318995071857 0.5934938410156794 0.5060329453407003	-0.204487
	  	
