#======================================================================

# CRYSTAL DATA

#----------------------------------------------------------------------

data_VESTA_phase_1


_pd_phase_name                         FeFFIVE_5_Cd_i
_cell_length_a                         20.37122
_cell_length_b                         20.37114
_cell_length_c                         16.45274
_cell_angle_alpha                      90.00191
_cell_angle_beta                       90.00216
_cell_angle_gamma                      89.74791
_symmetry_space_group_name_H-M         P 1
_symmetry_Int_Tables_number            1

loop_
_symmetry_equiv_pos_as_xyz
   x, y, z

loop_
   _atom_site_label
   _atom_site_fract_x
   _atom_site_fract_y
   _atom_site_fract_z
   _atom_site_charge
F	0.2909119521526305 0.1555759509999033 0.3568821685943703	-0.599768
F	0.1646830873888065 0.2464042233327086 0.3493907152387142	-0.619273
F	0.3195209871474414 0.3073569610955052 0.3478193009907505	-0.618472
F	0.6925712165721455 0.6805525950133848 0.1521904109052875	-0.618146
F	0.7535356049378286 0.8353842528896278 0.1505727786328805	-0.618870
F	0.8444241039847904 0.7091716295770409 0.1431207012662218	-0.599446
F	0.6646257219459794 0.7463615478742478 0.6505672109302924	-0.619167
F	0.7909234179509672 0.6556330415502711 0.6431529993395322	-0.599822
F	0.8194197430956760 0.8074652720973889 0.6522859959609669	-0.618438
F	0.1924577645592519 0.1806430174419278 0.8476964340749876	-0.618374
F	0.3443262241878539 0.2089447066489059 0.8570231871499754	-0.599671
F	0.2537122966074404 0.3353512360860236 0.8494613235125612	-0.619001
F	0.2522582765863801 0.2512221522938611 0.4671254999464796	-0.577363
F	0.2550211281855153 0.2407957607393494 0.2344003776008683	-0.577170
F	0.7488396183098535 0.7477701717077744 0.0328859478565736	-0.577313
F	0.7592156084088635 0.7450315489526296 0.2655826721497785	-0.577093
F	0.7522451534994693 0.7512500665753935 0.5328973678538974	-0.577536
F	0.7548771109337301 0.7407644182222187 0.7656050981821807	-0.577213
F	0.2486482502687882 0.2477100195797410 0.9671224488027611	-0.577224
F	0.2592792219322814 0.2450704708301538 0.7344146472193936	-0.577156
N	0.3655585503487096 0.2484799513853090 0.6004328497604967	-0.238887
N	0.1348298969952901 0.2569074411634493 0.5996941316160627	-0.242552
N	0.2505619489449459 0.3655156400115105 0.6046991687802405	-0.241926
N	0.2440403940456291 0.1351339970151955 0.6013740355565068	-0.241996
N	0.6344822456274081 0.7494341834634439 0.8953127249700731	-0.241629
N	0.8648651661914963 0.7559559548751343 0.8986282561049704	-0.241893
N	0.7430889182931147 0.8651728931964493 0.9003096838094037	-0.242569
N	0.7515188121777807 0.6344495441150788 0.8995679062787503	-0.238879
N	0.6348251364247913 0.7569155067362697 0.4003096973229250	-0.242601
N	0.8655544111761998 0.7484836122020110 0.3995552373416124	-0.239139
N	0.7440354700775433 0.6351320359576762 0.3986498475937834	-0.242252
N	0.7505602489246558 0.8655163462931773 0.3952930679865405	-0.241779
N	0.3648805754817041 0.2559673325155507 0.1013482228567531	-0.242101
N	0.1344954352115968 0.2494459546212505 0.1047191717904899	-0.241271
N	0.2515198224243270 0.1344427369724103 0.1004362704902098	-0.238865
N	0.2430892968399284 0.3651699421134774 0.0996881883710883	-0.242593
C	0.3980903104180517 0.2269365249070474 0.6664855139273546	0.100210
C	0.4662424507551913 0.2258832775693512 0.6701148950166472	-0.179022
C	0.5028766769614628 0.2489368800269161 0.6038970545814830	0.102618
C	0.4680386949262899 0.2719505399262503 0.5359182129876023	-0.183908
C	0.3997901662910134 0.2704425922048616 0.5360808450527885	0.099699
C	0.5752733400372679 0.2492030732264829 0.6060316237512718	0.057506
C	0.6103696496911842 0.1947846836663520 0.6359589224096192	-0.131415
C	0.6786604026819963 0.1948657760204998 0.6373537006238942	-0.124996
C	0.7140478293919129 0.2499014483420672 0.6108497642881345	0.065454
C	0.6788559905357489 0.3046281987167410 0.5819710080525542	-0.120568
C	0.6106271722313825 0.3039603244358971 0.5785715750364668	-0.128977
C	0.1026089861503265 0.2768979280061521 0.6666067711604354	0.100134
C	0.0344935387258691 0.2767396637516710 0.6716869426638217	-0.183648
C	-0.0024459114791877 0.2536116087733955 0.6056553556838692	0.107995
C	0.0320239775643649 0.2327367156161071 0.5363675027037655	-0.180099
C	0.1002357622766990 0.2358239384902031 0.5351471778486357	0.102881
C	0.9252165897305602 0.2519262755576300 0.6085815438705644	0.053563
C	0.8894194923395152 0.3059746560856667 0.6382623514978364	-0.130728
C	0.8211316159065014 0.3053110233647425 0.6388122258633069	-0.124863
C	0.7864253104198452 0.2500023152926366 0.6116665880219930	0.068721
C	0.8223114325766760 0.1954063305179776 0.5836956636076872	-0.120784
C	0.8906146657216317 0.1966676033644801 0.5811834547029402	-0.127973
C	0.2713405839054471 0.3982029635839850 0.6708568440493321	0.102802
C	0.2733101192154233 0.4664446189744321 0.6732916475936858	-0.179915
C	0.2515404643412619 0.5029328814228515 0.6060756139798498	0.107360
C	0.2290838765765588 0.4679111286836106 0.5380741706427271	-0.185394
C	0.2300874104109255 0.3996965866866012 0.5394585681359035	0.099213
C	0.2514591491229545 0.5753485759335255 0.6072323448221465	0.054361
C	0.3058763787716003 0.6102412534962112 0.6366573776930021	-0.130735
C	0.3056337932918174 0.6785650997805307 0.6374864931994088	-0.125555
C	0.2504086632207143 0.7141778304104164 0.6109127770907079	0.069150
C	0.1957327694777762 0.6791731536393856 0.5823771116745439	-0.121658
C	0.1965911006502099 0.6109044908615883 0.5795246164436024	-0.128559
C	0.2229951914425084 0.1031197988237080 0.6679578871978850	0.099582
C	0.2227715540072448 0.0349465176277387 0.6723690883558426	-0.180420
C	0.2463125923651327 -0.0021900760589218 0.6066065157112036	0.100815
C	0.2683722860211764 0.0321666770351561 0.5380135621996383	-0.179922
C	0.2659569300782743 0.1003742184957656 0.5372297689914496	0.097847
C	0.2477965037557940 0.9254154106181088 0.6090760277322526	0.057319
C	0.1938381755088829 0.8898816921342553 0.6385756315305132	-0.131674
C	0.1947066163979091 0.8215919828217071 0.6388519665224298	-0.124441
C	0.2500499916212568 0.7865701983366538 0.6115920595517285	0.066127
C	0.3044745552857827 0.8221848033968030 0.5835852374162132	-0.122084
C	0.3030678662007633 0.8904716240435673 0.5813720803471171	-0.127889
C	0.6017958133923242 0.7286602760802483 0.8291555633081422	0.102647
C	0.5335521823189809 0.7266874499078712 0.8267175049982640	-0.179780
C	0.4970656501075836 0.7484528884017733 0.8939316405880405	0.107628
C	0.5320843509132607 0.7709079760921018 0.9619351890380777	-0.185452
C	0.6002994867911168 0.7699034057795486 0.9605529726073420	0.098856
C	0.4246535784289076 0.7485345243716938 0.8927730351831009	0.054189
C	0.3897572373946263 0.6941189567538087 0.8633463095339805	-0.130830
C	0.3214338592557025 0.6943648576484615 0.8625149450410268	-0.125456
C	0.2858243687277330 0.7495897856887432 0.8890913744177441	0.069133
C	0.3208276091335889 0.8042621139522604 0.9176244787843926	-0.121417
C	0.3890977866321393 0.8034024460792570 0.9204793673454242	-0.128370
C	0.8968801313899971 0.7769961982967892 0.8320441407324942	0.099396
C	0.9650547063878059 0.7772223634210182 0.8276318991409253	-0.180226
C	0.0021927167269262 0.7536838878580303 0.8933899766066727	0.100922
C	0.9678364235513800 0.7316279525987410 0.9619853808052978	-0.179901
C	0.8996292746902954 0.7340458721288874 0.9627704967608567	0.097813
C	0.0745842001009990 0.7521971212904293 0.8909188595302404	0.057414
C	0.1101206736838110 0.8061561870532443 0.8614176716467234	-0.131628
C	0.1784111388863323 0.8052888469915339 0.8611449778888288	-0.124343
C	0.2134323830423683 0.7499464727704978 0.8884034896362772	0.066251
C	0.1778185179231422 0.6955248835661517 0.9164127165936101	-0.121987
C	0.1095310986131482 0.6969302740214195 0.9186248631892802	-0.128085
C	0.7230997084666917 0.8973929030740766 0.8333990942016587	0.099969
C	0.7232615973043618 0.9655091013410659 0.8283116708525341	-0.183448
C	0.7463893973960084 0.0024492856203531 0.8943363026927298	0.108172
C	0.7672636307993651 0.9679838758894336 0.9636250743408715	-0.180296
C	0.7641761962209314 0.8997712412513265 0.9648498956127121	0.102946
C	0.7480754095850933 0.0747828610061820 0.8914071253621950	0.053703
C	0.6940272061836035 0.1105820578296198 0.8617277747428744	-0.130742
C	0.6946900172526220 0.1788692895688001 0.8611839856526630	-0.124874
C	0.7499971353899600 0.2135765863168770 0.8883301519345445	0.068700
C	0.8045937670210974 0.1776895173546072 0.9162984521161519	-0.120685
C	0.8033342612303714 0.1093881353769279 0.9188068248960664	-0.128052
C	0.7730634278731331 0.6019129396219438 0.8335171511113734	0.100152
C	0.7741157665349162 0.5337613776098320 0.8298900180437937	-0.178938
C	0.7510609615147311 0.4971269215018828 0.8961011632420277	0.102597
C	0.7280442981212145 0.5319638847532957 0.9640775040307098	-0.183897
C	0.7295535966426142 0.6002142356942386 0.9639134418762383	0.099699
C	0.7507953793089813 0.4247315281084024 0.8939698941393533	0.057604
C	0.8052102445738838 0.3896330118961400 0.8640375688186278	-0.131293
C	0.8051284162007327 0.3213428054677587 0.8626407444558990	-0.125295
C	0.7500971009695139 0.2859539691097055 0.8891470460970241	0.065812
C	0.6953709760715139 0.3211461202014420 0.9180276318135346	-0.120556
C	0.6960400477912612 0.3893736311948682 0.9214282963155085	-0.129007
C	0.6026009949650039 0.7768988593016830 0.3334019461612227	0.099941
C	0.5344846660899605 0.7767364309502782 0.3283104795024437	-0.183546
C	0.4975487717974996 0.7536079041380354 0.3943394452399897	0.108314
C	0.5320194749984719 0.7327391624798572 0.4636218134421699	-0.180323
C	0.6002306162902292 0.7358262797123413 0.4648525613037903	0.103027
C	0.4252148847323615 0.7519244520584781 0.3914046240359127	0.053720
C	0.3894124755486890 0.8059706952055883 0.3617277114841504	-0.131051
C	0.3211274749487555 0.8053069110378647 0.3611858549098355	-0.124743
C	0.2864209498039399 0.7500004301716112 0.3883329148343802	0.068655
C	0.3223103780941130 0.6954069753761573 0.4162985337238356	-0.120514
C	0.3906129365374655 0.6966670189345794 0.4188060686083943	-0.128090
C	0.8980851676784372 0.7269373235668637 0.3334995736891578	0.100323
C	0.9662368135257217 0.7258845763192301 0.3298759749053323	-0.178995
C	0.0028732206747238 0.7489396188424544 0.3960854010462103	0.102715
C	0.9680417651100999 0.7719573276224162 0.4640701061513418	-0.183776
C	0.8997909192122026 0.7704457587578157 0.4638997592011262	0.099685
C	0.0752704503870118 0.7492034846626857 0.3939639438227344	0.057272
C	0.1103649116207896 0.6947835273818860 0.3640353972322960	-0.131070
C	0.1786564972141440 0.6948662549354175 0.3626417729462385	-0.125183
C	0.2140440902635152 0.7498994662087546 0.3891475166687405	0.065650
C	0.1788550498443575 0.8046282848451488 0.4180262491666332	-0.120439
C	0.1106267498015817 0.8039595683981686 0.4214243748568213	-0.128804
C	0.7229945095681813 0.6031141788228637 0.3320676542904838	0.099534
C	0.7227708538131439 0.5349397771369969 0.3276444839982128	-0.180235
C	0.7463139398998979 0.4978022931085898 0.3934034467605020	0.100968
C	0.7683765190881768 0.5321573157628093 0.4619935909077028	-0.179828
C	0.7659600457828549 0.6003674174849903 0.4627886416051322	0.098122
C	0.7477991244305719 0.4254110665861884 0.3909211912642283	0.057324
C	0.6938403408073368 0.3898746537649503 0.3614176918201886	-0.131553
C	0.6947072187799217 0.3215842308905864 0.3611450472660265	-0.124369
C	0.7500522203372268 0.2865643078116923 0.3884045002912639	0.066204
C	0.8044757086368258 0.3221792039466468 0.4164127437035524	-0.121888
C	0.8030727729713850 0.3904674446514800 0.4186252358385299	-0.128087
C	0.7713383555899102 0.8982034603491020 0.3291350212629641	0.102741
C	0.7733087209671434 0.9664456693230080 0.3267069608502008	-0.179954
C	0.7515458813953126 0.0029318394117363 0.3939191533445151	0.107707
C	0.7290880899547486 0.9679139164194257 0.4619208368571005	-0.185503
C	0.7300917951232003 0.8997018445925766 0.4605287243309393	0.099070
C	0.7514630323926987 0.0753443370796466 0.3927718945476762	0.054289
C	0.8058779699618591 0.1102377007232072 0.3633444977133362	-0.130675
C	0.8056312456038819 0.1785615874489995 0.3625134604800248	-0.125684
C	0.7504099520938514 0.2141718579701263 0.3890887498703881	0.069201
C	0.6957361195527494 0.1791689636674882 0.4176237166483159	-0.121431
C	0.6965974852141574 0.1109016906732459 0.4204801560801920	-0.128370
C	0.3968932026234545 0.2770021705312550 0.1679383610788432	0.099622
C	0.4650668028262139 0.2772219538523094 0.1723638660576123	-0.180320
C	0.5022066890833001 0.2536835991414419 0.1066009026763105	0.100689
C	0.4678526750323328 0.2316246614511323 0.0380049379266998	-0.180021
C	0.3996410972955942 0.2340421348789349 0.0372048033289720	0.097973
C	0.5745992896869653 0.2522004327911734 0.1090835410207157	0.057451
C	0.6101293058065027 0.3061616510323458 0.1385838035026601	-0.131831
C	0.6784226844954986 0.3052942385702377 0.1388547548675689	-0.124330
C	0.7134412726604266 0.2499497878531247 0.1115900640380913	0.066152
C	0.6778272950561285 0.1955230421088756 0.0835892370401579	-0.122034
C	0.6095401561198278 0.1969283575687021 0.0813776733334988	-0.127977
C	0.1018077349700253 0.2286649385851394 0.1708760373698029	0.102551
C	0.0335651552589942 0.2266895874752780 0.1732951801687780	-0.179856
C	-0.0029204840155898 0.2484567024193314 0.1060820659908640	0.107304
C	0.0321030188598386 0.2709133195245746 0.0380815539203085	-0.185489
C	0.1003162142540580 0.2699090308937824 0.0394775857420455	0.098774
C	0.9246633465612952 0.2485406413518995 0.1072267716719526	0.054626
C	0.8897706144719606 0.1941238841509537 0.1366522332761934	-0.130983
C	0.8214470675130890 0.1943710180407228 0.1374805027460447	-0.125899
C	0.7858361059079881 0.2495930293757933 0.1109042556252608	0.068995
C	0.8208399759946596 0.3042666162553992 0.0823717369119042	-0.121376
C	0.8891083943899366 0.3034069474050572 0.0795196104045052	-0.128693
C	0.2730652814298231 0.1019102854373091 0.1664922398774787	0.100243
C	0.2741147844745790 0.0337583454261396 0.1701123090502324	-0.178970
C	0.2510616809968397 -0.0028755427895624 0.1038956210279545	0.102681
C	0.2280458465216282 0.0319618048585713 0.0359130426946685	-0.184228
C	0.2295537136063096 0.1002107665352664 0.0360875131079414	0.099690
C	0.2507907425818993 0.9247276789918940 0.1060186161380920	0.057488
C	0.3052078543296651 0.8896329129510225 0.1359557824139117	-0.131430
C	0.3051242388764878 0.8213424201613251 0.1373532292044882	-0.125079
C	0.2500901776317226 0.7859544555144224 0.1108440010379176	0.065483
C	0.1953620891184167 0.8211444884569621 0.0819610501474900	-0.120985
C	0.1960333541314611 0.8893729725057512 0.0785590637840451	-0.128898
C	0.2230990125357192 0.3973910267795711 0.1665951351345249	0.100093
C	0.2232566424051830 0.4655054802645224 0.1716853695447491	-0.183648
C	0.2463851458655354 0.5024462949757010 0.1056577468271918	0.108050
C	0.2672604183159227 0.4679762340964292 0.0363728623550771	-0.180193
C	0.2641777832285134 0.3997649307389596 0.0351449457677261	0.102878
C	0.2480676166137190 0.5747821408820885 0.1085914012097358	0.053607
C	0.1940207231047139 0.6105820575896812 0.1382675722341116	-0.130831
C	0.1946818535378120 0.6788676976127224 0.1388120891612956	-0.124998
C	0.2499885019863774 0.7135746427158687 0.1116629963405920	0.068931
C	0.3045833084741992 0.6776854757060132 0.0836992410457471	-0.120837
C	0.3033261974765501 0.6093835236491195 0.0811911883027991	-0.127955
H	0.3683664707963020 0.2115171819291675 0.7182537262127641	0.101487
H	0.4904947080638248 0.2089230859681553 0.7253336718545592	0.115228
H	0.4940113454591765 0.2895273142315263 0.4823242912105173	0.113632
H	0.3712055151682928 0.2865700990351095 0.4834307425698127	0.101263
H	0.5835413840834726 0.1517041992123130 0.6569147289459145	0.101033
H	0.7052240304317799 0.1522294594906471 0.6605821561150544	0.099709
H	0.7054730581883097 0.3473184721137758 0.5596627375154648	0.101789
H	0.5841228976392180 0.3467604982879481 0.5555618903929238	0.105285
H	0.1330228722203592 0.2927719275494728 0.7175412667793308	0.093929
H	0.0103283152888919 0.2927642491380791 0.7274305367672455	0.113753
H	0.0056752851887878 0.2157398824779677 0.4827176748557992	0.115374
H	0.1283246421088577 0.2227584353681326 0.4807595638604769	0.105840
H	0.9156487062268586 0.3494223142166873 0.6592904385164986	0.101113
H	0.7940323232180615 0.3478487941019575 0.6615087860989360	0.103278
H	0.7962243782648344 0.1524006447618741 0.5612317165059448	0.101451
H	0.9176861654161388 0.1540262135609867 0.5586967516258508	0.105006
H	0.2846422478696736 0.3685767364525229 0.7238427011243528	0.106395
H	0.2897607302902259 0.4910454664929130 0.7284682864771096	0.115099
H	0.2123534351707720 0.4937990335142602 0.4838237699412821	0.112437
H	0.2147275154114432 0.3706588345500534 0.4870742433316722	0.096234
H	0.3490919926969565 0.5832836259715388 0.6577059022562167	0.100732
H	0.3482828563417953 0.7049864067350889 0.6604089311083945	0.101494
H	0.1528554803913985 0.7059347953555283 0.5600595036615595	0.102315
H	0.1537905226138207 0.5845577508361485 0.5568747431372495	0.104570
H	0.2070622316593665 0.1333074896115016 0.7193210953837272	0.102650
H	0.2061198665807035 0.0109797999590275 0.7278156896663526	0.113652
H	0.2860188840344698 0.0058889782898514 0.4845605711917184	0.114691
H	0.2810840100597392 0.1280483710801819 0.4834922932735529	0.102464
H	0.1503762222979512 0.9163293066591761 0.6598424534079512	0.101748
H	0.1523500271387238 0.7946968404305367 0.6616050326491131	0.101282
H	0.3474940689724201 0.7958801718290964 0.5609951180101019	0.100814
H	0.3456028863508989 0.9173398828705644 0.5589286086105477	0.104906
H	0.6314235220763497 0.7153673206313933 0.7761650563932474	0.106436
H	0.5089533486475117 0.7102387595525014 0.7715347104310341	0.115185
H	0.5061965916950966 0.7876375590320315 0.0161858228515808	0.112608
H	0.6293332578279526 0.7852651966442281 0.0129406832007386	0.096358
H	0.4167156969887632 0.6509011331937297 0.8422994267190541	0.100803
H	0.2950153315155915 0.6517166309615490 0.8395963235790319	0.101587
H	0.2940718235322785 0.8471401084743446 0.9399415927942639	0.102349
H	0.4154476222249595 0.8462023887544050 0.9431311700602204	0.104551
H	0.8666914448817576 0.7929211604061296 0.7806785602366237	0.102716
H	0.9890125857915656 0.7938722931989743 0.7721791116133804	0.113730
H	0.9941140313557885 0.7139842058285892 0.0154404992239273	0.114844
H	0.8719544955777598 0.7189275087406970 0.0165164401172245	0.102430
H	0.0836725900475156 0.8496187742348807 0.8401527629979786	0.101741
H	0.2053012281261921 0.8476484009348856 0.8383943281066134	0.101421
H	0.2041209476420205 0.6525067768101406 0.9390036708965500	0.100899
H	0.0826660534674029 0.6543929759215310 0.9410708564207819	0.105011
H	0.7072238319411459 0.8669721678709991 0.7824694713631939	0.094006
H	0.7072343632461178 0.9896665427506939 0.7725600219161645	0.113776
H	0.7842620206336649 0.9943309986650616 0.0172782451962248	0.115525
H	0.7772416219127054 0.8716810494762076 0.0192397284240731	0.105877
H	0.6505779702293149 0.0843525065754019 0.8407010933109639	0.101187
H	0.6521511299960674 0.2059664311126274 0.8384892164674144	0.103395
H	0.8476004445219056 0.2037763710693616 0.9387650814496090	0.101561
H	0.8459761121519653 0.0823163224166433 0.9412949278788595	0.105113
H	0.7884807369784409 0.6316344724269506 0.7817403246268770	0.101566
H	0.7910767037869907 0.5095084627986273 0.7746675547449212	0.115411
H	0.7104647614245796 0.5059944494085367 0.0176763834769549	0.113818
H	0.7134205876999981 0.6287989621047316 0.0165642317445768	0.101187
H	0.8482913521125262 0.4164621849768099 0.8430816336408530	0.101097
H	0.8477655376890371 0.2947833195740083 0.8394102341764257	0.099829
H	0.6526822521409479 0.2945320799817168 0.9403331082412707	0.101934
H	0.6532401843800686 0.4158787210238949 0.9444378314410297	0.105372
H	0.6330170323981635 0.7927762555204021 0.2824708200563700	0.093979
H	0.5103235010080112 0.7927587291496314 0.2725634361974670	0.113830
H	0.5056777989140636 0.7157399331087526 0.5172759786026718	0.115472
H	0.6283222708170388 0.7227620743114840 0.5192415654631893	0.105867
H	0.4156416467680241 0.8494181277027811 0.3407006507581089	0.101267
H	0.2940271426977553 0.8478443170881546 0.3384918555227894	0.103436
H	0.2962250489259663 0.6524017612917865 0.4387672886312053	0.101472
H	0.4176856738635933 0.6540270386485220 0.4412931104601597	0.105099
H	0.8683628299736899 0.7115182676681840 0.2817247218394428	0.101430
H	0.9904864367192567 0.7089184219685424 0.2746531711869847	0.115465
H	0.9940159827076341 0.7895338563858315 0.5176656889183217	0.113747
H	0.8712074107800823 0.7865772214817734 0.5165513401902445	0.101355
H	0.0835345976427495 0.6517022698908691 0.3430799442819853	0.101022
H	0.2052144973752148 0.6522285353110238 0.3394094362887656	0.099801
H	0.2054696791378521 0.8473189891203842 0.4403298656635901	0.101877
H	0.0841236432936963 0.8467613357880573 0.4444334259134636	0.105273
H	0.7070634698984841 0.6333015578905797 0.2806997081982446	0.102568
H	0.7061218158137298 0.5109777595176743 0.2721896606714199	0.113791
H	0.7860312448952322 0.5058795060778460 0.5154478505501072	0.114846
H	0.7810857975143783 0.6280437114777496 0.5165304538119180	0.102297
H	0.6503744189984501 0.4163210478528245 0.3401551196842663	0.101775
H	0.6523458088671529 0.2946900053619350 0.3383955168234646	0.101424
H	0.8474951430001976 0.2958758782965837 0.4390038680720917	0.100858
H	0.8456085153712882 0.4173325668835461 0.4410702202234836	0.105010
H	0.7846297265678632 0.8685750744457041 0.2761480410372277	0.106379
H	0.7897598460998099 0.9910449411434741 0.2715276544287156	0.115260
H	0.7123574879327036 0.9938046296717864 0.5161709159326060	0.112616
H	0.7147281420694052 0.8706624817424277 0.5129119029528244	0.096250
H	0.8490929190424669 0.0832781197155034 0.3422956765979510	0.100767
H	0.8482784865754084 0.2049797110184837 0.3395909754162701	0.101627
H	0.6528610070773799 0.2059293620593671 0.4399390767696659	0.102374
H	0.6537974964062956 0.0845539940018617 0.4431306801825242	0.104554
H	0.3667059125794591 0.2929229990456621 0.2193061386558974	0.102567
H	0.4890298478951535 0.2938692160941003 0.2278163612347142	0.113582
H	0.4941322818437745 0.2139741455273220 0.9845514769486792	0.114577
H	0.3719696510082482 0.2189145080408255 0.9834614501251395	0.102454
H	0.5836832996941284 0.3496245422668653 0.1598485290375924	0.101820
H	0.7053148194870237 0.3476569011098264 0.1615992209876883	0.101250
H	0.7041328902795231 0.1525031779325439 0.0609977705563299	0.100773
H	0.5826724683289631 0.1543898377238360 0.0589406537477454	0.104876
H	0.1314299015993166 0.2153710799189440 0.2238663839356633	0.106298
H	0.0089634044383176 0.2102346259658336 0.2284689329209471	0.114983
H	0.0062135551605666 0.2876381598945189 0.9838331947441550	0.112487
H	0.1293540231698410 0.2852617122023048 0.9870918590556731	0.096154
H	0.9167298423533283 0.1509111840782875 0.1577010521310440	0.100806
H	0.7950278730918928 0.1517250290766499 0.1604059594406397	0.101606
H	0.7940757557287728 0.3471421706555228 0.0600565866826662	0.102200
H	0.9154535369364014 0.3462068956774184 0.0568687819257289	0.104587
H	0.2884868057603103 0.1316286775398122 0.2182678162716808	0.101456
H	0.2910704923260744 0.0095052014443525 0.2253350598469808	0.115177
H	0.2104690179711069 0.0059876974834046 0.9823175426432219	0.113713
H	0.2134197216149189 0.1287995964659137 0.9834445547980930	0.101281
H	0.3482891183990037 0.9164627655217867 0.1569142997560608	0.101043
H	0.3477604397968868 0.7947799177252288 0.1605855737892833	0.099702
H	0.1526710181380532 0.7945274403327849 0.0596575299439273	0.101971
H	0.1532328365257986 0.9158781765774485 0.0555458892015950	0.105254
H	0.2072163069596181 0.3669742366378445 0.2175238117884455	0.093969
H	0.2072323879240041 0.4896667920683073 0.2274332636049483	0.113612
H	0.2842587608917802 0.4943214245834308 0.9827235637425519	0.115258
H	0.2772435504252961 0.3716764338137373 0.9807572234976162	0.105845
H	0.1505748177824047 0.5843536767455331 0.1593000927491886	0.101124
H	0.1521444903075294 0.7059692894870976 0.1615038179149921	0.103284
H	0.3475873053481294 0.7037744925603024 0.0612307199867521	0.101363
H	0.3459675273991897 0.5823116557935113 0.0587056359192053	0.104991
Cd	0.2503963909482938 0.2498308561682273 0.6008410592266549	0.830166
Cd	0.7501704264291351 0.7496126132064183 0.8991640266619824	0.830281
Cd	0.7503832863960092 0.7498309182552412 0.3991743217322304	0.830468
Cd	0.2501835304068292 0.2496063464641030 0.1008294553517533	0.830145
Fe	0.2568275133481142 0.2404606446895241 0.3512055355568551	1.526530
Fe	0.7595224349465768 0.7432328266737346 0.1487917620141736	1.526960
Fe	0.7567771976796780 0.7405025976349140 0.6488072404432202	1.526129
Fe	0.2595088405310271 0.2432117845408098 0.8512196857322960	1.525999
	  	
