#======================================================================

# CRYSTAL DATA

#----------------------------------------------------------------------

data_VESTA_phase_1


_pd_phase_name                         FeFFIVE_18_Fe
_cell_length_a                         13.70091
_cell_length_b                         13.91729
_cell_length_c                         8.19776
_cell_angle_alpha                      89.97762
_cell_angle_beta                       94.81261
_cell_angle_gamma                      90.32410
_symmetry_space_group_name_H-M         P 1
_symmetry_Int_Tables_number            1

loop_
_symmetry_equiv_pos_as_xyz
   x, y, z

loop_
   _atom_site_label
   _atom_site_fract_x
   _atom_site_fract_y
   _atom_site_fract_z
   _atom_site_charge
F	0.5015044912779146 0.3349514487313666 0.5042589901139342	-0.574655
F	0.5240242536681642 0.4799347918543138 0.7360992202630624	-0.557518
F	0.3750119168099051 0.5218230871706392 0.5202553271593588	-0.557579
F	0.0007733231081855 0.8345544860003853 0.5043058845761845	-0.573948
F	0.0238839595335305 0.9795284623988090 0.7363087802853439	-0.556701
F	0.8747457467821070 0.0223523782070929 0.5210074518803222	-0.557640
F	0.6255880421570470 0.5257546559747194 0.4843932352247070	-0.556978
F	0.4785100514887287 0.4783303632094458 0.2694352583711186	-0.559632
F	0.1254651502084993 0.0257386361152294 0.4847018267955471	-0.557344
F	0.9784431707013794 0.9780050841444876 0.2696567730354260	-0.558980
C	0.6879471626750320 0.1686586257079102 0.6626685197651677	-0.422167
C	0.7592779826779851 0.1564281905442352 0.8082585734076584	0.199333
C	0.7651226000157541 0.1996596438501551 0.9630474922116483	-0.149951
C	0.6950020455908029 0.2661134131105199 0.0246962321142978	-0.148391
C	0.6772224882595798 0.3630863937656119 0.9786317798375515	0.217514
C	0.7326252695164356 0.4234708595253422 0.8675726703497629	-0.428907
C	0.8902090202426434 0.1860890050205637 0.2187479423831850	-0.432818
C	0.8504946673516249 0.1619641872306606 0.0489678610878120	0.211584
C	0.6284210742990820 0.2447494861179007 0.1405158109943310	0.208784
C	0.6095370329102587 0.1541624287968180 0.2293310762956112	-0.428949
C	0.1882393388959659 0.6693698128061616 0.6620526963627034	-0.421643
C	0.2594579358322883 0.6565208405333689 0.8075453305910975	0.199216
C	0.2652930391724165 0.6996198712836758 0.9624684562919437	-0.150516
C	0.1953349524528009 0.7661428653937619 0.0243422697339796	-0.148873
C	0.1774776900442535 0.8630883456332421 0.9781965419623104	0.218115
C	0.2326666435860698 0.9232336831923880 0.8664299045833261	-0.429902
C	0.3906289451370922 0.6860607640600183 0.2180184294367770	-0.434262
C	0.3506125017086610 0.6618741448931057 0.0483717280757371	0.213530
C	0.1287854404044861 0.7447886892032095 0.1402246101064104	0.208329
C	0.1095190781065170 0.6541778939950273 0.2287967540615716	-0.427804
C	0.3102460658923888 0.1711589379861062 0.3356457876501553	-0.423731
C	0.2380692888076367 0.1581687700129123 0.1913023093674922	0.201036
C	0.2340440516158072 0.1985782477660531 0.0343733771573453	-0.151430
C	0.3061113257158571 0.2637724538480980 0.9730976065538640	-0.146170
C	0.3259239364084104 0.3597537546296279 0.0243413109756148	0.218216
C	0.2700717033386887 0.4181614449902197 0.1365960681151919	-0.431673
C	0.1071971621138367 0.1872021114409647 0.7808420487423580	-0.433041
C	0.1470623022830738 0.1624264528854709 0.9502250500879612	0.215562
C	0.3732922013387439 0.2433969002498632 0.8582880324999318	0.208998
C	0.3911690064092987 0.1544684474778862 0.7646383825590984	-0.428464
C	0.8104058298879327 0.6705890133895622 0.3354601777130428	-0.425516
C	0.7381989318243825 0.6580089747118487 0.1909888402301071	0.201521
C	0.7340726330034952 0.6987607964727288 0.0343682061124321	-0.152397
C	0.8061018644311383 0.7639753972625575 0.9730608200373444	-0.146519
C	0.8259677997551873 0.8598789520276748 0.0244727135071731	0.219135
C	0.7697856822623322 0.9183979980264037 0.1360941763659318	-0.431693
C	0.6073883835870892 0.6874148555938061 0.7805798653682456	-0.433248
C	0.6470958276992365 0.6626839542036520 0.9500327436887536	0.216221
C	0.8733348052894246 0.7435858210081679 0.8583358944349199	0.210014
C	0.8908644512751371 0.6548162135157014 0.7641118740320040	-0.429147
H	0.7253336131507211 0.1892681030656386 0.5543647351098464	0.144417
H	0.6349023421899360 0.2249057528633841 0.6845379956792974	0.141246
H	0.6475162495854947 0.1015961803324220 0.6317879091823790	0.134596
H	0.6857183374186677 0.4512358935000369 0.7634664537672431	0.146013
H	0.7915067171048475 0.3809435252524438 0.8214320144579669	0.132653
H	0.7658162078457547 0.4856109104273559 0.9343850698350791	0.131974
H	0.8571564326384273 0.0575427405392589 0.7087883172230475	0.278308
H	0.8725700426474151 0.1304697784377225 0.3070453650107500	0.138193
H	0.8586413553433441 0.2542931259843171 0.2555366548778799	0.132842
H	0.9702559545897169 0.1933254391145630 0.2267089403353447	0.139677
H	0.5720027695040738 0.1686434255803008 0.3396859287314720	0.144888
H	0.6781578782146255 0.1164691724453062 0.2645738611934147	0.149424
H	0.5630159946397867 0.1051892471994025 0.1507950592921465	0.134645
H	0.5256529735695248 0.3394630373603611 0.2386158366317096	0.270150
H	0.2256467711469058 0.6897506237493060 0.5538128197018175	0.143818
H	0.1356373579441365 0.7258818374786182 0.6843891380474846	0.141732
H	0.1472423390731026 0.6026656589726320 0.6312588955916092	0.134630
H	0.1853086875445125 0.9506583192855921 0.7625142774233122	0.145391
H	0.2914495157435401 0.8806736114361133 0.8199562847173916	0.133445
H	0.2658007652360220 0.9856558597353875 0.9325716420972561	0.132337
H	0.3574194999442697 0.5576207953362003 0.7080854061337822	0.278540
H	0.3734705280138563 0.6303060331538970 0.3063320409659298	0.138329
H	0.3586529671157594 0.7539970977688620 0.2549242218706141	0.132735
H	0.4706303492399672 0.6937867068457673 0.2253167816340644	0.140575
H	0.0720443154166961 0.6687467849680838 0.3392766430716144	0.144127
H	0.1779182265058103 0.6160574686290259 0.2639212238199736	0.149553
H	0.0626681810146843 0.6054444868728851 0.1502876567053641	0.134863
H	0.0258556586962677 0.8393854091943787 0.2380228837434181	0.268724
H	0.2730987020899870 0.1832419275885716 0.4473778702122096	0.144894
H	0.3583482183700246 0.2328686348521921 0.3181330742770459	0.142506
H	0.3567212282727822 0.1073098242507943 0.3572228376980988	0.134699
H	0.3179728441931315 0.4530638980912910 0.2328372546978627	0.146606
H	0.2174913573668883 0.3719894590404962 0.1936623028639851	0.134705
H	0.2288641778468498 0.4747220532939592 0.0674977689127876	0.132915
H	0.1374877951212783 0.0622294650961879 0.2938794596389021	0.277545
H	0.1180206348153777 0.1291921814537836 0.6935048317010806	0.139036
H	0.1445719155980988 0.2519422303032345 0.7404860452774772	0.131622
H	0.0282840996967943 0.2015344883335417 0.7760382340926746	0.140177
H	0.4282162958669486 0.1716533820130740 0.6547087528380932	0.145143
H	0.3222339891100201 0.1170446662025768 0.7277059132451343	0.150829
H	0.4375763066589252 0.1040592313760852 0.8395060411619212	0.135011
H	0.4788728286857848 0.3385215946011609 0.7666331190742272	0.268671
H	0.7732437454577096 0.6836829700202591 0.4467706280850708	0.145327
H	0.8593429850016227 0.7315301706448067 0.3175443523670516	0.142561
H	0.8557335314637859 0.6061018617675670 0.3575830204504231	0.135859
H	0.8174279882973100 0.9533631321345643 0.2327040608232653	0.146234
H	0.7168290719337093 0.8722923569696268 0.1924622441889355	0.134338
H	0.7288471467329143 0.9748434634663669 0.0662391454398898	0.133659
H	0.6376601097323558 0.5620218350733794 0.2933264807162307	0.276789
H	0.6178685487551467 0.6292796147290359 0.6934086224313468	0.139331
H	0.6454154385275942 0.7517825792956783 0.7403236212498230	0.131035
H	0.5285838002726648 0.7024898910829694 0.7755755101159679	0.140046
H	0.9279996869572664 0.6720309468390916 0.6542061944630196	0.145310
H	0.8218245161302284 0.6176911897349195 0.7266048885823716	0.150848
H	0.9370716837993701 0.6040201302585415 0.8385262775572819	0.135297
H	0.9788283488208024 0.8387501657957011 0.7666120655402636	0.268386
N	0.8361171279523560 0.0961275237592444 0.8084984474016352	-0.148710
N	0.6028165434535995 0.3974071019541952 0.0587058525903186	-0.266038
N	0.8925559830456339 0.0987216140607641 0.9524261511602271	-0.262325
N	0.5753413964788403 0.3249325867329457 0.1559421149990984	-0.146507
N	0.3362558522027370 0.5961589009932896 0.8077464512430679	-0.149320
N	0.1031339245521379 0.8974663444359806 0.0583179128060626	-0.265405
N	0.3926494817660924 0.5987296981805430 0.9517047684233867	-0.262383
N	0.0756935154056678 0.8249585010384379 0.1555742035318108	-0.145734
N	0.1586104824443124 0.1006723325288092 0.1939448730531583	-0.149313
N	0.4020118987252854 0.3945899862325425 0.9482483904109965	-0.263992
N	0.1026703044085621 0.1018247763978916 0.0494065466438477	-0.264159
N	0.4287201530218541 0.3232863053321832 0.8484057230395071	-0.148082
N	0.6587772364794031 0.6003877704110203 0.1933094624524017	-0.148907
N	0.9020985185283871 0.8946782905123246 0.9485558149787846	-0.264236
N	0.6027225114985192 0.6018103699155716 0.0488787230980882	-0.264152
N	0.9288267817119561 0.8234330753272873 0.8486381696452431	-0.148314
Fe	0.5008363745085610 0.4696680330858256 0.5028851698268607	1.502978
Fe	0.0005107042401799 0.9692813708878992 0.5031258825115874	1.501658
Fe	0.4996136505193028 0.5018847880353915 0.0006680219194877	0.853668
Fe	-0.0002894121509006 0.0018784533696695 0.0012705051539271	0.853152
	  	
