#======================================================================

# CRYSTAL DATA

#----------------------------------------------------------------------

data_VESTA_phase_1


_pd_phase_name                         FeFFIVE_5_Zn_i
_cell_length_a                         19.99842
_cell_length_b                         19.99843
_cell_length_c                         15.75822
_cell_angle_alpha                      89.99986
_cell_angle_beta                       89.99990
_cell_angle_gamma                      89.97989
_symmetry_space_group_name_H-M         P 1
_symmetry_Int_Tables_number            1

loop_
_symmetry_equiv_pos_as_xyz
   x, y, z

loop_
   _atom_site_label
   _atom_site_fract_x
   _atom_site_fract_y
   _atom_site_fract_z
   _atom_site_charge
F	0.2874170490800473 0.1641230777463238 0.3516754158541034	-0.603417
F	0.1584022760956026 0.2635551277410064 0.3510485667756421	-0.613601
F	0.3091527128403335 0.3233028819854270 0.3508657037014169	-0.608728
F	0.6767027112937225 0.6908459777618251 0.1491333313468756	-0.608814
F	0.7364558636766654 0.8415954142557019 0.1489493594973864	-0.613630
F	0.8358852316880778 0.7125750758649696 0.1483229012133893	-0.603482
F	0.6584098231851900 0.7635794408089220 0.6489429728242264	-0.613642
F	0.7874040693562662 0.6641192207442614 0.6483263146486643	-0.603459
F	0.8091618832786632 0.8232948125196903 0.6491216992716888	-0.608726
F	0.1766988767197479 0.1908425578770539 0.8508700967101134	-0.608760
F	0.3358802274399452 0.2125962083625305 0.8516733748454941	-0.603461
F	0.2364247885792131 0.3415909528234842 0.8510418061726309	-0.613667
F	0.2497557468869274 0.2498417638794379 0.4731680216857929	-0.562951
F	0.2498367723320979 0.2494824266362227 0.2288933700917884	-0.564232
F	0.7501578978715349 0.7502416863510954 0.0268346135700702	-0.563000
F	0.7505228548615293 0.7501597571830179 0.2711076029656775	-0.564206
F	0.7497548774619235 0.7498398845893741 0.5268304981412791	-0.562966
F	0.7498354815930897 0.7494791351533205 0.7711055456912947	-0.564217
F	0.2501562956593417 0.2502426359123335 0.9731671644541258	-0.562984
F	0.2505176034483237 0.2501591497339709 0.7288932407093741	-0.564212
N	0.3580565883114586 0.2475397089953144 0.6004613749100083	-0.229519
N	0.1420905221961547 0.2524686352300746 0.6017169415912711	-0.225986
N	0.2525063453647035 0.3579244498381532 0.6010030490144804	-0.228239
N	0.2474929259975942 0.1419612785260082 0.6020129594261595	-0.229262
N	0.6420745814284479 0.7474937313405208 0.8989960618218096	-0.228093
N	0.8580396047932107 0.7525065006671330 0.8979852856504197	-0.229311
N	0.7475316807806422 0.8579101432539273 0.8982815472540903	-0.226013
N	0.7524602485333013 0.6419425260871984 0.8995371749447274	-0.229521
N	0.6420893281282278 0.7524683033284000 0.3982819744874348	-0.226067
N	0.8580580760411886 0.7475397357161487 0.3995375806912243	-0.229536
N	0.7474935913955680 0.6419594828651662 0.3979865227454307	-0.229284
N	0.7525058812691215 0.8579258371590561 0.3989962837802400	-0.228138
N	0.3580390932766800 0.2525063706593129 0.1020140201265054	-0.229206
N	0.1420748901239314 0.2474936439712873 0.1010044421656803	-0.228204
N	0.2524599836356915 0.1419432000230443 0.1004630631915804	-0.229563
N	0.2475311060654911 0.3579099156127997 0.1017183122403178	-0.226114
C	0.3909736178607922 0.2182407666437980 0.6650086097528728	0.100276
C	0.4603548685853501 0.2165926966546760 0.6688361563167653	-0.181999
C	0.4981419201576602 0.2470390996306082 0.6045169484136330	0.104443
C	0.4628588133485669 0.2775052848837293 0.5377685241578986	-0.187263
C	0.3933514235188279 0.2764697039807428 0.5376663091083371	0.101000
C	0.5718215916894324 0.2478150327465153 0.6079282852250703	0.055273
C	0.6077571903908082 0.1919922841726021 0.6373592291332981	-0.131566
C	0.6772370190733992 0.1927699531741903 0.6399982837338224	-0.123374
C	0.7131998694636928 0.2498060687728968 0.6149692380762822	0.067323
C	0.6772322524773533 0.3059907790750437 0.5869888764221819	-0.118867
C	0.6078191199151665 0.3047594570498373 0.5826715643046074	-0.127787
C	0.1090743002872510 0.2817749390796618 0.6660888455628301	0.102772
C	0.0397052500439428 0.2833509940184396 0.6699740314753234	-0.182897
C	0.0019505185506742 0.2527612335735502 0.6056250421217938	0.108128
C	0.0372934187824989 0.2225074861347190 0.5388718617734563	-0.181587
C	0.1067590985921857 0.2237667816184402 0.5388994878623483	0.107241
C	0.9282563823953212 0.2521542182385960 0.6084941946864340	0.054252
C	0.8922581522532945 0.3080375589905047 0.6375747082723221	-0.131198
C	0.8227743818488151 0.3072814307354194 0.6399842816974748	-0.122492
C	0.7868319190093158 0.2502336709305629 0.6149525476746699	0.067684
C	0.8228371365574066 0.1940741620120448 0.5869873420833822	-0.118218
C	0.8922709589372199 0.1952744877258937 0.5829178129080993	-0.127283
C	0.2817318148821213 0.3909440635708719 0.6653896431527123	0.110010
C	0.2834298918342716 0.4603032546616153 0.6692140508796471	-0.180419
C	0.2529989170712868 0.4980763101670740 0.6048302870308954	0.107029
C	0.2225815841836094 0.4627474951968170 0.5381166674095333	-0.184873
C	0.2236790036023230 0.3932725906205821 0.5382810628051941	0.104986
C	0.2522245726422697 0.5717572352169168 0.6080679179793628	0.055252
C	0.3080409317690961 0.6077032116167512 0.6374070678593470	-0.130871
C	0.3072498681939934 0.6771881427066007 0.6399814617209952	-0.123468
C	0.2502072208351271 0.7131720522982644 0.6149306142655310	0.068277
C	0.1940461617174352 0.6772023232201740 0.5869700519937223	-0.118434
C	0.1952874247860321 0.6077812858091719 0.5827392211114095	-0.128076
C	0.2181320464893668 0.1090107806176082 0.6665090033654887	0.098684
C	0.2165792555111230 0.0396049976354657 0.6701301034267512	-0.183925
C	0.2471768186802079 0.0018832842689681 0.6057360793963773	0.104488
C	0.2774506657662992 0.0372292055424202 0.5390279041916179	-0.182501
C	0.2762412469515684 0.1067192863953089 0.5390093980811591	0.098943
C	0.2478026889078808 0.9281866305719852 0.6085370086029399	0.054708
C	0.1919206943802014 0.8922276675203114 0.6376059733927846	-0.131371
C	0.1926973263836162 0.8227484938325127 0.6399744882396754	-0.122880
C	0.2497627989695916 0.7868026116075776 0.6149193848027297	0.066886
C	0.3059264732980600 0.8227742388134957 0.5869722238117949	-0.118706
C	0.3047014827009071 0.8922032032090337 0.5829252292810342	-0.127571
C	0.6090545425565507 0.7182685526983087 0.8346094844755824	0.109839
C	0.5396956655067520 0.7165705565423577 0.8307854871082169	-0.180275
C	0.5019231450101976 0.7470013110248781 0.8951692503969663	0.106979
C	0.5372518885702249 0.7774181996691027 0.9618823682525177	-0.184938
C	0.6067265552614914 0.7763207502230829 0.9617179738827017	0.104927
C	0.4282421116619585 0.7477752679734921 0.8919320550068340	0.055239
C	0.3922964167478527 0.6919593513429159 0.8625932970572830	-0.130915
C	0.3228114180606005 0.6927502037814827 0.8600190965124643	-0.123476
C	0.2868283218825702 0.7497928171162058 0.8850701601024378	0.068304
C	0.3227983314810626 0.8059536506668923 0.9130308502753188	-0.118336
C	0.3922194532208012 0.8047122918565051 0.9172612506326175	-0.128087
C	0.8909904986726412 0.7818675317947454 0.8334900151968092	0.098861
C	0.9603959925841147 0.7834206917581922 0.8298694606288786	-0.184044
C	0.9981170820611589 0.7528233302021848 0.8942634485543621	0.104409
C	0.9627711840517620 0.7225498131267445 0.9609709155646352	-0.182458
C	0.8932814606293653 0.7237588296255237 0.9609889766820193	0.098865
C	0.0718141390992299 0.7521974889250466 0.8914630660233857	0.054703
C	0.1077728813256974 0.8080792227228470 0.8623943601213875	-0.131356
C	0.1772517944983859 0.8073027148312026 0.8600260544583226	-0.122863
C	0.2131975534916228 0.7502373525124163 0.8850813126434725	0.066846
C	0.1772258125799516 0.6940737727305982 0.9130283933660959	-0.118725
C	0.1077971233712676 0.6952989299817185 0.9170751096808084	-0.127523
C	0.7182254221754119 0.8909268642305231 0.8339099432326370	0.102801
C	0.7166492651908722 0.9602955836745514 0.8300254580598110	-0.182951
C	0.7472387571660821 0.9980496814255009 0.8943744714606821	0.108141
C	0.7774921354027881 0.9627067809534020 0.9611269991510040	-0.181637
C	0.7762330368593465 0.8932415208160498 0.9610992332983446	0.107305
C	0.7478457293675110 0.0717441709861789 0.8915057195491327	0.054293
C	0.6919626632037568 0.1077423233790537 0.8624252913802729	-0.131139
C	0.6927186733611403 0.1772258422868627 0.8600158682381502	-0.122545
C	0.7497663971318073 0.2131682063507069 0.8850478362912502	0.067672
C	0.8059257310018081 0.1771628781917522 0.9130131855345747	-0.118228
C	0.8047251611492754 0.1077293168064315 0.9170824819698030	-0.127287
C	0.7817592464356750 0.6090255117844757 0.8349900381618629	0.100242
C	0.7834070749913293 0.5396447654612836 0.8311631454647604	-0.182003
C	0.7529610023156895 0.5018584906146928 0.8954823900718362	0.104414
C	0.7224951987136620 0.5371410635032087 0.9622302581894525	-0.187299
C	0.7235307097024419 0.6066480439757067 0.9623321299136220	0.101022
C	0.7521854186820798 0.4281780403773945 0.8920722945148183	0.055305
C	0.8080077248745408 0.3922425231987172 0.8626411911468814	-0.131617
C	0.8072301104075134 0.3227629897044779 0.8600022009122761	-0.123323
C	0.7501940701655113 0.2868001074964208 0.8850313242967117	0.067372
C	0.6940095677898226 0.3227680045282202 0.9130117331268655	-0.118868
C	0.6952412022380945 0.3921808666474659 0.9173288615261611	-0.127859
C	0.6090731144391449 0.7817745563103876 0.3339102388403545	0.102838
C	0.5397045794673411 0.7833507794080963 0.3300258585726725	-0.182974
C	0.5019503625344586 0.7527613366990156 0.3943750198043762	0.108122
C	0.5372929033222779 0.7225077312741742 0.4611277194288869	-0.181621
C	0.6067580172806163 0.7237668417800758 0.4610998042368577	0.107357
C	0.4282560023869291 0.7521545775347139 0.3915062244794962	0.054249
C	0.3922578539075819 0.8080375090727115 0.3624254440605474	-0.131061
C	0.3227742474810174 0.8072812621426437 0.3600160503499316	-0.122551
C	0.2868320277154543 0.7502335497891942 0.3850480765558618	0.067641
C	0.3228373437693138 0.6940741599530389 0.4130137028528831	-0.118155
C	0.3922707963231477 0.6952751106059021 0.4170836640405950	-0.127368
C	0.8909749996234746 0.7182407560651866 0.3349904988594731	0.100272
C	0.9603556411664846 0.7165929531955539 0.3311633423033642	-0.182001
C	0.9981416611223485 0.7470389517656943 0.3954824258479268	0.104424
C	0.9628590395503741 0.7775049398968775 0.4622302828253099	-0.187316
C	0.8933520506872258 0.7764694380180658 0.4623324715325187	0.101070
C	0.0718221434060602 0.7478145923261648 0.3920724672799960	0.055279
C	0.1077576458627458 0.6919924122508704 0.3626413287679980	-0.131582
C	0.1772371557035395 0.6927699537276710 0.3600023457095640	-0.123325
C	0.2131999639813417 0.7498058548048369 0.3850315512590422	0.067393
C	0.1772320418695259 0.8059903489813250 0.4130119272719982	-0.118871
C	0.1078191775365166 0.8047587781508655 0.4173289827047207	-0.127859
C	0.7181328078993556 0.6090096324066215 0.3334907351852394	0.098808
C	0.7165795887377426 0.5396045893331426 0.3298693182838033	-0.183919
C	0.7471769989404808 0.5018828465594608 0.3942632848001892	0.104343
C	0.7774505130630758 0.5372280214409382 0.4609708093591390	-0.182389
C	0.7762413926421098 0.6067177838823959 0.4609895883184678	0.098853
C	0.7478025813329943 0.4281859333178935 0.3914629441894544	0.054694
C	0.6919209387676100 0.3922272318556493 0.3623944180748191	-0.131368
C	0.6926974928310717 0.3227483403826447 0.3600262052045901	-0.122863
C	0.7497628671226033 0.2868025739561261 0.3850815375790875	0.066877
C	0.8059262709933069 0.3227742091853872 0.4130286871982757	-0.118732
C	0.8047010717561973 0.3922028671425070 0.4170752454185796	-0.127504
C	0.7817317559141969 0.8909455661142807 0.3346096955866125	0.109875
C	0.7834298467168244 0.9603043103539384 0.3307859964726877	-0.180209
C	0.7529990083032899 0.9980765641285965 0.3951697600440693	0.106932
C	0.7225816984524811 0.9627477909382721 0.4618829560664696	-0.184922
C	0.7236786395562820 0.8932732910157192 0.4617185560878097	0.104908
C	0.7522246671959838 0.0717578875036783 0.3919325724359640	0.055254
C	0.8080408974434966 0.1077037517509885 0.3625933958095244	-0.130870
C	0.8072500475664486 0.1771883959458085 0.3600191298533963	-0.123481
C	0.7502073990515702 0.2131720633593170 0.3850703100079926	0.068208
C	0.6940462941045802 0.1772023014582022 0.4130309267977288	-0.118256
C	0.6952876602374893 0.1077815150975964 0.4172615012657466	-0.128080
C	0.3909894388134519 0.2818675020124310 0.1665102007330638	0.098729
C	0.4603951100872374 0.2834201981332508 0.1701303856006264	-0.183869
C	0.4981172664601242 0.2528229054686135 0.1057360512464773	0.104362
C	0.4627712002412127 0.2225491160409842 0.0390289074432848	-0.182426
C	0.3932807233026877 0.2237585684457987 0.0390108323409711	0.098882
C	0.5718138538126128 0.2521972801974488 0.1085372528748794	0.054710
C	0.6077723360375400 0.3080792759129647 0.1376058927097719	-0.131262
C	0.6772514696432060 0.3073026353885303 0.1399740610880454	-0.122925
C	0.7131972819185317 0.2502371464561882 0.1149187962385035	0.066876
C	0.6772256837984610 0.1940735704902599 0.0869717021519001	-0.118718
C	0.6077967870536761 0.1952986411868146 0.0829250646416662	-0.127571
C	0.1090553251078490 0.2182680548658824 0.1653912972567756	0.109836
C	0.0396961490116879 0.2165700934352854 0.1692157535277692	-0.180261
C	0.0019235092668102 0.2470012413476108 0.1048314179032585	0.106983
C	0.0372526243005310 0.2774185583526899 0.0381177386731131	-0.184880
C	0.1067274641724945 0.2763211682614163 0.0382820978744321	0.104991
C	0.9282424953145422 0.2477754235484275 0.1080684277886606	0.055215
C	0.8922964681139596 0.1919588468085115 0.1374072321576659	-0.130851
C	0.8228115247744235 0.1927498398841569 0.1399811661646442	-0.123479
C	0.7868280073074517 0.2497926607808986 0.1149300441740344	0.068263
C	0.8227977329047079 0.3059538821083852 0.0869694678316629	-0.118385
C	0.8922187873164938 0.3047126496767937 0.0827390717063553	-0.128047
C	0.2817587039575108 0.1090260339907825 0.1650101904081945	0.100316
C	0.2834068402131150 0.0396449093375647 0.1688372836199155	-0.182035
C	0.2529604405767951 0.0018580902301771 0.1045183160316269	0.104410
C	0.2224946250336530 0.0371415005340449 0.0377699247663449	-0.187240
C	0.2235298613214467 0.1066489356735736 0.0376677604529100	0.101045
C	0.2521850747192367 0.9281782596904472 0.1079284536620563	0.055310
C	0.3080078646780323 0.8922426076336291 0.1373593113523127	-0.131591
C	0.3072302394485930 0.8227627316200105 0.1399981526617431	-0.123328
C	0.2501941136225675 0.7868000352292808 0.1149689084356710	0.067352
C	0.1940093520698210 0.8227677665427093 0.0869885064881099	-0.118850
C	0.1952406910855540 0.8921808715796392 0.0826714603744274	-0.127846
C	0.2182252918929195 0.3909259864006931 0.1660905401887320	0.102789
C	0.2166491536680783 0.4602948712074369 0.1699755291861933	-0.182840
C	0.2472387756519534 0.4980493867711669 0.1056257055352649	0.108048
C	0.2774924234419857 0.4627064977804086 0.0388724852793597	-0.181591
C	0.2762327728473464 0.3932410312436674 0.0389003661802680	0.107397
C	0.2478453914807490 0.5717435603939317 0.1084945004513214	0.054255
C	0.1919621322810231 0.6077417388119227 0.1375750763644478	-0.131119
C	0.1927184065578405 0.6772255892022931 0.1399843790906981	-0.122538
C	0.2497663606126145 0.7131677791837245 0.1149524183532675	0.067660
C	0.3059259236945417 0.6771625257295483 0.0869867391661260	-0.118148
C	0.3047251547046538 0.6077288971030388 0.0829167898446197	-0.127353
H	0.3606849809236465 0.1977593627670328 0.7164221430970399	0.104504
H	0.4845016441229338 0.1936523903883446 0.7236037833327968	0.114595
H	0.4893027983348316 0.3010877549787598 0.4851702063090114	0.112713
H	0.3644985296842376 0.2988182786346674 0.4860145133431801	0.100972
H	0.5806479870209410 0.1472023725967093 0.6568992880532536	0.099912
H	0.7042049892889958 0.1489736572856922 0.6628983398152605	0.100403
H	0.7041582634650115 0.3503304421918337 0.5658242331234578	0.101516
H	0.5808365908725248 0.3488288537217952 0.5604480198696561	0.103277
H	0.1399445055637702 0.3036811382841643 0.7159255427772510	0.095994
H	0.0152051345613506 0.3067557129722303 0.7241631398247420	0.111992
H	0.0109903205824411 0.1995922150477037 0.4857108343753320	0.114024
H	0.1355786660839805 0.2029094790928765 0.4864998238904022	0.100169
H	0.9192767366425151 0.3529264292970592 0.6569742122736690	0.099736
H	0.7957770579151816 0.3510800195005533 0.6628103447036809	0.101041
H	0.7959513590431827 0.1497209728484249 0.5657864735235298	0.101313
H	0.9192451347253946 0.1512162548713696 0.5606746255450857	0.103694
H	0.3023489626705152 0.3603258650984330 0.7162241352306443	0.098227
H	0.3062753391553402 0.4846077872593698 0.7238966786143171	0.113935
H	0.1991690605950587 0.4891918467381896 0.4853918188134810	0.112284
H	0.2014204381774087 0.3641698886863773 0.4869869324687328	0.096433
H	0.3528798898224448 0.5806252352134873 0.6569061403612763	0.099045
H	0.3510350398754976 0.7041564980696454 0.6628482026350838	0.101142
H	0.1496954082646894 0.7041409802425515 0.5657951783423406	0.101391
H	0.1511943096705153 0.5808455500418712 0.5605611909552362	0.103358
H	0.1963622137791971 0.1395610927071804 0.7169490769550881	0.101660
H	0.1930568998560079 0.0151526114411438 0.7242786542061863	0.112304
H	0.3005158298200211 0.0110202450514296 0.4858640349381210	0.113923
H	0.2971217495567630 0.1352747167099577 0.4861916563759160	0.104914
H	0.1470658361032258 0.9193070447204114 0.6570543106265359	0.100173
H	0.1489171803833646 0.7957634367924741 0.6628207115638078	0.100447
H	0.3503010659274046 0.7958804180255449 0.5657832169360596	0.101697
H	0.3487167354929093 0.9192022475452526 0.5606506599662471	0.103923
H	0.6396727105959943 0.6976510979754027 0.7837754334627072	0.098283
H	0.5153909218908918 0.6937249872891540 0.7761032533580854	0.113896
H	0.5108076894439109 0.8008305004431360 0.0146074870826085	0.112294
H	0.6358291733479241 0.7985789656377238 0.0130123244422290	0.096473
H	0.4193740905840908 0.6471203681098127 0.8430940307144842	0.099077
H	0.2958429913040557 0.6489653009629560 0.8371523242240392	0.101166
H	0.2958590699219862 0.8503037078455118 0.9342053744285223	0.101386
H	0.4191540052207366 0.8488053983787491 0.9394391153827660	0.103318
H	0.8604404837909769 0.8036376338771987 0.7830501106863288	0.101650
H	0.9848485712015778 0.8069432815287062 0.7757213991867766	0.112358
H	0.9889800387672244 0.6994848728594020 0.0141350582780063	0.113923
H	0.8647263886420191 0.7028784231195709 0.0138067829694272	0.104948
H	0.0806936986913199 0.8529341302638028 0.8429459222015295	0.100169
H	0.2042371462583451 0.8510825369750299 0.8371798703134985	0.100444
H	0.2041198270375632 0.6496995157719279 0.9342174903900942	0.101696
H	0.0807981679245216 0.6512836605339641 0.9393496765118141	0.103918
H	0.6963192257200287 0.8600568989133268 0.7840730749210638	0.095996
H	0.6932443317735331 0.9847958148601896 0.7758367972893666	0.112007
H	0.8004071785947864 0.9890099006760655 0.0142880793931983	0.114046
H	0.7970898189672549 0.8644220079921866 0.0134990854142893	0.100172
H	0.6470736361746605 0.0807238749616025 0.8430258443435273	0.099710
H	0.6489204187337297 0.2042236383434659 0.8371898286012078	0.101047
H	0.8502785529775242 0.2040489724178685 0.9342143673338700	0.101313
H	0.8487834273606988 0.0807551591083816 0.9393257216362954	0.103683
H	0.8022406237845372 0.6393137292581801 0.7835763141813269	0.104525
H	0.8063472862164826 0.5154977986883955 0.7763961220991894	0.114622
H	0.6989132169873605 0.5106969907050106 0.0148286729892624	0.112740
H	0.7011826007674572 0.6355007742303768 0.0139839604110396	0.100947
H	0.8527976949945761 0.4193514095101441 0.8431007506841434	0.099922
H	0.8510260719944890 0.2957944245014137 0.8371021121668548	0.100363
H	0.6496701016216218 0.2958414889509084 0.9341765043253127	0.101517
H	0.6511715443275502 0.4191631223804832 0.9395522852365423	0.103323
H	0.6399434417230648 0.8036805156230858 0.2840734615467784	0.095991
H	0.5152044299264720 0.8067555374255073 0.2758373290884411	0.112014
H	0.5109897167357832 0.6995925065633185 0.5142887205985842	0.114028
H	0.6355778676092272 0.7029095589769682 0.5134988466204284	0.100155
H	0.4192762609126795 0.8529264033329025 0.3430260137125619	0.099696
H	0.2957766715930942 0.8510796107001837 0.3371898719592952	0.101052
H	0.2959511430902312 0.6497213301664347 0.4342145582883317	0.101303
H	0.4192446974598904 0.6512165366822654 0.4393259639054414	0.103700
H	0.8606869019020962 0.6977590500739933 0.2835773164992106	0.104497
H	0.9845026221954269 0.6936525709371859 0.2763965609729508	0.114630
H	0.9893029503499300 0.8010869163177045 0.5148284674580248	0.112733
H	0.8644990689868715 0.7988173954268039 0.5139842753940179	0.100919
H	0.0806487707915871 0.6472025383614194 0.3431008522548700	0.099895
H	0.2042057131127171 0.6489740482630646 0.3371022087247654	0.100363
H	0.2041583934830275 0.8503297709861019 0.4341767121020594	0.101512
H	0.0808368199669216 0.8488283348942114 0.4395522945569044	0.103326
H	0.6963625113248156 0.6395602114698042 0.2830505426355927	0.101627
H	0.6930568992428937 0.5151519436796258 0.2757216948742407	0.112289
H	0.8005154491885563 0.5110193228300356 0.5141350279728638	0.113922
H	0.7971216511366020 0.6352734859538020 0.5138070466086883	0.104935
H	0.6470660379308234 0.4193064383128368 0.3429459790462698	0.100170
H	0.6489177376971439 0.2957629567540436 0.3371800149329174	0.100455
H	0.8503005388835601 0.2958800821394313 0.4342178369183036	0.101696
H	0.8487162987379501 0.4192018279449216 0.4393497699384333	0.103914
H	0.8023485903013921 0.8603277640244796 0.2837750114665734	0.098245
H	0.8062753252717572 0.9846090215432499 0.2761035862327005	0.113880
H	0.6991692381911949 0.9891919688609109 0.5146077152804761	0.112331
H	0.7014199951923784 0.8641702896770018 0.5130125278206173	0.096463
H	0.8528797946450458 0.0806258240149453 0.3430939916860928	0.099065
H	0.8510349964979215 0.2041571114425953 0.3371522298978289	0.101150
H	0.6496957525624720 0.2041412403395268 0.4342059145543789	0.101352
H	0.6511944174322883 0.0808457736826871 0.4394394576956427	0.103303
H	0.3604387088190261 0.3036380264613830 0.2169504831994665	0.101638
H	0.4848474415607437 0.3069434118454935 0.2242791295066434	0.112267
H	0.4889796247711418 0.1994846355044234 0.9858645664756813	0.113908
H	0.3647251619514190 0.2028787491961346 0.9861927732421127	0.104898
H	0.5806930767775073 0.3529341125467240 0.1570542533800599	0.100152
H	0.7042366275551700 0.3510826808576382 0.1628200356564694	0.100454
H	0.7041196429587997 0.1496991339016275 0.0657825171761941	0.101696
H	0.5807978232095315 0.1512834688273745 0.0606505338973886	0.103929
H	0.1396733928564162 0.1976509832058859 0.2162259699523251	0.098299
H	0.0153914521418305 0.1937244995435225 0.2238982225069704	0.113871
H	0.0108083540818699 0.3008307829849277 0.9853925093530999	0.112294
H	0.1358305060702762 0.2985796623078041 0.9869878812719549	0.096454
H	0.9193744217861877 0.1471199083610497 0.1569063986208695	0.099044
H	0.7958430222693075 0.1489646101167525 0.1628477736550708	0.101140
H	0.7958591666329022 0.3503046468853664 0.0657943929982116	0.101373
H	0.9191546758417302 0.3488057672282597 0.0605610792914262	0.103351
H	0.3022405104766919 0.1393144167960970 0.2164234624731005	0.104468
H	0.3063473207411340 0.0154980230182548 0.2236040596347661	0.114631
H	0.1989130331239322 0.0106977207591513 0.9851707677552015	0.112715
H	0.2011825583170494 0.1355021926010203 0.9860151115448144	0.100944
H	0.3527977783841600 0.9193516496928087 0.1568995039442420	0.099908
H	0.3510264210370317 0.7957943469572943 0.1628979559122278	0.100346
H	0.1496698247377179 0.7958418042417712 0.0658235871011901	0.101499
H	0.1511714464351272 0.9191636935626017 0.0604480208516373	0.103327
H	0.1963195477344822 0.3600554888888982 0.2159276500500561	0.096021
H	0.1932444587344308 0.4847950853645731 0.2241642354638689	0.111965
H	0.3004076025082713 0.4890098421978640 0.9857109990884174	0.114014
H	0.2970899993681994 0.3644209455165032 0.9865009629483754	0.100143
H	0.1470733066581292 0.5807232104984463 0.1569742055509771	0.099712
H	0.1489198166503444 0.7042230188741045 0.1628102959227001	0.101071
H	0.3502789927944427 0.7040486561678255 0.0657857362676622	0.101289
H	0.3487836779599509 0.5807547933441247 0.0606743472288963	0.103693
Zn	0.2502486739588905 0.2497064799004562 0.6006792710635056	0.741418
Zn	0.7502932272122581 0.7497513181694127 0.8993170437948452	0.741474
Zn	0.7502485848357561 0.7497076674244801 0.3993192453463179	0.741461
Zn	0.2502918363777601 0.2497514726049489 0.1006834476853210	0.741463
Fe	0.2509298118541639 0.2503340959579705 0.3509888258844667	1.523749
Fe	0.7496750607672799 0.7490647804259162 0.1490098967681815	1.523925
Fe	0.7509321008453592 0.7503331691883577 0.6490081918614046	1.523806
Fe	0.2496660128047694 0.2490660145588182 0.8509878323885962	1.523936
	  	
