#======================================================================

# CRYSTAL DATA

#----------------------------------------------------------------------

data_VESTA_phase_1


_pd_phase_name                         FeFFIVE_1_Cd
_cell_length_a                         11.76851
_cell_length_b                         11.76853
_cell_length_c                         8.32085
_cell_angle_alpha                      91.24635
_cell_angle_beta                       88.74834
_cell_angle_gamma                      89.99248
_symmetry_space_group_name_H-M         P 1
_symmetry_Int_Tables_number            1

loop_
_symmetry_equiv_pos_as_xyz
   x, y, z

loop_
   _atom_site_label
   _atom_site_fract_x
   _atom_site_fract_y
   _atom_site_fract_z
   _atom_site_charge
C	0.2458299208785389 0.4664924130592695 0.3633273845232047	0.100967
C	0.1276482606543899 0.4654908294448508 0.3601079462139862	-0.172074
C	0.7602080187427362 0.5219326935802402 0.3658374769119250	0.098026
C	0.8784288478919530 0.5234833999771863 0.3604005708940508	-0.171617
C	0.5313039294500765 0.2426514326088930 0.3708771672222489	0.100144
C	0.5327270356812062 0.1244553477581391 0.3651073805283971	-0.172660
C	0.4763432047221928 0.7571115896822996 0.3634542242015750	0.097638
C	0.4752144029665406 0.8753120939744135 0.3605548512522014	-0.170700
C	0.7570899136994854 0.4763431752418651 0.6365463097158726	0.098014
C	0.8752892192973588 0.4752204805912546 0.6394606167286766	-0.170840
C	0.2426381516904127 0.5313103004987134 0.6291072005074080	0.100188
C	0.1244445094820324 0.5327320022231754 0.6348947619672122	-0.172682
C	0.4664895078302292 0.2458428046362460 0.6366700734889640	0.101026
C	0.4654816986191824 0.1276570066836695 0.6399002093535791	-0.172112
C	0.5219038607935024 0.7602038861511968 0.6341711691749913	0.097810
C	0.5234527592134459 0.8784262171550273 0.6396174936153185	-0.171653
C	0.0642852000671998 0.4992210641168884 0.4979849062512895	0.101415
C	0.9386282022583812 0.4993971936615869 0.4993804283284973	0.096631
C	0.4992095947806577 0.0642974445768276 0.5020274015611111	0.101466
C	0.4993807693354510 0.9386366859809774 0.5006394284957078	0.096877
H	0.2976615960308427 0.4405691641917348 0.2579589866051223	0.102220
H	0.0856928050889131 0.4364990506055187 0.2511812016289811	0.119393
H	0.7108257611316388 0.5372763997352731 0.2587280059429741	0.100910
H	0.9229561064124576 0.5443986805257679 0.2486866419401603	0.117179
H	0.5560108528276407 0.2927598407495353 0.2668071359958694	0.097943
H	0.5614043039042116 0.0798850284596294 0.2553810355327728	0.117825
H	0.4594896591865664 0.7062851003255199 0.2546838002450689	0.107319
H	0.4538073992273572 0.9170948758939633 0.2495371996924425	0.119013
H	0.7062563713556148 0.4594485858900067 0.7453060658820027	0.107154
H	0.9170569385103291 0.4538001093331936 0.7504842525940217	0.118879
H	0.2927481680662096 0.5560063454767683 0.7331736722844242	0.097852
H	0.0798683146251063 0.5614078979397107 0.7446191333524327	0.117662
H	0.4405792461118822 0.2976776778712736 0.7420302331615946	0.102295
H	0.4364975109378060 0.0857044185218592 0.7488426275181387	0.119529
H	0.5372357143219019 0.7108097225486874 0.7412813865949618	0.101021
H	0.5443620119018674 0.9229331998207622 0.7513391117075626	0.117332
Cd	0.5015973922598951 0.5015966688468283 0.4999802069810863	0.825673
Fe	0.4979222245789721 0.4978413395582961 -0.0000237217472553	1.518947
F	0.4947821960021186 0.5039849839053017 0.7668635357755125	-0.579071
F	0.5040803267170300 0.4949066825211432 0.2331083913742675	-0.579031
F	0.3858433017475513 0.3859451294179560 0.0000355856347304	-0.609745
F	0.6509500151878937 0.4552600107618257 -0.0115633877723922	-0.606396
F	0.4556930461508042 0.6509802720674758 0.0115081690514027	-0.606487
N	0.3019175935663571 0.4990139776193087 0.4958568947052071	-0.232518
N	0.7009793237392157 0.4991986700445277 0.5015665579376569	-0.239032
N	0.4990102586845047 0.3019213907614425 0.5041279652728898	-0.232736
N	0.4991845716703232 0.7009867760039580 0.4984324711721468	-0.238994
	  	
