#======================================================================

# CRYSTAL DATA

#----------------------------------------------------------------------

data_VESTA_phase_1


_pd_phase_name                         FeFFIVE_15_Ni_i
_cell_length_a                         29.78026
_cell_length_b                         28.89180
_cell_length_c                         8.07550
_cell_angle_alpha                      89.99994
_cell_angle_beta                       90.00011
_cell_angle_gamma                      90.01116
_symmetry_space_group_name_H-M         P 1
_symmetry_Int_Tables_number            1

loop_
_symmetry_equiv_pos_as_xyz
   x, y, z

loop_
   _atom_site_label
   _atom_site_fract_x
   _atom_site_fract_y
   _atom_site_fract_z
   _atom_site_charge
C	0.9341100113748424 0.1035140062573362 0.8935427843803736	0.094521
C	0.9018052592068877 0.0689004798811496 0.8993077558799285	-0.167480
C	0.7701671351050908 0.9363436714966844 0.9011276310114411	-0.115884
C	0.7358753542284320 0.9039941954443816 0.9008788683150937	-0.117313
C	0.5674886973789677 0.7410422163058935 0.8933643015994830	0.092126
C	0.6011523561625058 0.7742283519838908 0.8988992430286570	-0.168949
C	0.4344328048041818 0.6031541514516974 0.8933865337022410	0.104972
C	0.4020581177580235 0.5686259321956405 0.8993409682875911	-0.167393
C	0.2699154663575923 0.4361988560669045 0.9009971387008837	-0.115318
C	0.2356156504669308 0.4038165435777344 0.9007910532507990	-0.115859
C	0.0673877804441406 0.2403004553295436 0.8932472603750239	0.103054
C	0.1010148010826900 0.2735350842979994 0.8989629756049273	-0.171287
C	0.0659903188767533 0.8963860485378512 0.3934014581646751	0.106070
C	0.0980575043728845 0.9312157379967516 0.3993620427369804	-0.167380
C	0.2299863333151728 0.0637381675469586 0.4010201905889825	-0.114236
C	0.2642978530341358 0.0961058535588467 0.4007946131164834	-0.115665
C	0.4328771579832979 0.2590947500721749 0.3932544218747266	0.103528
C	0.3990097969119753 0.2261410167690392 0.3989838103792860	-0.170079
C	0.5658156229028115 0.3968459473007265 0.3935309811511933	0.095121
C	0.5978873199520655 0.4316705880645411 0.3992809856871576	-0.167156
C	0.7299628165868512 0.5636743269261932 0.4011214868082386	-0.115128
C	0.7642952803539121 0.5959783155105768 0.4009038766669242	-0.116442
C	0.9322972226131933 0.7592065551167463 0.3934072670584560	0.092713
C	0.8984913823063042 0.7261809462835200 0.3989525986445366	-0.169605
C	0.0657768839907672 0.1038344610478931 0.6065785307929968	0.107024
C	0.0978289098844439 0.0690000212206144 0.6006358815138538	-0.166351
C	0.2296582257983207 0.9365477027607696 0.5989550427144590	-0.114795
C	0.2639737760684486 0.9041989624780690 0.5991589878875955	-0.116500
C	0.4323886550083473 0.7411516309328844 0.6066293508850720	0.092186
C	0.3987280609133355 0.7743441749738769 0.6011156378234596	-0.169785
C	0.5655008498840797 0.6032473049605052 0.6065826490320444	0.104877
C	0.5978452339644387 0.5687207013033543 0.6006073936532885	-0.166387
C	0.7298553547485253 0.4364580949306102 0.5989209226953591	-0.113695
C	0.7641512862203872 0.4040888239527926 0.5991388628589451	-0.117085
C	0.9323223210670160 0.2407614665408266 0.6066084197326967	0.093337
C	0.8984972729538666 0.2737904392660858 0.6011051414945832	-0.169773
C	0.9338147632842634 0.8968197600568129 0.1064653869639827	0.095372
C	0.9015335080346140 0.9314328356445866 0.1007305946072987	-0.166017
C	0.7698147662772024 0.0639574344669894 0.0989197521026615	-0.118358
C	0.7355155952667679 0.0963229018283166 0.0991565571122123	-0.116338
C	0.5670282902653550 0.2592048803843745 0.1067163570881283	0.102267
C	0.6008859413553908 0.2262639940094719 0.1009933854884038	-0.170913
C	0.4340647613321382 0.3969680800696401 0.1064806395008655	0.097028
C	0.4019773063664940 0.4317787413410780 0.1007582471217879	-0.167413
C	0.2698352851660136 0.5638983278805026 0.0989246199304639	-0.117875
C	0.2354992934907943 0.5962206707122891 0.0991545890523058	-0.115176
C	0.0674824220822205 0.7595963620309744 0.1067228111052228	0.104400
C	0.1010879402702329 0.7263818892453299 0.1009940090104394	-0.170370
C	0.0659901350123909 0.8963861452438747 0.1065963922822579	0.106110
C	0.0980569764068207 0.9312160370459460 0.1006350325955600	-0.167396
C	0.2299863675672387 0.0637381715492859 0.0989801930559356	-0.114283
C	0.2642978796107626 0.0961058588345304 0.0992062466163591	-0.115634
C	0.4328771739403038 0.2590945700522456 0.1067463276780541	0.103554
C	0.3990099196084718 0.2261409506459103 0.1010177231614505	-0.170127
C	0.5658155958992620 0.3968457777850946 0.1064690220852399	0.095099
C	0.5978875781535572 0.4316700496694807 0.1007175666605491	-0.167103
C	0.7299626679036958 0.5636744454730591 0.0988781649110955	-0.115162
C	0.7642950588411861 0.5959784910990995 0.0990958184868276	-0.116433
C	0.9322971315511781 0.7592061559571152 0.1065896889013859	0.092839
C	0.8984913567564519 0.7261802450909015 0.1010441378728617	-0.169611
C	0.9341102738116182 0.1035138701632167 0.6064651813765820	0.094390
C	0.9018059188146582 0.0689003261611090 0.6006967275226025	-0.167467
C	0.7701670255677592 0.9363435251915222 0.5988742342672755	-0.115754
C	0.7358755517789982 0.9039939244951889 0.5991224082649187	-0.117360
C	0.5674890759093486 0.7410421337134943 0.6066342891493195	0.092013
C	0.6011527841476346 0.7742288328422956 0.6011004606342324	-0.168976
C	0.4344329128344589 0.6031535154566650 0.6066082769572551	0.105034
C	0.4020576653315555 0.5686256467009047 0.6006555019486637	-0.167401
C	0.2699153313475867 0.4361987646735074 0.5990028694895460	-0.115363
C	0.2356152112084750 0.4038164161383423 0.5992097536011429	-0.115858
C	0.0673876049464498 0.2402997781399166 0.6067529677769697	0.103020
C	0.1010146348147379 0.2735346084103530 0.6010351121186486	-0.171218
C	0.9338148437613186 0.8968194951699088 0.3935340673197246	0.095386
C	0.9015336011637021 0.9314325530889007 0.3992694940307282	-0.166112
C	0.7698156659119039 0.0639571879563306 0.4010804441592072	-0.118345
C	0.7355164813940884 0.0963228017320320 0.4008457748326473	-0.116442
C	0.5670284969184185 0.2592046902910288 0.3932770644854431	0.102240
C	0.6008860218873822 0.2262635987634738 0.3989997946418824	-0.170940
C	0.4340653348286833 0.3969681246897408 0.3935216414729399	0.097105
C	0.4019778902047909 0.4317788903830684 0.3992445905619661	-0.167360
C	0.2698355589794306 0.5638978811999801 0.4010777260483394	-0.117612
C	0.2354997279948173 0.5962204937793962 0.4008490480433440	-0.115447
C	0.0674822363252241 0.7595963905364047 0.3932769108449115	0.104371
C	0.1010876903819466 0.7263817413826160 0.3990057106254916	-0.170331
C	0.0657769478301017 0.1038336482879317 0.8934308526691133	0.107043
C	0.0978290612318667 0.0689991673158878 0.8993703013381567	-0.166441
C	0.2296584069898727 0.9365475047412917 0.9010456582927404	-0.114777
C	0.2639739519005430 0.9041987745482496 0.9008408989014347	-0.116527
C	0.4323888742832340 0.7411515483858918 0.8933664999141790	0.092177
C	0.3987286989114333 0.7743441027107821 0.8988807642925754	-0.169716
C	0.5655011714627880 0.6032470475788783 0.8934140766285247	0.104823
C	0.5978454857120855 0.5687207017650772 0.8993874787616359	-0.166467
C	0.7298555572621103 0.4364578875050183 0.9010800437173876	-0.113648
C	0.7641514799491067 0.4040886253482285 0.9008611662021134	-0.117028
C	0.9323221009128752 0.2407613248065400 0.8933954849335174	0.093349
C	0.8984972426490819 0.2737903714040831 0.8988975631766341	-0.169788
C	0.6533923286722634 0.8252990924102224 0.7500015985443985	-0.103197
C	0.8847956035316267 0.0508825324390398 0.7500023337642605	0.162658
C	0.8221784275891203 0.9865191439205672 0.7500014577680044	-0.101911
C	0.6189151302446895 0.7917443585700422 0.7499997099370377	0.166510
C	0.7877155922999022 0.9530214495045495 0.7500012426470424	0.126145
C	0.7181373705707526 0.8872749720212266 0.7500006641992183	0.138193
C	0.6833123185295716 0.8541583579218037 0.7500011127598774	-0.102860
C	0.8514988649675589 0.0160478738450973 0.7500024250400867	-0.103517
C	0.1530852213785359 0.3249407023706114 0.7499985743876756	-0.104969
C	0.3848981532945753 0.5506781254193446 0.7499984028328369	0.162403
C	0.3220367803412947 0.4864867202608663 0.7499996367998981	-0.095219
C	0.1187036365956374 0.2911663934634128 0.7499980932022828	0.171698
C	0.2875229742549105 0.4529755363341449 0.7499993791494441	0.127118
C	0.2178325775568227 0.3870737967617011 0.7499998363529409	0.138629
C	0.1829856967985552 0.3538847427087834 0.7500001261090096	-0.101478
C	0.3514380755580338 0.5159649020283882 0.7499992292324604	-0.106490
C	0.3465175388887289 0.1752632330785282 0.2500018089670795	-0.105569
C	0.1148767891262938 0.9494725305050395 0.2499981517601400	0.163132
C	0.1776226854974255 0.0137751464081866 0.2499993619102544	-0.097523
C	0.3810401973305974 0.2088317304487135 0.2500008432633117	0.169680
C	0.2123016635001594 0.0470843830833087 0.2500000962019386	0.127233
C	0.2819976644079357 0.1129371365981009 0.2500005007594809	0.137912
C	0.3166751888562062 0.1462766489103480 0.2500011677247084	-0.098988
C	0.1481383622745584 0.9843820206326547 0.2499981913966841	-0.108518
C	0.8463327686947874 0.6750781764766907 0.2499987235764245	-0.102489
C	0.6147442631476543 0.4498405398651713 0.2499994284003713	0.162170
C	0.6776504959619477 0.5138530012898699 0.2499997001837536	-0.101588
C	0.8806458789971223 0.7087962966949335 0.2499984650879600	0.167392
C	0.7123304555070431 0.5470813717412505 0.2499999374515493	0.125354
C	0.7819726942544151 0.6127198813533862 0.2499999805484728	0.140017
C	0.8166008139707942 0.6460218162148232 0.2499998896351193	-0.103957
C	0.6481182517870490 0.4845605048019123 0.2499988359730502	-0.106452
C	0.3464396551110655 0.8254103361994319 0.7499990019576054	-0.102790
C	0.1146444035022311 0.0507867205847701 0.7500030312215333	0.161194
C	0.1773735719692338 0.9865324695977404 0.7500009906380833	-0.097495
C	0.3809472145189177 0.7918544302760120 0.7499985523842798	0.167213
C	0.2120081256580575 0.9532029508710834 0.7500004470567493	0.123547
C	0.2817147880509234 0.8874426071895273 0.7499998663278677	0.141090
C	0.3165192913668765 0.8542830083033264 0.7499995132643350	-0.103526
C	0.1479119926504562 0.0159201096775714 0.7500011916252159	-0.108209
C	0.8462963449953642 0.3249491811340857 0.7499998828468630	-0.104002
C	0.6149600417698915 0.5507754569696131 0.7499973359915286	0.162268
C	0.6777541217149468 0.4866222186352485 0.7499999064639421	-0.094888
C	0.8806355300866759 0.2911929159714605 0.7500000783819645	0.167592
C	0.7122538054499163 0.4531744309019606 0.7500006455423347	0.125123
C	0.7818558725167536 0.3873246359275541 0.7499998731871693	0.140144
C	0.8165377930156698 0.3540075454865947 0.7499995624027928	-0.102592
C	0.6483642987061198 0.5160800163750473 0.7499982216542076	-0.108198
C	0.6533195790227329 0.1753969625294828 0.2499983704817115	-0.107000
C	0.8845332571294511 0.9494728685595647 0.2499999133556902	0.159386
C	0.8219428844000347 0.0138440350046715 0.2499984176883157	-0.102519
C	0.6188330171705028 0.2089562008426727 0.2499964094942117	0.170835
C	0.7874234494348776 0.0472902406970257 0.2499993409100467	0.129547
C	0.7178243789327142 0.1131293910146929 0.2500022433814524	0.136826
C	0.6831513787316319 0.1464174138149229 0.2500015343021536	-0.099397
C	0.8512736054322917 0.9843350465713795 0.2500011214767300	-0.099766
C	0.1530934439251724 0.6750557730565346 0.2500002997091879	-0.105246
C	0.3850796313476167 0.4499325896447760 0.2500016614826829	0.159809
C	0.3221394363249954 0.5139638936193209 0.2500000473709669	-0.104123
C	0.1187621441813256 0.7087879658883558 0.2500007605581238	0.171167
C	0.2874693844740210 0.5472564701380962 0.2500009348497435	0.127735
C	0.2177396227742468 0.6129479101129957 0.2500016343114227	0.138208
C	0.1829516568287870 0.6461110263437421 0.2500017430999172	-0.100645
C	0.3516606674929589 0.4846475024368279 0.2500011321340980	-0.101919
H	0.9482167108665399 0.1174262721266029 0.0074599786708437	0.100117
H	0.8900901674649462 0.0559614028947303 0.0183459741738147	0.120115
H	0.7839389476702487 0.9492643700233829 0.0173406648660339	0.106618
H	0.7221586668661063 0.8910780289141454 0.0170616383844630	0.114627
H	0.5539851823638817 0.7266143424283383 0.0074274834151014	0.099245
H	0.6136498875559181 0.7862341174723448 0.0180072370655961	0.123641
H	0.4487645026400860 0.6174276357541174 0.0063344798086640	0.093556
H	0.3902100879797987 0.5556341195121693 0.0181634585884362	0.120314
H	0.2836999022239830 0.4490503993764863 0.0173094264310801	0.107085
H	0.2220013947168541 0.3908982131886323 0.0171082985866737	0.114780
H	0.0535107303157355 0.2255994456776041 0.0061749793949969	0.092022
H	0.1135308168486822 0.2856188055521498 0.0179035925441454	0.125044
H	0.0527120636537542 0.8810444002221581 0.5062897634951375	0.093493
H	0.1100698465462787 0.9440574392122157 0.5181475277706376	0.120383
H	0.2162269520546580 0.0508435412930082 0.5173140526674597	0.106093
H	0.2779767655209696 0.1089867208310948 0.5170844843971022	0.114849
H	0.4477505708001461 0.2726901232557868 0.5062563345006962	0.092022
H	0.3866355970089363 0.2138304717981124 0.5178497533045706	0.124595
H	0.5529839475202080 0.3817151338080925 0.5075446545674230	0.100177
H	0.6098940051088982 0.4444004039228753 0.5182325129459411	0.119208
H	0.7161427154322920 0.5507706561316161 0.5173057285572493	0.105666
H	0.7779992397408324 0.6089195712918493 0.5170824625438946	0.114692
H	0.9469865031810285 0.7724020069307485 0.5074092769846620	0.099585
H	0.8862229410552205 0.7138794395222358 0.5179982447550305	0.123942
H	0.0525275213677077 0.1191756952050005 0.4936355461672038	0.092288
H	0.1098654807641692 0.0561515090479710 0.4819013178235969	0.119556
H	0.2159028775446649 0.9494775607273026 0.4827112647741138	0.106219
H	0.2776335008861640 0.8912501531666357 0.4829215122401267	0.115177
H	0.4458911121242382 0.7267267557329591 0.4925420995773104	0.099850
H	0.3862423284876648 0.7863469814763339 0.4820221240760653	0.123890
H	0.5511895915919877 0.6175346538302863 0.4936624163206647	0.092941
H	0.6097394383949162 0.5556938178824322 0.4818949725058565	0.120206
H	0.7160103833007549 0.4493356190171005 0.4827021541052745	0.106612
H	0.7778291854949064 0.3911770849047673 0.4829304313311122	0.114891
H	0.9470083014437863 0.2275875716973819 0.4925112643270483	0.099140
H	0.8862792604843062 0.2860606085899015 0.4819856827071849	0.123839
H	0.9479028735499355 0.8828935169343510 0.9924934295963657	0.100804
H	0.8897896492649205 0.9443770837756937 0.9817376464715593	0.119705
H	0.7835919202671509 0.0510423977840552 0.9826882081304016	0.107837
H	0.7217675644364768 0.1091997921266241 0.9829304053605226	0.114770
H	0.5521700982354762 0.2728020350263223 0.9937061314848229	0.092398
H	0.6132952576765265 0.2139255872424189 0.9822164275111359	0.124934
H	0.4469141850708065 0.3818438103219203 0.9924595483924932	0.100127
H	0.3899984904729052 0.4444976914912914 0.9817872149450533	0.119159
H	0.2836101527849975 0.5509845659817749 0.9826952715793599	0.106908
H	0.2218395074469808 0.6091857344760382 0.9829167663815808	0.114712
H	0.0536095805303316 0.7742645678149073 0.9937277522531223	0.091456
H	0.1136581892586433 0.7142201029191011 0.9822164302931494	0.124717
H	0.0527112704419558 0.8810448853017409 0.9937088478501618	0.093533
H	0.1100690669418965 0.9440574899167503 0.9818485064144374	0.120362
H	0.2162269410088927 0.0508434680766031 0.9826863797620591	0.106123
H	0.2779767220673575 0.1089866437750486 0.9829162105900301	0.114838
H	0.4477501310073472 0.2726896241332176 0.9937443416776075	0.092022
H	0.3866349036361514 0.2138299992921598 0.9821534730924532	0.124594
H	0.5529840032595150 0.3817140593524686 0.9924553899765076	0.100160
H	0.6098946153033462 0.4443990872205354 0.9817665181628079	0.119190
H	0.7161426146264506 0.5507704995715816 0.9826940936354512	0.105675
H	0.7779990421865824 0.6089196434780486 0.9829172878279613	0.114700
H	0.9469863817004229 0.7724007259582154 0.9925858580752269	0.099542
H	0.8862230688081407 0.7138780758509947 0.9819989929885812	0.123928
H	0.9482173823876769 0.1174263754053192 0.4925497526894005	0.100109
H	0.8900905917207177 0.0559616709207422 0.4816590847887647	0.120134
H	0.7839386926961895 0.9492640789213388 0.4826610866699818	0.106583
H	0.7221583319334246 0.8910777992617142 0.4829407697981347	0.114622
H	0.5539860725085528 0.7266142754424305 0.4925697615949000	0.099322
H	0.6136505857953397 0.7862340600453418 0.4819921059819178	0.123693
H	0.4487639666125843 0.6174268356907886 0.4936572107598822	0.093596
H	0.3902091675940779 0.5556333021206892 0.4818349664245307	0.120276
H	0.2836990778366992 0.4490502785764375 0.4826898953732968	0.107083
H	0.2220007983612050 0.3908978167238127 0.4828928202914543	0.114811
H	0.0535107775063057 0.2255985713659077 0.4938240786399213	0.091999
H	0.1135305566866124 0.2856179173643784 0.4820945602899052	0.125038
H	0.9479030811782146 0.8828932803950167 0.5075061551977175	0.100834
H	0.8897900600537734 0.9443764042851243 0.5182622858479882	0.119725
H	0.7835930754475555 0.0510416244596910 0.5173105481349833	0.107828
H	0.7217689922738989 0.1091993952246833 0.5170734773944698	0.114858
H	0.5521699427171004 0.2728016069570902 0.5062870085537676	0.092399
H	0.6132949500600348 0.2139251999551679 0.5177768659910423	0.124935
H	0.4469146035496366 0.3818442388463211 0.5075437964260084	0.100094
H	0.3899993358573469 0.4444981557974659 0.5182157134884670	0.119101
H	0.2836108166661466 0.5509843374565050 0.5173070036424384	0.106919
H	0.2218404924929307 0.6091859536591070 0.5170862162410667	0.114751
H	0.0536091677346036 0.7742647121173074 0.5062708516161678	0.091476
H	0.1136578369097840 0.7142200696480577 0.5177835182625360	0.124707
H	0.0525276128835830 0.1191743326976026 0.0063740741324078	0.092360
H	0.1098656740470763 0.0561499723065051 0.0181042507525893	0.119556
H	0.2159031620439193 0.9494772635065488 0.0172894760745064	0.106230
H	0.2776337799108469 0.8912498534279973 0.0170782916260765	0.115182
H	0.4458919539560794 0.7267263738952415 0.0074539222124359	0.099844
H	0.3862433021001921 0.7863469052890685 0.0179739723940260	0.123843
H	0.5511903519896361 0.6175345460743591 0.0063336639452366	0.093003
H	0.6097398608455612 0.5556935160889759 0.0180999571323721	0.120224
H	0.7160107548697823 0.4493352215555282 0.0172985674923607	0.106563
H	0.7778295952590647 0.3911766685093094 0.0170692134918172	0.114873
H	0.9470084390017350 0.2275877986746465 0.0074937834926501	0.099143
H	0.8862786437040175 0.2860605843743998 0.0180163079314523	0.123838
Ni	0.4999662308141888 0.6732243598162988 0.7499999236955995	0.773454
Ni	-0.0004022750672440 0.1729071738752776 0.7500057490128905	0.771627
Ni	0.4999355915199777 0.3274856835190594 0.2499997095212527	0.772718
Ni	-0.0004088528006062 0.8272158700051120 0.2500037252882387	0.772679
Fe	0.4999480491387649 0.6713067568322811 0.2500060395871646	1.503670
Fe	0.0018372743775066 0.1731045737564411 0.2500077418715601	1.502444
Fe	0.4998900511509335 0.3250987830699066 0.7499987790815004	1.503666
Fe	0.0019267732603446 0.8269752497226883 0.7500027818839865	1.504120
F	0.4997082820730769 0.6073839107352090 0.2499937681719575	-0.576324
F	0.9730057402343691 0.2300047898150007 0.2499781748400563	-0.571751
F	0.9732115947795454 0.1160933381326140 0.2499901131221357	-0.568268
F	0.4999855975206502 0.2611990259962180 0.7499918337798075	-0.578883
F	0.9731942213542876 0.7700407814556579 0.7500066375859650	-0.572907
F	0.9735640456393339 0.8840494090607454 0.7499835821720803	-0.569593
F	0.5553419005775990 0.7006179788709709 0.2500303784962503	-0.571436
F	0.0639488154329214 0.1731004782196464 0.2499901104257657	-0.579240
F	0.4447409329877093 0.3546934903228063 0.7500011686186451	-0.570268
F	0.4446225866017210 0.7007326620599982 0.2499975548235892	-0.572044
F	0.5551293253972758 0.3544876045398312 0.7500009524317576	-0.569830
F	0.0639795186856300 0.8270159328497497 0.7499931053072882	-0.579619
F	0.4999498883334842 0.6733927288869210 0.4955201071750172	-0.571333
F	-0.0000069791456485 0.1731520802400855 0.4958210788626225	-0.570651
F	0.4998743889516760 0.3270029017443738 -0.0035390462252848	-0.572214
F	-0.0002216830592383 0.8270544141070201 -0.0045137424437346	-0.571258
F	0.4999524339552567 0.6733965450393853 0.0044957777818251	-0.571294
F	-0.0000007647870013 0.1731488353929364 0.0041849708517388	-0.570597
F	0.4998775683134589 0.3270018553826981 0.5035308557133839	-0.572219
F	-0.0002258204653420 0.8270521986202137 0.5045155287989121	-0.571250
N	0.5506608300309112 0.7245186344674990 0.7499988113032464	-0.235143
N	0.9501006368051492 0.1208244528483832 0.7500047733825697	-0.234467
N	0.0504587775249243 0.2238478191547466 0.7499996156462390	-0.231717
N	0.4503583618739941 0.6205418148256500 0.7499974601952836	-0.231801
N	0.4496307312158299 0.2757256512672656 0.2500013209448159	-0.232473
N	0.0499141862627019 0.8791567931824787 0.2499994781320674	-0.231230
N	0.9490855538736709 0.7757610469868738 0.2499978539586258	-0.235937
N	0.5498243590222626 0.3795368080028262 0.2500000064958765	-0.232902
N	0.4492084021381646 0.7246063943901073 0.7499978682941385	-0.234262
N	0.0497254673649164 0.1210768858481490 0.7500047037688337	-0.232255
N	0.9491430817296477 0.2242097206071464 0.7500027033697586	-0.235621
N	0.5495778721102316 0.6206093406601745 0.7499979604651321	-0.233098
N	0.5502680878257571 0.2758058926242356 0.2499970936382493	-0.230931
N	0.9498077355371422 0.8795149655552950 0.2499996840839592	-0.235404
N	0.0505886818773046 0.7760445237096487 0.2499995388207327	-0.234009
N	0.4500464078788370 0.3796405071452804 0.2500011470525009	-0.234276
	  	
