#======================================================================

# CRYSTAL DATA

#----------------------------------------------------------------------

data_VESTA_phase_1


_pd_phase_name                         FeFFIVE_18_Ni
_cell_length_a                         13.93479
_cell_length_b                         13.95278
_cell_length_c                         7.93726
_cell_angle_alpha                      89.77645
_cell_angle_beta                       95.60313
_cell_angle_gamma                      89.99411
_symmetry_space_group_name_H-M         P 1
_symmetry_Int_Tables_number            1

loop_
_symmetry_equiv_pos_as_xyz
   x, y, z

loop_
   _atom_site_label
   _atom_site_fract_x
   _atom_site_fract_y
   _atom_site_fract_z
   _atom_site_charge
F	0.5033927836184093 0.3413951767778236 0.5060962007996797	-0.569170
F	0.5215058166640444 0.4914384233632107 0.7450467843528558	-0.564176
F	0.3744178139513814 0.5206972503888533 0.5142060658658515	-0.553992
F	0.0033593987545850 0.8412757121528375 0.5062968833533171	-0.569253
F	0.0215090283523178 0.9915874285024958 0.7452361240534771	-0.563899
F	0.8741809040196824 0.0207305528184277 0.5142103268095085	-0.554046
F	0.6262455508367947 0.5239937438609187 0.4901392654007043	-0.552216
F	0.4798924291440731 0.4891693677529063 0.2597852562932838	-0.566675
F	0.1262598760952696 0.0241575173079191 0.4901396961533342	-0.551663
F	0.9799631793728291 -0.0109318716779128 0.2598178307405904	-0.565898
C	0.6833729375549181 0.1643052034014031 0.6572855490373455	-0.422226
C	0.7562317873312473 0.1547906609246682 0.8061831018843230	0.201018
C	0.7620657156441422 0.1989711857430371 0.9648179156183138	-0.152932
C	0.6921925436538237 0.2647898817699476 0.0265369232305508	-0.145280
C	0.6758549471212452 0.3623510449627617 0.9812920236754864	0.218828
C	0.7307024585426143 0.4228674664699523 0.8685293023634988	-0.428424
C	0.8887221766175361 0.1911677246849037 0.2275665630602517	-0.433091
C	0.8485555533539580 0.1645606994521678 0.0533124318103988	0.218371
C	0.6248175922598136 0.2428831854782372 0.1410424977009123	0.207991
C	0.6021099524920618 0.1512014487864183 0.2251215113003968	-0.428899
C	0.1833155372948445 0.6643286148655039 0.6571986000927581	-0.421964
C	0.2562272181740231 0.6548274764236021 0.8060733011964302	0.201192
C	0.2620811998436418 0.6989850070043560 0.9647260362130750	-0.153085
C	0.1921663253988860 0.7647659619063815 0.0264723493021524	-0.145151
C	0.1759185391786185 0.8623837493566673 0.9814743749887622	0.218568
C	0.2307773701561115 0.9228910953626013 0.8687490152342602	-0.428138
C	0.3887032984120931 0.6911901332615757 0.2274858600669804	-0.432715
C	0.3485703604043571 0.6645916029793184 0.0531810626614687	0.217833
C	0.1248453710842539 0.7428805068491217 0.1410550930898136	0.207874
C	0.1021216685539741 0.6511850804600197 0.2250996677458433	-0.428667
C	0.3140398538804815 0.1662294968075841 0.3441913595682540	-0.422325
C	0.2423632909055267 0.1555663296805588 0.1938898607469567	0.199748
C	0.2381526548659495 0.1979653745926496 0.0331435343144774	-0.153091
C	0.3095369027787713 0.2625192289759703 0.9718573618826198	-0.143200
C	0.3261606398354183 0.3597292012252936 0.0175184671901515	0.216412
C	0.2692294172460749 0.4199356422875141 0.1265677648766249	-0.429633
C	0.1097753116442311 0.1926552207500407 0.7718994156067699	-0.432753
C	0.1506446581291565 0.1654328610900212 0.9459375614115215	0.220179
C	0.3780002079152368 0.2405399850530332 0.8597843245497400	0.208653
C	0.4000008030417992 0.1494873315346773 0.7741317121072581	-0.427967
C	0.8140717881999094 0.6660781894091786 0.3440154968525285	-0.421735
C	0.7423372905650600 0.6555532040089289 0.1937858588255972	0.199903
C	0.7380974687984370 0.6979599464189723 0.0330595651050226	-0.152985
C	0.8095401710923279 0.7624886594704794 0.9718218586988345	-0.143729
C	0.8262056286350122 0.8597212834154263 0.0175303664759119	0.216399
C	0.7693316138497648 0.9199333762599243 0.1266134372131313	-0.429493
C	0.6097558643116078 0.6926837806320442 0.7717943810886855	-0.432867
C	0.6505875329499680 0.6654302438503443 0.9458463482153491	0.219672
C	0.8780055230236016 0.7405525344683588 0.8597166137323459	0.209049
C	0.9000264894776513 0.6495336932513465 0.7739740461694702	-0.428358
H	0.7171360055994390 0.1859269743055732 0.5436467049468382	0.145157
H	0.6297834007455523 0.2188497443100834 0.6812085091038863	0.139423
H	0.6456607505214227 0.0961495537982912 0.6285414867170327	0.133652
H	0.6839596005893427 0.4534386219128210 0.7628133584456778	0.147649
H	0.7868956695413272 0.3797619575971243 0.8174243863325213	0.132628
H	0.7654427202392700 0.4831731120252158 0.9393612887679174	0.131863
H	0.8552336402319524 0.0585093945104767 0.7058257310691211	0.277842
H	0.8677547258370218 0.1391734043706165 0.3216496835167406	0.140604
H	0.8609989404549704 0.2619116235281098 0.2589935149795775	0.130672
H	0.9677609960134331 0.1936709912397040 0.2380870082519583	0.140348
H	0.5644365189000509 0.1643970149479613 0.3378640089649108	0.143038
H	0.6678947842298030 0.1100457449282871 0.2621435224956388	0.150702
H	0.5550414821883618 0.1061987121296483 0.1385889046352632	0.134153
H	0.5239017969361784 0.3371256143222538 0.2405965662532984	0.270327
H	0.2170936950902719 0.6860193696052830 0.5435181913443996	0.144990
H	0.1297011496162038 0.7189305629802457 0.6810866898679060	0.139352
H	0.1456434917421954 0.5961001450783356 0.6283477013088633	0.133561
H	0.1841185316341837 0.9534116744209937 0.7628576803293734	0.147611
H	0.2869764362714934 0.8797713337384254 0.8176910778023474	0.132433
H	0.2655300888603516 0.9832164654444143 0.9395319086718795	0.131683
H	0.3552348409093575 0.5585811375279620 0.7056413457817068	0.278481
H	0.3677444300980187 0.6390638049314469 0.3214725319979926	0.140717
H	0.3609973804373237 0.7619786933262512 0.2588328313239709	0.130657
H	0.4677492928240963 0.6936393632569748 0.2378814353024743	0.140376
H	0.0643681589000717 0.6643375481039447 0.3377427605436846	0.143025
H	0.1678987705173983 0.6100047784920204 0.2621221480662845	0.150549
H	0.0550979641216442 0.6062118444572729 0.1384722087996789	0.134217
H	0.0240744499296281 0.8371101138596431 0.2407572211206832	0.269896
H	0.2780183096860590 0.1827165155827228 0.4576179021339090	0.144871
H	0.3642417609351367 0.2247148769466641 0.3239852203187384	0.140372
H	0.3561269896816160 0.1002510455727788 0.3711504665758730	0.133403
H	0.3150901626954609 0.4572086820390249 0.2255177999240266	0.148883
H	0.2177157143714196 0.3746018013306099 0.1860636223160788	0.133765
H	0.2283262721460851 0.4746740561891971 0.0495132776425480	0.132361
H	0.1421017755812920 0.0615989283073979 0.2969074511847377	0.277605
H	0.1278465982980241 0.1399320753662296 0.6775416151598420	0.141412
H	0.1387815756073230 0.2625395407991031 0.7377765191085797	0.129316
H	0.0308876429500785 0.1973579773340712 0.7645623411336672	0.140230
H	0.4394447926979579 0.1637088798282780 0.6636379307738726	0.141893
H	0.3337772705236422 0.1102004339323786 0.7327169485792330	0.150771
H	0.4449516024246832 0.1019577834739508 0.8602962984883981	0.133856
H	0.4797808190464058 0.3344477442413065 0.7614366454838827	0.269654
H	0.7780726861045003 0.6826071400722571 0.4574720354136071	0.144277
H	0.8642543249382874 0.7246129868455197 0.3238341082847688	0.140418
H	0.8561337663570049 0.6000309813308071 0.3709477421631270	0.133643
H	0.8151849918331922 0.9571652859410226 0.2256136230727238	0.148777
H	0.7177870151783065 0.8746788915475137 0.1861862105803792	0.133586
H	0.7283928619123256 0.9747117421540669 0.0497261985255706	0.132198
H	0.6421013806869069 0.5616029175773360 0.2965969119226177	0.277321
H	0.6276946381025182 0.6398535430310074 0.6774367729585514	0.141615
H	0.6389173862297850 0.7625314351813987 0.7376970698499958	0.129274
H	0.5308582633164403 0.6976514762722892 0.7645867006042865	0.140303
H	0.9394740685339594 0.6637832585960519 0.6635082649920384	0.142026
H	0.8338117873000293 0.6102497384500880 0.7327625251212264	0.151009
H	0.9449597216464523 0.6020539509704006 0.8601736337028025	0.133973
H	0.9797753347517421 0.8344415327816687 0.7615991862268849	0.269317
N	0.8343410677041463 0.0975943179804968 0.8069875335922003	-0.151010
N	0.6027147410372454 0.3969364446873447 0.0621610595271296	-0.258792
N	0.8914942054881598 0.1026149331323184 0.9549732732231686	-0.254028
N	0.5740845616207978 0.3239251220134205 0.1582586505950539	-0.146968
N	0.3343253984024411 0.5975855310739195 0.8068499885448690	-0.151786
N	0.1027526628980848 0.8969850456778663 0.0622218893498577	-0.258552
N	0.3914900499195252 0.6026262540922580 0.9548248468644016	-0.253745
N	0.0741364573176774 0.8239445186562578 0.1582829241838191	-0.146786
N	0.1627629016351622 0.1007407611499065 0.1951016829590772	-0.151817
N	0.4005530827029887 0.3941207769663129 0.9395615189385882	-0.258452
N	0.1060203319310876 0.1055882839623878 0.0466443613087917	-0.255442
N	0.4299326424039299 0.3212086818991629 0.8447319580137094	-0.148065
N	0.6627579668376962 0.6007478778528119 0.1949317855658167	-0.151553
N	0.9006469926401292 0.8941344882065783 0.9397357557846819	-0.258429
N	0.6059856973771163 0.6055718125624001 0.0465665753592989	-0.255039
N	0.9300084957367698 0.8211923670585819 0.8449655261181613	-0.147943
Fe	0.5008278544593439 0.4751868448743544 0.5028594126322441	1.511534
Fe	0.0008965635227583 0.9753203031342513 0.5030345970172228	1.510769
Ni	0.4999913207215715 0.5040249673345989 0.0010910295347041	0.811069
Ni	0.0000256570988733 0.0040997612677919 0.0012838251767369	0.811299
	  	
