#======================================================================

# CRYSTAL DATA

#----------------------------------------------------------------------

data_VESTA_phase_1


_pd_phase_name                         FeFFIVE_16_Zn_i
_cell_length_a                         25.14576
_cell_length_b                         25.14674
_cell_length_c                         7.78230
_cell_angle_alpha                      89.81306
_cell_angle_beta                       90.06785
_cell_angle_gamma                      90.05452
_symmetry_space_group_name_H-M         P 1
_symmetry_Int_Tables_number            1

loop_
_symmetry_equiv_pos_as_xyz
   x, y, z

loop_
   _atom_site_label
   _atom_site_fract_x
   _atom_site_fract_y
   _atom_site_fract_z
   _atom_site_charge
C	0.4782741233882975 0.3876614212452613 0.3679130801971952	0.097558
C	0.4773467373220807 0.3324326758424407 0.3642344333331175	-0.172122
C	0.9549163315238987 0.6133187163593514 0.9437396091146135	-0.126544
C	0.9551041061535176 0.5581248659847512 0.9445076379040123	-0.123698
C	0.5207738702580734 0.6129753969345023 0.3656967682909112	0.104584
C	0.5220104466322312 0.6681441983801679 0.3603080719095986	-0.173826
C	0.0450468589051310 0.3875103384636696 0.9439216203385649	-0.126253
C	0.0448817480046010 0.4427053350392364 0.9445228211266384	-0.125030
C	0.6127148125124312 0.4792936320718530 0.3681901969820665	0.095356
C	0.6679125503940635 0.4782778132397426 0.3641317157170643	-0.172002
C	0.3872878469879297 0.9549810790191847 0.9437869194732561	-0.126286
C	0.4424969816143453 0.9551451490665410 0.9446214958049669	-0.124970
C	0.3875763440774275 0.5218067219171926 0.3689282898139805	0.100819
C	0.3323911899348227 0.5227633022495812 0.3632136450865949	-0.174190
C	0.6132227352507935 0.0451419453277353 0.9438428492052926	-0.125776
C	0.5580240571237611 0.0449675136373083 0.9444727883901239	-0.124480
C	0.5215671267058051 0.3877359792902628 0.6319518106287774	0.101003
C	0.5226714439056207 0.3325358893662929 0.6374287297284327	-0.173393
C	0.0451063382863980 0.6132824664678033 0.0561273823324742	-0.126318
C	0.0449388361525264 0.5580899650767864 0.0554927190468978	-0.123892
C	0.4792444142482732 0.6129961963165642 0.6319525065873051	0.096084
C	0.4782871117542614 0.6681813623550021 0.6357726551411371	-0.172181
C	0.9549349844764482 0.3873786589294615 0.0562589453137018	-0.125865
C	0.9551071216962723 0.4425732439023166 0.0554122722533936	-0.124778
C	0.3874234515837184 0.4779286672286585 0.6321838352000086	0.100146
C	0.3321937708492214 0.4770759252654226 0.6360740306576479	-0.173090
C	0.6131956139196336 0.9548840795769250 0.0562838150998975	-0.125899
C	0.5579978836993212 0.9550683344892960 0.0555087918876053	-0.124369
C	0.6127306421219175 0.5208323171273822 0.6341876591036434	0.104733
C	0.6678992614781222 0.5219623132524247 0.6393385364307519	-0.173176
C	0.3873709042795541 0.0450045373238201 0.0560031751489546	-0.126517
C	0.4425804374334362 0.0448266123696391 0.0554102944608886	-0.124804
C	0.5450643261629874 0.8870086772585400 0.5558777852503214	-0.125570
C	0.5448519195171628 0.9422583716801111 0.5554099150283586	-0.124817
C	0.0212834851580482 0.1136755139504725 0.1344104129025382	0.106670
C	0.0224342944377973 0.1688687427868372 0.1390933544833173	-0.173229
C	0.4550394142665273 0.1132963395595744 0.5562381664211672	-0.126297
C	0.4551590141104563 0.0580350553434992 0.5553534045407894	-0.123706
C	0.9782492093491847 0.8869325897417170 0.1283433723948294	0.100388
C	0.9774012006890064 0.8317208162151432 0.1336022004459414	-0.173239
C	0.1132646164202161 0.5450088294879143 0.5557963688944577	-0.125729
C	0.0580150064359361 0.5448209286889860 0.5552204118085670	-0.124643
C	0.8868950925280754 0.0221199943839471 0.1323759328881110	0.099778
C	0.8316799970840359 0.0230532919106590 0.1375447761059514	-0.173566
C	0.8868716128378246 0.4549374348854379 0.5563271576921963	-0.125447
C	0.9421106067876849 0.4550628457957980 0.5553888854420975	-0.124664
C	0.1134451162467413 0.9788753585658738 0.1314182608288371	0.096534
C	0.1686530527425787 0.9776696129124518 0.1359667360647501	-0.173067
C	0.4549570562161163 0.8870519660016918 0.4436588847870396	-0.125204
C	0.4550713184292982 0.9423006653582137 0.4446425302577212	-0.124864
C	0.9788567905206081 0.1137748217289336 0.8695196695611750	0.098212
C	0.9776756892097186 0.1689725807217034 0.8647834967787704	-0.173943
C	0.5450489725351457 0.1134387565728064 0.4441541338002954	-0.126724
C	0.5448474330703192 0.0581710385733130 0.4446839369624504	-0.124630
C	0.0218909016565182 0.8871537956550740 0.8655594190368568	0.101541
C	0.0229607883111741 0.8319250430591110 0.8609391774952699	-0.173543
C	0.8868958147743666 0.5450843612381281 0.4440300665836219	-0.125737
C	0.9421350523811887 0.5448878635751246 0.4445446313929407	-0.124551
C	0.1135080408446033 0.0212821346926306 0.8661645058230684	0.105400
C	0.1687070525147540 0.0223651771041497 0.8613355253546822	-0.173735
C	0.1131790510952577 0.4550579181806299 0.4438153317316784	-0.125376
C	0.0579337619630258 0.4552009153862788 0.4446099178005644	-0.124693
C	0.8868236335502124 0.9779375663582993 0.8708988460864344	0.098607
C	0.8316021927318065 0.9771551697231654 0.8657148381839876	-0.172140
C	0.5000110856117326 0.3035023893542509 0.5012222840097509	0.175679
C	0.5001071429999128 0.2470326122538287 0.5014927612105055	-0.115136
C	0.5001264024962302 0.1984994130429631 0.5009083761947091	-0.096666
C	0.5000846708286316 0.1420265973550019 0.5004033947721153	0.125831
C	0.4999858430154437 0.0294772582369092 0.5000417666522119	0.067003
C	0.0002088231762667 0.8029777433423840 0.9974740747543690	0.174185
C	0.0002292979942971 0.7466072272218354 0.9981095055054772	-0.115211
C	0.0001037262071365 0.6981243726910371 0.9992002393036639	-0.096901
C	0.0000292041697621 0.6417976608365599 -0.0001919923816780	0.125484
C	0.0000244670662391 0.5296033111123537 -0.0000310046428452	0.064854
C	0.5001346019976564 0.6971144158954806 0.4976250873556228	0.173244
C	0.5001937003365303 0.7535257091219566 0.4974517093188315	-0.114243
C	0.5001332548785629 0.8020266293530733 0.4985537287530988	-0.096569
C	0.5000454812584535 0.8584345959936464 0.4994385464050685	0.124556
C	0.4999646436897962 0.9708947308289499 0.5000323904370904	0.066082
C	-0.0000003756613358 0.1977727855369381 0.0019036001829981	0.173099
C	-0.0000132768895452 0.2541281144770349 0.0015083906862329	-0.115593
C	-0.0000014004008876 0.3026137613943410 0.0007447861746570	-0.096285
C	-0.0000100352508415 0.3589384806842896 0.0002453787535758	0.124267
C	0.0000108858185004 0.4711347789196268 -0.0000547832530451	0.068768
C	0.6968779178786286 0.5000721857728312 0.5019685101117800	0.173435
C	0.7533117513499626 0.5001040077842756 0.5019455877297369	-0.114260
C	0.8018310284936714 0.5000891367910493 0.5010884108278287	-0.096219
C	0.8582564512734785 0.5000346317659745 0.5004167022014743	0.125168
C	0.9707522025413867 0.4999773567706284 0.4999382624612557	0.065688
C	0.1975706206153497 0.9999563330740854 0.9986657286011545	0.173927
C	0.2539545503939837 -0.0000467813819643 0.9989440611634874	-0.115274
C	0.3024467075509012 0.0000081241036078 0.9993911185054469	-0.096652
C	0.3587997146602993 -0.0000022444313146 -0.0002432781589197	0.125222
C	0.4710406729458891 -0.0000030183411420 0.0000375351011965	0.068148
C	0.3033114157789678 0.4999196800012467 0.4993381220141460	0.177048
C	0.2468619203741187 0.5000131307835985 0.4990646376374294	-0.117542
C	0.1983279005589378 0.5000644727742792 0.4994325243666110	-0.094380
C	0.1418722803509111 0.5000588404929754 0.4996904387701750	0.124504
C	0.0293399027393530 0.4999977206184023 0.4999063712607090	0.069436
C	0.8028052847088655 0.0001119176356081 0.0015319541297865	0.174740
C	0.7464587958532892 0.0001493369925334 0.0011705553760798	-0.116315
C	0.6979840312383392 0.0000736866864833 0.0005573264538084	-0.095533
C	0.6416743863969501 0.0000290869541358 0.0001506916600658	0.124290
C	0.5295173945824845 0.0000154046506608 0.0000218777647239	0.066820
H	0.4620711694940061 0.4110480647345937 0.2612906903211216	0.105534
H	0.4594765321646260 0.3119761160810670 0.2553955407039497	0.125228
H	0.9201562436577045 0.6351377754534268 0.8985022596684579	0.111797
H	0.9204388266920102 0.5365562716821813 0.8971783335101471	0.105611
H	0.5358017229223473 0.5893591927881182 0.2592818045208996	0.097951
H	0.5393525779179517 0.6885814923923724 0.2503348136607527	0.124357
H	0.0797884291580690 0.3657777150684814 0.8987980534436560	0.111041
H	0.0795333649678267 0.4643408398657303 0.8971821314724183	0.106068
H	0.5894862543690900 0.4644902242256245 0.2597277233628560	0.107209
H	0.6882933133650231 0.4611313585986613 0.2541467075673940	0.125875
H	0.3654955301357042 0.9202531399043975 0.8985824743110723	0.111453
H	0.4640604885335556 0.9205416745909800 0.8974618020499768	0.106603
H	0.4115338706386769 0.5387742642244359 0.2653698101796668	0.097823
H	0.3120059345075600 0.5408585519289064 0.2543684217320953	0.124429
H	0.6350599627592802 0.0799164885035827 0.8986640498056900	0.111611
H	0.5364503221470187 0.0796458414081517 0.8970811616791133	0.106041
H	0.5381914852340454 0.4115517110073791 0.7361297910998821	0.098598
H	0.5407118265838255 0.3121464559897913 0.7463795349829978	0.125132
H	0.0798728963064144 0.6350679910092542 0.1013250171928093	0.111299
H	0.0796039335789224 0.5364885077708579 0.1028333545676746	0.105366
H	0.4646029180179985 0.5897424011365076 0.7407043214188624	0.107534
H	0.4611744801903694 0.6885904444383164 0.7457554673167138	0.125234
H	0.9201854643561136 0.3655387297179934 0.1015048765318047	0.111305
H	0.9204706532342191 0.4641012802391845 0.1026334508949906	0.106395
H	0.4109047990064865 0.4612636153535801 0.7378546889359836	0.104204
H	0.3116335235784578 0.4590442796594685 0.7446716283352884	0.124837
H	0.6350179270150277 0.9201217522633733 0.1015081484239638	0.111865
H	0.5364063620858428 0.9203801103438464 0.1028540196670108	0.105986
H	0.5890842585529603 0.5360357566327123 0.7403570609393072	0.096429
H	0.6883485055669941 0.5392362369859185 0.7491544463137813	0.124482
H	0.3656359101561426 0.0797322803853141 0.1010672771747995	0.111214
H	0.4641974807332752 0.0794375047280829 0.1026963914909521	0.106391
H	0.5798652014530237 0.8652381324278384 0.6010390666984230	0.110720
H	0.5795806572660004 0.9637046866240657 0.6028971558979352	0.105975
H	0.0368019243415382 0.0899075827242982 0.2403083474937238	0.097443
H	0.0400278515513660 0.1893978978297195 0.2481496973013723	0.123300
H	0.4202548740777776 0.1349244951396803 0.6014920985807739	0.111050
H	0.4204244237984064 0.0365011346416993 0.6025742466400240	0.105735
H	0.9617870115060644 0.9103730248594655 0.2334421041891738	0.102217
H	0.9594806396669059 0.8111336411768805 0.2423427092791441	0.125185
H	0.1349970588699946 0.5797810065448212 0.6009807416455640	0.110861
H	0.0365451955116688 0.5794706199314118 0.6025599966554493	0.106165
H	0.9108385203807678 0.0393662115464453 0.2352564758798688	0.095099
H	0.8110433494148608 0.0411592768023252 0.2453481558975332	0.123733
H	0.8651235503750151 0.4201247652082893 0.6016634828419122	0.111350
H	0.9635951310593490 0.4202880447776768 0.6026104730508450	0.106139
H	0.0899078737735874 0.9636522247803014 0.2385333794697148	0.106203
H	0.1891005488849893 0.9600177882958748 0.2454742838973095	0.125739
H	0.4201686884191838 0.8653221369281381 0.3983573335465454	0.111144
H	0.4203042259434350 0.9637852219905453 0.3974743658455573	0.106346
H	0.9637716558542860 0.0903019503873634 0.7624134901858260	0.105817
H	0.9600434481320703 0.1895096075720625 0.7553662701624365	0.125560
H	0.5798666039736520 0.1351601344416220 0.3989119911587398	0.111223
H	0.5795311356608669 0.0367422782763951 0.3972797348524619	0.106060
H	0.0387530289217116 0.9110236937424523 0.7615579112644307	0.098301
H	0.0409847585161963 0.8113664120195666 0.7528628159466816	0.124621
H	0.8651660541376336 0.5799144844219395 0.3988376737327536	0.110885
H	0.9636343918107938 0.5796336078325173 0.3970663562379148	0.106020
H	0.0897402199670890 0.0369406338334394 0.7604561277381240	0.097630
H	0.1892727482103887 0.0399525588723273 0.7520912998668460	0.123346
H	0.1348688118601497 0.4203139785031325 0.3986535061427505	0.111038
H	0.0364103657252449 0.4205142454824959 0.3973771212702697	0.105810
H	0.9104278570884008 0.9610238701388214 0.7668155608946347	0.100925
H	0.8109466086075322 0.9591091812127506 0.7575778909590234	0.124625
Zn	0.5000321826664189 0.5001658197347252 0.5001286279877851	0.736694
Zn	0.0003165777077049 0.0003671862815661 -0.0001223826655283	0.743847
Fe	0.4992835394232877 0.4985844146926397 -0.0000786014884857	1.518227
Fe	-0.0032118031167993 -0.0029282035272057 0.5000556282834684	1.509553
F	0.5002161761158842 0.4986202084681096 0.2396288277021046	-0.553679
F	0.9963604017134785 0.0032309766971199 0.7461895463902564	-0.555051
F	0.4976120731361511 0.5015749469756478 0.7604819345516509	-0.553439
F	0.0015338656335245 -0.0031593141666330 0.2539919340623769	-0.553783
F	0.4481202754733322 0.4436296416000823 -0.0013744780290204	-0.609395
F	0.9480485928179231 0.9415128404714427 0.5021575984283746	-0.597570
F	0.4787199992274349 0.5702795636586524 0.0075067572540126	-0.612798
F	0.9770897615271315 0.0689954209698195 0.4875757616077429	-0.609927
F	0.5700677461552105 0.4745770072931034 0.9923025325670757	-0.610645
F	0.0672329899592643 0.9731878869360903 0.5150198237921640	-0.604192
N	0.4998813272423107 0.4147952133725232 0.4997837738680709	-0.222958
N	0.0000143443289267 0.9141148434991845 0.9966484116230815	-0.226269
N	0.4999322110624686 0.5858195756275048 0.4989267542574680	-0.228495
N	0.0000818851468262 0.0866122729582867 0.0022392956546798	-0.230007
N	0.5855558320461489 0.5000584742384285 0.5012106818822238	-0.227772
N	0.0863705293948870 0.0001456956806636 0.9986193693234130	-0.226181
N	0.4145856573994619 0.4998983520864660 0.5007025993392965	-0.222943
N	0.9139096596709050 -0.0000019329900590 0.0019019703992214	-0.221926
	  	
