#======================================================================

# CRYSTAL DATA

#----------------------------------------------------------------------

data_VESTA_phase_1


_pd_phase_name                         FeFFIVE_2_Cu_i
_cell_length_a                         13.72856
_cell_length_b                         13.72851
_cell_length_c                         8.33126
_cell_angle_alpha                      89.99988
_cell_angle_beta                       90.00055
_cell_angle_gamma                      89.82760
_symmetry_space_group_name_H-M         P 1
_symmetry_Int_Tables_number            1

loop_
_symmetry_equiv_pos_as_xyz
   x, y, z

loop_
   _atom_site_label
   _atom_site_fract_x
   _atom_site_fract_y
   _atom_site_fract_z
   _atom_site_charge
C	0.0000174444067797 0.3005570405264685 0.3550211696320268	-0.156697
C	-0.0004544225114821 0.1995160909544598 0.3601103190108765	0.096358
C	0.5000173819496422 0.8005700734147704 0.8550439863957284	-0.156578
C	0.4995559433019924 0.6995369714979606 0.8601107256753242	0.096069
C	-0.0003474539422389 0.7003568772473830 0.3549370517537271	-0.158101
C	-0.0008930661591043 0.8013577002104511 0.3602434315011583	0.102173
C	0.4996485780699534 0.2003410218135722 0.8549160202138251	-0.158223
C	0.4991021802321417 0.3013433961583151 0.8602484920820116	0.101965
C	0.7003561681012344 -0.0003483280823120 0.3549382133762362	-0.158062
C	0.8013576146968338 -0.0008937595490974 0.3602427877883933	0.102206
C	0.2003411013600564 0.4996478123888659 0.8549139648970159	-0.158284
C	0.3013446872872727 0.4991008621736964 0.8602474022274635	0.102021
C	0.3005565574872770 0.0000169185212331 0.3550208395311657	-0.156811
C	0.1995163900444301 -0.0004551347616660 0.3601107437798410	0.096360
C	0.8005695775111997 0.5000175450004453 0.8550460671292825	-0.156594
C	0.6995411424824226 0.4995546475242152 0.8601119105047016	0.096014
C	0.0000177260610397 0.3005556480382426 0.6449794322871607	-0.156632
C	-0.0004540934883681 0.1995144822667016 0.6398896417652975	0.096315
C	0.5000173731314739 0.8005697468872440 0.1449565903310404	-0.156557
C	0.4995559408777518 0.6995367873321472 0.1398904289800173	0.096134
C	-0.0003477440026698 0.7003583156747325 0.6450623375123365	-0.158087
C	-0.0008938323235490 0.8013560956665433 0.6397552760517889	0.102199
C	0.4996481550623836 0.2003403333717683 0.1450881617829106	-0.158239
C	0.4991008714868703 0.3013430417089218 0.1397527779620038	0.101943
C	0.3005585901440721 0.0000171761526027 0.6449810231185240	-0.156825
C	0.1995177480081030 -0.0004549770733173 0.6398900120136428	0.096381
C	0.8005739349210674 0.5000164422126480 0.1449566523937156	-0.156728
C	0.6995384884925433 0.4995538367980809 0.1398953900646185	0.096029
C	0.7003588388270039 -0.0003479295404213 0.6450629659615614	-0.158024
C	0.8013598102526679 -0.0008933866323565 0.6397567937763038	0.102166
C	0.2003433410124841 0.4996478898030576 0.1450880351400229	-0.158245
C	0.3013462500503676 0.4991000884458879 0.1397524513582845	0.101960
C	0.0009996667760879 0.4560068860700460 0.5000005993605365	-0.085765
C	0.0005087268817313 0.3531049022456685 0.5000012175833241	0.161273
C	0.5009855767797626 0.9559980474044251 -0.0000002229495127	-0.086315
C	0.5005133115189726 0.8531183382999515 0.0000002301444133	0.160917
C	0.0010007570275771 0.5448185546232871 0.4999993989357706	-0.101189
C	0.0003153810605314 0.6477227913253869 0.5000005352270519	0.162608
C	0.5009910948400874 0.0448056392286014 0.0000001967916528	-0.101151
C	0.5003172982652574 0.1477078520900429 0.0000011417016787	0.162232
C	0.5448202720141511 0.0009987024117596 0.5000007604229774	-0.101539
C	0.6477235745689016 0.0003141378633410 0.4999980884105562	0.162611
C	0.0448090012287097 0.5009923847115028 0.0000017758441088	-0.101466
C	0.1477096792821354 0.5003176186010222 0.0000009403441810	0.162277
C	0.4560087477201480 0.0009981978000821 0.5000017020433996	-0.085429
C	0.3531066023026664 0.0005078796364384 0.5000004018852249	0.161349
C	0.9560000392351136 0.5009854464128293 0.0000033275439775	-0.086074
C	0.8531217949757341 0.5005133517756101 0.0000030010891523	0.160998
H	-0.0003327112797108 0.3380290249232978 0.2398051385418583	0.121027
H	-0.0019667442530441 0.1566450961899055 0.2500899979986220	0.108180
H	0.4996630747326332 0.8379995471574062 0.7397222482838617	0.120635
H	0.4980394760161281 0.6566420759933812 0.7501175819588651	0.108287
H	-0.0006713202942877 0.6626093939482719 0.2399802712359043	0.121068
H	-0.0025255378453156 0.8452718490942212 0.2514402287738616	0.103568
H	0.4993184229076793 0.1626181709954737 0.7399303625784889	0.120802
H	0.4974622407236705 0.3452551348037383 0.7514690646485434	0.103515
H	0.6626095373647697 -0.0006723005978227 0.2399796249279075	0.121063
H	0.8452710755127704 -0.0025262210984548 0.2514412788455979	0.103557
H	0.1626194906985788 0.4993172769339536 0.7399290144510655	0.120827
H	0.3452526929715540 0.4974589730714185 0.7514657417649355	0.103516
H	0.3380273864502422 -0.0003333458794992 0.2398040865726834	0.121051
H	0.1566462853805214 -0.0019674769371497 0.2500919755058990	0.108173
H	0.8380012222645260 0.4996633456408858 0.7397245580557219	0.120648
H	0.6566442296527666 0.4980376146912617 0.7501165364848708	0.108320
H	-0.0003324063204415 0.3380267594702197 0.7601968091481340	0.120992
H	-0.0019667973214781 0.1566439286047744 0.7499095306519100	0.108161
H	0.4996630656067822 0.8379994779314268 0.2602784502466348	0.120619
H	0.4980396422983222 0.6566418217773750 0.2498836804647661	0.108257
H	-0.0006714984599522 0.6626092775030861 0.7600191464984023	0.121077
H	-0.0025259401134083 0.8452725251138118 0.7485605657383849	0.103523
H	0.4993178593376278 0.1626182369440950 0.2600738783352570	0.120796
H	0.4974612086897425 0.3452548093121434 0.2485334177942951	0.103525
H	0.3380304789283324 -0.0003330166925061 0.7601962487994792	0.121034
H	0.1566489540154745 -0.0019673882576363 0.7499095622723654	0.108156
H	0.8380019413130199 0.4996618114076781 0.2602812549823089	0.120682
H	0.6566468272687749 0.4980360302983866 0.2498803950664260	0.108315
H	0.6626118175208549 -0.0006716721904277 0.7600195984911066	0.121065
H	0.8452731420008626 -0.0025259947808946 0.7485590558525760	0.103560
H	0.1626225320203745 0.4993174872081970 0.2600729710980433	0.120837
H	0.3452554832467714 0.4974584482437611 0.2485368433815443	0.103524
Cu	0.0005131038749643 0.0005120551804135 0.4999989496481060	0.715279
Cu	0.5005107540892600 0.5005096945992317 0.0000005913201045	0.715345
Fe	0.0002090049513616 0.0002093450947385 -0.0000093973896940	1.493101
Fe	0.5001787580076634 0.5001963826039240 0.4999993779276724	1.493260
N	-0.0003340760142295 0.1499748657905045 0.4999990264726930	-0.217219
N	0.4996643728631923 0.6499509104691881 0.0000005944208091	-0.217157
N	-0.0005447311248858 0.8509232341505325 0.4999989241569310	-0.215364
N	0.4994472869866090 0.3509000684143712 0.0000017311704426	-0.215149
N	0.8509231038925935 -0.0005452551432634 0.5000013754786198	-0.215397
N	0.3509020824809466 0.4994462458049105 0.0000014104908863	-0.215230
N	0.1499778482648612 -0.0003349232220317 0.5000003040266856	-0.217109
N	0.6499532839443400 0.4996619807503534 -0.0000037753177022	-0.217041
F	0.0008109822092011 0.0007954982932657 0.7664445132032048	-0.592914
F	0.5008528524329168 0.5008372080589043 0.2665728947977770	-0.593220
F	0.0008017187310797 0.0008131012794309 0.2335452084194404	-0.592984
F	0.5008481206584824 0.5008402750350829 0.7334262067232543	-0.593222
F	0.6314666627966568 0.4634627843626191 0.5000000302138493	-0.589485
F	0.4634357610951137 0.6314676501744664 0.5000031153745907	-0.589474
F	0.4041549027485861 0.4042614503436892 0.4999912152021537	-0.600588
F	0.9041176854867988 0.9041084972863622 -0.0000042768308549	-0.600045
F	0.9634283079681303 0.1314377306663679 -0.0000263689057806	-0.588331
F	0.1314443323120125 0.9634364055319276 0.0000051145700104	-0.588360
	  	
