#======================================================================

# CRYSTAL DATA

#----------------------------------------------------------------------

data_VESTA_phase_1


_pd_phase_name                         FeFFIVE_6_Zn_i
_cell_length_a                         17.83754
_cell_length_b                         17.83752
_cell_length_c                         15.63116
_cell_angle_alpha                      89.99973
_cell_angle_beta                       90.00013
_cell_angle_gamma                      89.97977
_symmetry_space_group_name_H-M         P 1
_symmetry_Int_Tables_number            1

loop_
_symmetry_equiv_pos_as_xyz
   x, y, z

loop_
   _atom_site_label
   _atom_site_fract_x
   _atom_site_fract_y
   _atom_site_fract_z
   _atom_site_charge
N	0.2439295146408703 0.1290928591824684 0.1279563710333337	-0.229542
N	0.2560002183715386 0.3710235102147234 0.1286698162348975	-0.228456
N	0.3709388559900893 0.2440314816073285 0.1284968247669000	-0.227305
N	0.1290235948916728 0.2560771045447549 0.1276156509628713	-0.230244
N	0.7559682322953203 0.6290595288431596 0.3715026567033949	-0.227248
N	0.7439224280102530 0.8709770473725498 0.3723859678846418	-0.230273
N	0.6289757283394596 0.7440002592483480 0.3713308119459768	-0.228471
N	0.8709090635616954 0.7560706251272492 0.3720436280427040	-0.229615
N	0.7559999549648336 0.8710236534687191 0.8713293244469533	-0.228338
N	0.7439290886902028 0.6290924008564984 0.8720430006171045	-0.229653
N	0.6290227682681169 0.7560776066370891 0.8723842184736407	-0.230375
N	0.8709398128281258 0.7440311359042572 0.8715019028207136	-0.227322
N	0.2439223478470100 0.3709761685298757 0.6276147575554902	-0.230286
N	0.2559683096674424 0.1290602569492763 0.6284971462137933	-0.227293
N	0.3709066621945318 0.2560709291479712 0.6279560911643263	-0.229538
N	0.1289766992153329 0.2439998545829874 0.6286703899154535	-0.228329
C	0.2007611310364905 0.0931225073892155 0.1851776176760000	0.109875
C	0.1923708548421938 0.0156829004871059 0.1847482344891056	-0.181540
C	0.2323903590879461 0.9727973692523607 0.1249274323064158	0.109824
C	0.2785543972512338 0.0110656211516678 0.0667440960646586	-0.182356
C	0.2817312857638731 0.0888758002738963 0.0694502947802135	0.105522
C	0.2265894851122622 0.8903941776167020 0.1237457015040599	0.060704
C	0.2906457246441742 0.8465698134195896 0.1209007101766316	-0.173282
C	0.2862308884514683 0.7674633571094207 0.1220586251620927	0.084249
C	0.1487536684671786 0.7784641231675302 0.1246300195389572	-0.122666
C	0.1550610065942111 0.8552971417381005 0.1267571347275726	-0.134524
C	0.2992847600220073 0.4068598457912890 0.1860347729491949	0.098008
C	0.3076361946076234 0.4843442610768668 0.1853635745391808	-0.184795
C	0.2675291026033026 0.5272411075956128 0.1255128131158814	0.107987
C	0.2214765487961550 0.4889661215663287 0.0673163348262044	-0.182352
C	0.2183132504232387 0.4111323447517393 0.0698386755389456	0.100680
C	0.2734344286202323 0.6096287145874344 0.1240111178714527	0.060971
C	0.2093718895249543 0.6534303280691114 0.1209593784974730	-0.172981
C	0.2137547745130985 0.7325264570684866 0.1220429370638116	0.084683
C	0.3512162148675663 0.7215155546989096 0.1246224532624719	-0.122420
C	0.3449885972580073 0.6446759696804127 0.1268340956922002	-0.135654
C	0.4068680258184263 0.2006651154352470 0.1856125605037160	0.100802
C	0.4843319050233038 0.1923640310544893 0.1852584128387439	-0.184337
C	0.5272276114828937 0.2325274317728952 0.1254832053194040	0.110668
C	0.4889621048594967 0.2785851771343054 0.0672830979081284	-0.179062
C	0.4111529750033107 0.2817546874231940 0.0699411742707752	0.109591
C	0.6096158037495636 0.2266102647403601 0.1240206470667018	0.060442
C	0.6534017958733648 0.2906521409489545 0.1209755092532409	-0.172922
C	0.7325102932104146 0.2862210673309089 0.1220436176039625	0.084762
C	0.7215452322637919 0.1487690368741534 0.1246365823394006	-0.122432
C	0.6447042395468350 0.1550509665375164 0.1268384013572788	-0.134100
C	0.0931278535406456 0.2992105406767858 0.1850808409462503	0.103741
C	0.0156651014358913 0.3075843051253722 0.1845412739381905	-0.183776
C	0.9727818023921070 0.2675807681649831 0.1247329223053929	0.108204
C	0.0110690785578427 0.2214175814048480 0.0665071672237275	-0.185445
C	0.0889240185582693 0.2182389740288926 0.0689393843062057	0.099759
C	0.8903710168374156 0.2733562141750963 0.1236659412092991	0.060743
C	0.8465725060660111 0.2093120765568161 0.1208804083946950	-0.173655
C	0.7674723543923235 0.2137332308724901 0.1220745962596906	0.084226
C	0.7784323089479313 0.3512045236166875 0.1246302831523176	-0.123183
C	0.8552678564127019 0.3449036655096759 0.1267399083122445	-0.134609
C	0.7993355551117117 0.5931313966220293 0.3143869960174265	0.100795
C	0.8076363531508126 0.5156677854182772 0.3147415727719908	-0.184329
C	0.7674725134262637 0.4727721810061255 0.3745167538561560	0.110664
C	0.7214148410742196 0.5110367668925255 0.4327167907805627	-0.179008
C	0.7182449540625244 0.5888459333073023 0.4300582815806500	0.109592
C	0.7733892760947900 0.3903840820920976 0.3759791779074655	0.060428
C	0.7093478197054821 0.3465979654847936 0.3790244003208323	-0.172879
C	0.7137792872917503 0.2674897902536385 0.3779561138672706	0.084721
C	0.8512307548751618 0.2784549327057179 0.3753631097059651	-0.122433
C	0.8449484742149775 0.3552958354609960 0.3731613891866040	-0.134124
C	0.7007885068414788 0.9068724107689745 0.3149197145941026	0.103835
C	0.6924152562331184 0.9843349952894969 0.3154586388172195	-0.183800
C	0.7324192298224594 0.0272180246602092 0.3752673159081733	0.108181
C	0.7785830368389357 0.9889310394519099 0.4334934485730290	-0.185499
C	0.7817611430376818 0.9110762542831897 0.4310608343116520	0.099809
C	0.7266446087692080 0.1096286807161629 0.3763336349897698	0.060784
C	0.7906881275489147 0.1534274804496986 0.3791192088773432	-0.173643
C	0.7862667688035572 0.2325276443066709 0.3779250489810039	0.084198
C	0.6487961814402681 0.2215677808144109 0.3753693962406371	-0.123141
C	0.6550973810568501 0.1447321669510316 0.3732596669571355	-0.134569
C	0.5931395522548244 0.7007149397315404 0.3139652821181995	0.097995
C	0.5156555853970687 0.6923641005768515 0.3146359456658090	-0.184809
C	0.4727597896032882 0.7324712390724281 0.3744867622850623	0.107986
C	0.5110337456829446 0.7785241491706921 0.4326833223640764	-0.182254
C	0.5888676691546557 0.7816878783173578 0.4301616245153100	0.100650
C	0.3903718961823666 0.7265660112303064 0.3759882343649101	0.060958
C	0.3465696774964069 0.7906282786620790 0.3790396300556185	-0.173000
C	0.2674742251627046 0.7862450278870414 0.3779565393361718	0.084613
C	0.2784847287464302 0.6487840036806166 0.3753772621308878	-0.122486
C	0.3553245271257186 0.6550112564403733 0.3731655330176253	-0.135584
C	0.9068785743148982 0.7992400346380729 0.3148219052821392	0.109824
C	0.9843176614311482 0.8076298293552008 0.3152513253649765	-0.181471
C	0.0272028918811146 0.7676095164522794 0.3750726752752028	0.109865
C	0.9889356635151941 0.7214450202988388 0.4332566107386606	-0.182423
C	0.9111259241530317 0.7182678185073723 0.4305504648467191	0.105609
C	0.1096057235828771 0.7734098955885560 0.3762541834315909	0.060663
C	0.1534306568043338 0.7093541703079288 0.3790990525348629	-0.173260
C	0.2325370031520542 0.7137688583030920 0.3779411442355955	0.084240
C	0.2215358348716678 0.8512459658423731 0.3753689213073798	-0.122610
C	0.1447027918085962 0.8449385844257301 0.3732427833966234	-0.134550
C	0.7992850989676730 0.9068603234171910 0.8139641021468681	0.098005
C	0.8076361035988735 0.9843447522844371 0.8146350006449996	-0.184837
C	0.7675287484856356 0.0272404394294910 0.8744857580664673	0.108021
C	0.7214761908776330 0.9889662131733903 0.9326822724092569	-0.182275
C	0.7183126311551059 0.9111321763469558 0.9301601357306049	0.100621
C	0.7734339751844351 0.1096284486291978 0.8759876928485935	0.060904
C	0.7093718457354322 0.1534305196405514 0.8790398757411898	-0.172976
C	0.7137550045513955 0.2325261228102809 0.8779571203419940	0.084735
C	0.8512155018167429 0.2215156907209885 0.8753772961855985	-0.122344
C	0.8449884129101924 0.1446757076742041 0.8731648633955527	-0.135624
C	0.7007605537465595 0.5931219105841118 0.8148216116876532	0.109958
C	0.6923707701100931 0.5156822229233035 0.8152512076088253	-0.181499
C	0.7323909643712201 0.4727970586137643 0.8750725813406164	0.109866
C	0.7785552304927214 0.5110648110638329 0.9332560236849430	-0.182359
C	0.7817317252392608 0.5888750181021569 0.9305494542776576	0.105604
C	0.7265902296377008 0.3903940279731321 0.8762545240035502	0.060686
C	0.7906460139468307 0.3465693614328767 0.8790995419417791	-0.173275
C	0.7862307720310573 0.2674632185066562 0.8779415490511541	0.084171
C	0.6487541981471617 0.2784642054347366 0.8753701352364114	-0.122724
C	0.6550616643616336 0.3552968958765589 0.8732429538438894	-0.134474
C	0.5931266883492142 0.7992115220567785 0.8149179963358683	0.103850
C	0.5156641433123749 0.8075848869859692 0.8154577688550523	-0.183752
C	0.4727818350480758 0.7675806622407635 0.8752666124139101	0.108143
C	0.5110687542230008 0.7214170086338527 0.9334927149980820	-0.185453
C	0.5889233846410484 0.7182383036370837 0.9310608709691730	0.099797
C	0.3903709882179142 0.7733557256768318 0.8763338560908339	0.060759
C	0.3465724349156764 0.7093115211224382 0.8791193845978483	-0.173621
C	0.2674726999979322 0.7137328755193237 0.8779254302311127	0.084282
C	0.2784325819867430 0.8512046095509426 0.8753696692396273	-0.123156
C	0.3552677918024284 0.8449035961391830 0.8732600022959993	-0.134587
C	0.9068688901221758 0.7006640173494916 0.8143860274562263	0.100846
C	0.9843324774400433 0.6923634615460144 0.8147407324744215	-0.184346
C	0.0272277483835940 0.7325275309562355 0.8745159691547192	0.110619
C	0.9889626067649557 0.7785854335783541 0.9327158521274168	-0.178999
C	0.9111538786803950 0.7817550941500022 0.9300574587936615	0.109642
C	0.1096159275646641 0.7266106271992732 0.8759791950336779	0.060484
C	0.1534021143292149 0.7906524613908705 0.8790244701272256	-0.172934
C	0.2325101684878598 0.7862211934721515 0.8779565282251081	0.084708
C	0.2215450931004564 0.6487687724590006 0.8753633188994486	-0.122465
C	0.1447044479695915 0.6550510176057175 0.8731616492665909	-0.134159
C	0.2007890286696189 0.4068721266717107 0.6850805861989449	0.103804
C	0.1924157323979849 0.4843347566066644 0.6845412282539036	-0.183795
C	0.2324193228311471 0.5272181320830834 0.6247326438997148	0.108207
C	0.2785826428675633 0.4889310413551153 0.5665069004590770	-0.185498
C	0.2817612025955279 0.4110762612597091 0.5689387376933714	0.099787
C	0.2266437612420197 0.6096291042167346 0.6236656356809005	0.060741
C	0.2906880644085270 0.6534274465459976 0.6208802196860796	-0.173663
C	0.2862669140772720 0.7325275883695925 0.6220745435401767	0.084247
C	0.1487954158413077 0.7215677576023944 0.6246301790283415	-0.123172
C	0.1550964302241042 0.6447322257589131 0.6267397308486387	-0.134617
C	0.2993352733242026 0.0931312611067790 0.6856131045652696	0.100753
C	0.3076365760711407 0.0156691190886887 0.6852588812272149	-0.184334
C	0.2674728091700574 0.9727721113159803 0.6254834190827036	0.110642
C	0.2214150700667533 0.0110373865158429 0.5672830728535285	-0.178999
C	0.2182453232357188 0.0888463266104560 0.5699413045801278	0.109587
C	0.2733899583767150 0.8903838891992154 0.6240210146395980	0.060454
C	0.2093478288450603 0.8465982049405569 0.6209755669832773	-0.172975
C	0.2137787997600036 0.7674898662393148 0.6220434291466322	0.084804
C	0.3512311879249996 0.7784548754213434 0.6246369874003519	-0.122485
C	0.3449492132519847 0.8552956749292173 0.6268388645656473	-0.134078
C	0.4068773246399865 0.2992387644524551 0.6851773809692008	0.109884
C	0.4843172054221039 0.3076289206540070 0.6847483793808709	-0.181525
C	0.5272030000911486 0.2676095586309768 0.6249275674405561	0.109874
C	0.4889347836341209 0.2214456547429402 0.5667444113051336	-0.182454
C	0.4111244732597684 0.2182691811706143 0.5694505786048896	0.105575
C	0.6096059051288450 0.2734106799117886 0.6237457149206798	0.060680
C	0.6534304229590244 0.2093543122058401 0.6209004943539770	-0.173262
C	0.7325366746389881 0.2137691754822374 0.6220581625341965	0.084223
C	0.7215355127296531 0.3512462433545548 0.6246306919164886	-0.122522
C	0.6447022009594982 0.3449391868601236 0.6267572492533081	-0.134572
C	0.0931398623205605 0.2007152705901239 0.6860348982127875	0.097893
C	0.0156553233773821 0.1923637820451675 0.6853637637010833	-0.184759
C	0.9727582650409212 0.2324709103224273 0.6255128839895165	0.107981
C	0.0110338946037046 0.2785235155910337 0.5673167209504192	-0.182296
C	0.0888677580428869 0.2816867015665346 0.5698395000694207	0.100602
C	0.8903709139752205 0.2265656186663929 0.6240109625121291	0.060969
C	0.8465691673909639 0.2906286052271519 0.6209591222972879	-0.173042
C	0.7674733246273577 0.2862450695953095 0.6220426189876854	0.084674
C	0.7784844399594861 0.1487838326005190 0.6246223187320139	-0.122444
C	0.8553237945856200 0.1550112166656622 0.6268342362166704	-0.135627
H	0.1736356289001965 0.1281431544949179 0.2332208934309878	0.098049
H	0.1569363638467694 0.9886474142424087 0.2324605670623615	0.112966
H	0.3100729097023218 0.9802486545540058 0.0183823803338366	0.112314
H	0.3146464841357612 0.1210303482191853 0.0234960862896552	0.096690
H	0.3457810249538443 0.8731559327325022 0.1202777222673051	0.107670
H	0.0935994282281306 0.7518928288011585 0.1253127173381092	0.109474
H	0.1050197317735203 0.8904595553177168 0.1288158585025456	0.098828
H	0.3269012781754300 0.3718319890331273 0.2339834863195090	0.102498
H	0.3435779514967028 0.5114086864842248 0.2325836198472215	0.112009
H	0.1901420143356562 0.5194804543170475 0.0185759330107795	0.114193
H	0.1868332038979684 0.3794270804592015 0.0221088873472450	0.104622
H	0.1542462724369009 0.6268261124642268 0.1202741877300372	0.108527
H	0.4063203945652066 0.7481604470170701 0.1252989598223532	0.105845
H	0.3950496312522760 0.6095371441762191 0.1289123203075639	0.099964
H	0.3715156896177920 0.1725529478499026 0.2327097014057503	0.097758
H	0.5114849873554552 0.1565097450880825 0.2325225035441839	0.111359
H	0.5195499808431726 0.3097602566462128 0.0184951500407794	0.113623
H	0.3792402272069939 0.3136716658812654 0.0229569777602192	0.098915
H	0.6267831183714566 0.3457937786499949 0.1203233028914846	0.108905
H	0.7481140200039238 0.0936043408714305 0.1252743839770165	0.107018
H	0.6096201732226332 0.1049791946062100 0.1288393100467998	0.100337
H	0.1277549112270881 0.3257393157574622 0.2340482136348410	0.103968
H	0.9887746362373668 0.3430499343810451 0.2323454920576573	0.114224
H	0.9802580038865563 0.1897185475297414 0.0183085679431167	0.112959
H	0.1209470371067573 0.1855378083142871 0.0224753324984545	0.101683
H	0.8731821086777711 0.1541716496540585 0.1202179625940822	0.107196
H	0.7517657266735760 0.4063241554928534 0.1253339496793678	0.107873
H	0.8904548807123407 0.3949048362058387 0.1288726383003833	0.098359
H	0.8274476010116656 0.6284837728766344 0.2672909073593476	0.097752
H	0.8434899451340950 0.4885148339153959 0.2674783912119327	0.111342
H	0.6902399675253965 0.4804490745067666 0.4815039528737908	0.113614
H	0.6863276284121682 0.6207575917380621 0.4770415991296230	0.098808
H	0.6542060540210083 0.3732166940254564 0.3796766337390484	0.108896
H	0.9063961349964149 0.2518864824388854 0.3747254842134959	0.107028
H	0.8950203315006350 0.3903800710439867 0.3711605192176088	0.100334
H	0.6742599520281334 0.8722459196607401 0.2659530767373851	0.103912
H	0.6569502512123687 0.0112257066058671 0.2676549265356769	0.114219
H	0.8102816651809702 0.0197422715043585 0.4816904318545085	0.112973
H	0.8144644352562652 0.8790539598026521 0.4775234321942882	0.101655
H	0.8458289676739696 0.1268180485520716 0.3797818768399292	0.107174
H	0.5936758924478047 0.2482339796390287 0.3746660512879013	0.107865
H	0.6050958475439786 0.1095450304692557 0.3711271278584204	0.098297
H	0.6281673626303096 0.6730983065444086 0.2660174732674300	0.102508
H	0.4885916607232648 0.6564226633964555 0.2674172180537316	0.112002
H	0.4805200863059967 0.8098578745197085 0.4814223464451662	0.114145
H	0.6205717452842616 0.8131681429851948 0.4778911011502150	0.104637
H	0.3731736802528001 0.8457536322865026 0.3797255449938309	0.108517
H	0.2518402508019429 0.5936792382489765 0.3747009479248924	0.105871
H	0.3904632087700128 0.6049503214176473 0.3710874996352816	0.099931
H	0.8718576786791863 0.8263653999280944 0.2667799107367009	0.098035
H	0.0113526570453560 0.8430634587135106 0.2675401798492821	0.112974
H	0.0197520755582475 0.6899271002866906 0.4816172953563947	0.112352
H	0.8789722252996954 0.6853528358582235 0.4765036410257488	0.096641
H	0.1268446864320308 0.6542186815071315 0.3797220434996007	0.107660
H	0.2481065145284635 0.9064008104683134 0.3746871682734808	0.109472
H	0.1095404370043015 0.8949801352312491 0.3711841721533743	0.098838
H	0.8269024729792318 0.8718328549165355 0.7660169163049699	0.102486
H	0.8435780530439687 0.0114091473515192 0.7674165482397101	0.112006
H	0.6901425149207047 0.0194798351237142 0.9814221980500996	0.114167
H	0.6868328863459784 0.8794276720368043 0.9778899375803660	0.104566
H	0.6542463947601254 0.1268266291627091 0.8797257498804933	0.108495
H	0.9063204753064533 0.2481599210039465 0.8747012329806426	0.105843
H	0.8950494131263129 0.1095371969929333 0.8710868611419629	0.099898
H	0.6736347058659395 0.6281420173313008 0.7667785161849979	0.097995
H	0.6569367154079633 0.4886471543394174 0.7675399038205073	0.112943
H	0.8100734101425066 0.4802482712241168 0.9816172397832631	0.112293
H	0.8146464456294276 0.6210292535380246 0.9765029893819318	0.096652
H	0.8457816253391449 0.3731552820369849 0.8797223071331397	0.107654
H	0.5935990921324660 0.2518933831782180 0.8746871416334241	0.109490
H	0.6050203740173149 0.3904596473090244 0.8711837727411513	0.098790
H	0.6277530059865621 0.8257406596856410 0.7659512904072390	0.103950
H	0.4887736754264720 0.8430500939041047 0.7676548074743587	0.114214
H	0.4802579468501549 0.6897185698000113 0.9816904794606895	0.112982
H	0.6209459794455057 0.6855372961042692 0.9775238445184514	0.101666
H	0.3731817556869124 0.6541711586490223 0.8797816769729633	0.107139
H	0.2517658479452914 0.9063244894179058 0.8746659185949057	0.107850
H	0.3904549738188766 0.8949045909723331 0.8711272730239756	0.098358
H	0.8715172338827604 0.6725517930713921 0.7672897722293034	0.097747
H	0.0114855242978198 0.6565101516002504 0.7674781286643773	0.111375
H	0.0195501586853239 0.8097597640791784 0.9815030099700824	0.113606
H	0.8792417143840884 0.8136715577075255 0.9770409391839725	0.098804
H	0.1267837079898043 0.8457940445873952 0.8796763914157644	0.108905
H	0.2481139639156124 0.5936037293136319 0.8747253853972128	0.107014
H	0.1096202016065617 0.6049794553016750 0.8711606750337328	0.100350
H	0.1742602462393591 0.3722452331412232 0.7340477024334926	0.103966
H	0.1569503540524585 0.5112253069005260 0.7323451432321071	0.114235
H	0.3102815105931069 0.5197424330224438 0.5183087352588543	0.112994
H	0.3144626139429316 0.3790534630346714 0.5224754274320942	0.101660
H	0.3458282565203870 0.6268180295226484 0.6202180368257856	0.107190
H	0.0936761135303175 0.7482346664187585 0.6253340341116974	0.107866
H	0.1050954225471010 0.6095452446053318 0.6288725486844912	0.098371
H	0.3274472148398775 0.1284840126005644 0.7327094871749696	0.097770
H	0.3434905425217468 0.9885142116895843 0.7325226124509197	0.111385
H	0.1902402322817397 0.9804494724679150 0.5184951987425613	0.113629
H	0.1863288842505518 0.1207594123475587 0.5229570551288527	0.098862
H	0.1542064974004771 0.8732169967402896 0.6203232792916856	0.108914
H	0.4063955276860227 0.7518858904530800 0.6252744878681099	0.107024
H	0.3950206577121561 0.8903799622331062 0.6288398225489736	0.100323
H	0.3718564401791966 0.3263645684582303 0.7332208201782361	0.098039
H	0.5113524897700908 0.3430635935811705 0.7324611415143772	0.112950
H	0.5197515253102111 0.1899270133120468 0.5183822772305298	0.112337
H	0.3789695105592934 0.1853541325014495 0.5234959668571503	0.096664
H	0.6268440613847038 0.1542190486069874 0.6202775174542178	0.107672
H	0.7481064979187075 0.4064001175501423 0.6253127836672900	0.109426
H	0.6095402632285309 0.3949806536999721 0.6288162343464364	0.098838
H	0.1281675373621505 0.1730981119425357 0.7339839311581279	0.102529
H	0.9885907414951944 0.1564216342904304 0.7325841357453871	0.111986
H	0.9805200054698501 0.3098583863525389 0.5185756475212977	0.114170
H	0.1205731497929856 0.3131672338967583 0.5221092201518086	0.104598
H	0.8731736726422736 0.3457540148848815 0.6202738721898393	0.108538
H	0.7518395591861892 0.0936796225469167 0.6252989083226446	0.105849
H	0.8904628291485165 0.1049503081038787 0.6289126373792290	0.099942
F	0.2567239703566855 0.1459803643656995 0.3778761222449534	-0.623659
F	0.1566127910103605 0.2991243365642316 0.3785803488378833	-0.618477
F	0.3373541496626685 0.3094154700645135 0.3786116853420955	-0.620939
F	0.6905818467620287 0.6626435440685879 0.1214013668095398	-0.620935
F	0.7008781323952118 0.8433864581406983 0.1214178127156954	-0.618477
F	0.8540195018794875 0.7432643468279624 0.1221260529020158	-0.623638
F	0.6566232234955264 0.7991299845530933 0.6214048963453737	-0.618484
F	0.7567311737780447 0.6459761141853895 0.6221390475892485	-0.623672
F	0.8373727608640215 0.8093892785739059 0.6214046573930360	-0.620932
F	0.1905805735731400 0.1626461887291331 0.8786109941171673	-0.620943
F	0.3540200416022237 0.2432623784664059 0.8778731019115149	-0.623665
F	0.2008852572722074 0.3433852743318049 0.8785804765783097	-0.618480
F	0.2494604495331355 0.2500277184995477 0.2559121225613200	-0.563410
F	0.2495646479024428 0.2496046121181532 0.5009001131950777	-0.564741
F	0.7499765902696884 0.7505431784512114 0.2440913956468981	-0.563415
F	0.7503871996438450 0.7504318152028751 -0.0009008447388147	-0.564719
F	0.7494552394138394 0.7500309838214136 0.7440934438895691	-0.563411
F	0.7495771975588953 0.7496058410349511 0.4990969845051154	-0.564777
F	0.2499795499142917 0.2505364435764990 0.7559105326154895	-0.563476
F	0.2503840936767766 0.2504379764192175 0.0009007661221936	-0.564778
Zn	0.2497773181307526 0.2503710688713178 0.1285572566719709	0.743708
Zn	0.7496279695434873 0.7502205875307448 0.3714405727444248	0.743747
Zn	0.7497780462281929 0.7503714091429302 0.8714432876376872	0.743696
Zn	0.2496281979750672 0.2502209274914247 0.6285561601310398	0.743750
Fe	0.2502108785941310 0.2508541369590641 0.3783932478112471	1.536008
Fe	0.7491447370742279 0.7497857101577386 0.1216083089284960	1.536010
Fe	0.7502168975548419 0.7508505247724375 0.6216058802745132	1.536096
Fe	0.2491472364936465 0.2497846494231984 0.8783926786684576	1.536066
	  	
