#======================================================================

# CRYSTAL DATA

#----------------------------------------------------------------------

data_VESTA_phase_1


_pd_phase_name                         FeFFIVE_5_Ni_i
_cell_length_a                         19.85871
_cell_length_b                         19.85840
_cell_length_c                         15.67709
_cell_angle_alpha                      89.99912
_cell_angle_beta                       90.00094
_cell_angle_gamma                      89.98889
_symmetry_space_group_name_H-M         P 1
_symmetry_Int_Tables_number            1

loop_
_symmetry_equiv_pos_as_xyz
   x, y, z

loop_
   _atom_site_label
   _atom_site_fract_x
   _atom_site_fract_y
   _atom_site_fract_z
   _atom_site_charge
F	0.2894359110899475 0.1640483552568959 0.3518687426957568	-0.596208
F	0.1585986416151088 0.2642741482548690 0.3507809544239044	-0.607469
F	0.3101201453625200 0.3235643330876646 0.3508469050537298	-0.600879
F	0.6764172020280307 0.6898269424181964 0.1490712217718129	-0.601010
F	0.7357648942190006 0.8414373911652788 0.1491808506252027	-0.607594
F	0.8359611900653773 0.7105463790400025 0.1482096034332358	-0.596007
F	0.6585556388103501 0.7643263469448965 0.6492703105661890	-0.607707
F	0.7894155877261559 0.6640290090110345 0.6480991525530159	-0.596303
F	0.8101460126509253 0.8235534278886563 0.6491638981102782	-0.600955
F	0.1764577392419996 0.1898418597548613 0.8508789225059968	-0.600914
F	0.3359521713419407 0.2105821114574111 0.8518819271336745	-0.596183
F	0.2357219697143659 0.3413992563492502 0.8507387502322206	-0.607433
F	0.2495658524116192 0.2496851825170559 0.4745601118913437	-0.572863
F	0.2498910233910140 0.2487266963762845 0.2273138780960086	-0.573744
F	0.7503575994945680 0.7504619363647396 0.0254763946341478	-0.572705
F	0.7512186160885058 0.7500489249961316 0.2726557876442367	-0.573318
F	0.7495480639246733 0.7496951969433083 0.5254980804091983	-0.572682
F	0.7499522837968680 0.7487395704984344 0.7726832438613198	-0.573741
F	0.2503092513649314 0.2504582881572343 0.9745690079515024	-0.572891
F	0.2512485130320144 0.2500806431399146 0.7273178093440448	-0.573617
N	0.3554164512500424 0.2476639518735427 0.6002105472389353	-0.239110
N	0.1447427072148706 0.2526431370934930 0.6019084146531786	-0.236609
N	0.2524244099479202 0.3553110673316025 0.6009079329114962	-0.237799
N	0.2472966862051536 0.1446336060663423 0.6022105566304402	-0.237939
N	0.6446790161968511 0.7475755386373257 0.8991041780682252	-0.237527
N	0.8553914210278004 0.7527013423217082 0.8977994146497289	-0.237766
N	0.7473614377469013 0.8552585077410676 0.8980988049027770	-0.236619
N	0.7523396242787322 0.6445771425830966 0.8998022146634939	-0.238932
N	0.6447218537995335 0.7526465142415470 0.3981014063706099	-0.236619
N	0.8554223314880794 0.7476629780023927 0.3997803809520697	-0.238846
N	0.7472847890652657 0.6446176369121757 0.3977968669452459	-0.238013
N	0.7524171317164750 0.8553232531701833 0.3990821239079758	-0.237825
N	0.3553807854179950 0.2527055780044161 0.1022131227344467	-0.238005
N	0.1446745027495550 0.2475761905991503 0.1009057755588827	-0.237752
N	0.2523383217370238 0.1445859524001875 0.1002059431380833	-0.239009
N	0.2473580108699019 0.3552585722679233 0.1019116427750631	-0.236502
C	0.3887481260056804 0.2182268740965262 0.6650279927600579	0.099697
C	0.4586073177888067 0.2166773471752082 0.6689912436973861	-0.179751
C	0.4966504898896255 0.2472205226513350 0.6043330562732110	0.102807
C	0.4611139136577614 0.2777092441495957 0.5372205200282461	-0.184434
C	0.3911373915754663 0.2766498410697260 0.5370848069736223	0.100550
C	0.5707594953379872 0.2479247565411214 0.6076982630654553	0.054957
C	0.6068799255404465 0.1916549046510217 0.6372127120979995	-0.128784
C	0.6768218698065223 0.1924200089066093 0.6400056107968768	-0.125665
C	0.7129822874010252 0.2498700115617158 0.6148066778452483	0.067985
C	0.6768965239733399 0.3065126506358226 0.5866870785674250	-0.121080
C	0.6070095143782518 0.3052990104216886 0.5824065169422977	-0.126380
C	0.1113130710882228 0.2820110837949047 0.6666184066179263	0.106179
C	0.0414761689963421 0.2834713653809125 0.6705962910888990	-0.183412
C	0.0034752429039476 0.2527724803141498 0.6059034539004361	0.107055
C	0.0390553508727837 0.2225639572167770 0.5387200902575134	-0.180056
C	0.1089962086804524 0.2238509661796151 0.5387849371759725	0.107764
C	0.9293688474757018 0.2520843926396917 0.6087205087437295	0.054742
C	0.8931511189402661 0.3084251678940370 0.6377442143086707	-0.130727
C	0.8231946298095890 0.3076925996760209 0.6401112038259618	-0.125232
C	0.7870890133982923 0.2502149945090850 0.6148812150367015	0.067804
C	0.8232584206898583 0.1936106841958750 0.5868023510214115	-0.119181
C	0.8931793391161449 0.1947763711844259 0.5829853747209049	-0.125622
C	0.2817798264362329 0.3887450680248247 0.6655939194611411	0.111079
C	0.2833752113552573 0.4585854515897268 0.6695430562508793	-0.180957
C	0.2528702920903912 0.4965787637255524 0.6047905833654880	0.106920
C	0.2224095051867926 0.4609990932124300 0.5377050511653940	-0.183025
C	0.2234922509928215 0.3910641715003491 0.5378794380222520	0.105542
C	0.2521304821460220 0.5706652674424649 0.6079510467326779	0.054431
C	0.3084101255905649 0.6068177579106619 0.6373283757704420	-0.129751
C	0.3076287629343259 0.6767691513175237 0.6400049890153028	-0.125614
C	0.2501652154685917 0.7129185263906729 0.6147957870052854	0.068023
C	0.1935432168330602 0.6767969472761575 0.5866879889673873	-0.119734
C	0.1947661414088866 0.6068897252656210 0.5825516167852410	-0.125717
C	0.2179183185283841 0.1112412049183318 0.6670737823260745	0.099470
C	0.2164618925661796 0.0413568112481636 0.6707715156358488	-0.183437
C	0.2471363357007055 0.0033892826120480 0.6060428088738228	0.104088
C	0.2773822109793823 0.0389955199333996 0.5389195395528028	-0.183059
C	0.2761429611363334 0.1089719208995372 0.5389424404396981	0.097962
C	0.2478616399181113 0.9292626382830592 0.6087876797941825	0.055859
C	0.1915207946136218 0.8930484164762351 0.6378037723368188	-0.131780
C	0.1922819331497396 0.8230980944136154 0.6401235701792297	-0.125263
C	0.2497686683576735 0.7870211332644269 0.6148753798723003	0.067228
C	0.3063726445769394 0.8231764717921275 0.5868031343795759	-0.119317
C	0.3051747597053434 0.8930918124060155 0.5830106265574658	-0.126478
C	0.6112664828349406 0.7182189420346421 0.8344095818751323	0.110999
C	0.5414291906243229 0.7166227978275044 0.8304522414619054	-0.180844
C	0.5034251393185198 0.7471335863451871 0.8952046528563492	0.106685
C	0.5390134351106018 0.7775918073346022 0.9622989766587419	-0.182816
C	0.6089411090945936 0.7765106782488945 0.9621254196813984	0.105316
C	0.4293184936307906 0.7478727231636606 0.8920425010387275	0.054621
C	0.3931806712318823 0.6915899389221607 0.8626555948832149	-0.129850
C	0.3232447403547192 0.6923647561628915 0.8599820853584131	-0.125373
C	0.2870984731527298 0.7498338294386929 0.8851991499280703	0.067775
C	0.3232113175020753 0.8064675242163951 0.9133159506124525	-0.119796
C	0.3931056249063582 0.8052403092852115 0.9174456933136168	-0.125926
C	0.8887586724713042 0.7820839786116347 0.8329283332290012	0.099578
C	0.9586356299850672 0.7835406480398039 0.8292234601578273	-0.183549
C	0.9966132683230976 0.7528562121087804 0.8939565825207682	0.103997
C	0.9610020599603127 0.7226125079989951 0.9610882338009030	-0.182980
C	0.8910357617150447 0.7238500491621784 0.9610652530058337	0.097892
C	0.0707613869421040 0.7521356864153046 0.8912049469917804	0.055465
C	0.1069599193555438 0.8084803041246412 0.8621800973713468	-0.131392
C	0.1768924003531716 0.8077276118640585 0.8598628349330159	-0.125179
C	0.2129621628966387 0.7502321952870583 0.8851190986939401	0.067206
C	0.1768205597707118 0.6936153331361025 0.9132015982059213	-0.119396
C	0.1069205690306425 0.6948157722761042 0.9169866497232469	-0.126365
C	0.7179889659327051 0.8886763961491317 0.8333794937065615	0.106255
C	0.7165266455303544 0.9585160872962346 0.8293951941382165	-0.183663
C	0.7472337889292603 0.9965233994815252 0.8940933279296572	0.107054
C	0.7774411017716222 0.9609354777322465 0.9612795906993596	-0.179933
C	0.7761589804632445 0.8909965873484812 0.9612130778370626	0.107941
C	0.7479196384428206 0.0706482574613776 0.8912745983629715	0.054963
C	0.6915705362710405 0.1068515712782040 0.8622423811080250	-0.130855
C	0.6923014482691922 0.1767997280373661 0.8598782231877028	-0.125455
C	0.7497821125412457 0.2128984014652976 0.8851154827585190	0.068054
C	0.8063973705715097 0.1767394526405043 0.9132048438760620	-0.119631
C	0.8052294390077201 0.1068244150278993 0.9170145022697577	-0.125724
C	0.7817776924146943 0.6112634471953891 0.8349795089439173	0.099552
C	0.7833280513684743 0.5414017730171621 0.8310082843875666	-0.179754
C	0.7527775809428250 0.5033501401345345 0.8956655245704003	0.102885
C	0.7222896825508234 0.5388883806929032 0.9627842976846412	-0.184536
C	0.7233490093702075 0.6088675538274380 0.9629203389395735	0.100532
C	0.7520731919043859 0.4292228510160154 0.8922973215289363	0.055117
C	0.8083481209333916 0.3931214977607912 0.8627741744820635	-0.128794
C	0.8075854673885379 0.3231870472207118 0.8599839391554500	-0.125788
C	0.7501305891828848 0.2870356137644253 0.8851902531521443	0.067781
C	0.6934787123750976 0.3231078440202069 0.9133196306067249	-0.120858
C	0.6946954217373386 0.3929899530657217 0.9175963351210166	-0.126654
C	0.6113034429953204 0.7820217044675579 0.3333911682920460	0.106279
C	0.5414729994185539 0.7834735058118613 0.3294093278517078	-0.183538
C	0.5034674941773349 0.7527736983858880 0.3941014225024666	0.107157
C	0.5390523337567666 0.7225622888658968 0.4612914640144570	-0.180094
C	0.6089915941035765 0.7238510190520491 0.4612326030348928	0.107943
C	0.4293521281963276 0.7520851373283532 0.3912787878938416	0.054818
C	0.3931472233578936 0.8084271582265744 0.3622519888032609	-0.130958
C	0.3231970920946008 0.8077008341370939 0.3598778991833062	-0.125236
C	0.2870957340834527 0.7502132555451767 0.3851174754855152	0.067917
C	0.3232626761277204 0.6936057101497420 0.4132034139888225	-0.119408
C	0.3931728758621256 0.6947752885453802 0.4170213713418435	-0.125554
C	0.8887342924714222 0.7182211012110075 0.3349642676223984	0.099293
C	0.9585900452418015 0.7166786533949220 0.3310003824988623	-0.179728
C	0.9966406695709633 0.7472190245080688 0.3956583195546512	0.103036
C	0.9611006724898904 0.7777100024138177 0.4627764706605636	-0.184456
C	0.8911254733201087 0.7766545736428501 0.4629107028822189	0.100533
C	0.0707662332127225 0.7479244921482283 0.3922961106603127	0.054969
C	0.1068794280565930 0.6916547680510674 0.3627783129373784	-0.128777
C	0.1768132770210607 0.6924175511691334 0.3599826911324178	-0.125744
C	0.2129650731516005 0.7498765516724404 0.3851927859907776	0.067938
C	0.1768855041126062 0.8065193800442956 0.4133181959466800	-0.120862
C	0.1070080671100839 0.8053013189409098 0.4175967737691604	-0.126413
C	0.7179061900581915 0.6112411596224804 0.3329287206112810	0.099700
C	0.7164583587310213 0.5413621972130599 0.3292287381694598	-0.183440
C	0.7471353935025311 0.5033871390304234 0.3939580549862902	0.104039
C	0.7773869151647703 0.5389977170705105 0.4610841702781950	-0.183080
C	0.7761393575635229 0.6089715480123115 0.4610682464128421	0.098043
C	0.7478582783853007 0.4292504640756728 0.3912089925217784	0.055855
C	0.6915196203283909 0.3930479654455301 0.3621906984864566	-0.131510
C	0.6922747721350970 0.3231036189926821 0.3598664615396754	-0.125493
C	0.7497716737935464 0.2870325749484279 0.3851239008746956	0.067203
C	0.8063792913742008 0.3231840186381802 0.4132030981736424	-0.119278
C	0.8051776105338871 0.3930906039946289 0.4169938648812762	-0.126601
C	0.7817779109365759 0.8887439356849262 0.3344000318988789	0.111266
C	0.7833715402838668 0.9585793202132088 0.3304539337371465	-0.180776
C	0.7528705098789801 0.9965772872072494 0.3952031687493284	0.106776
C	0.7224069303600241 0.9609927463689859 0.4622962969210814	-0.182938
C	0.7234869561790118 0.8910617480464454 0.4621212262783301	0.105315
C	0.7521322212848104 0.0706782708774019 0.3920434509921772	0.054522
C	0.8084102462020301 0.1068214850978109 0.3626627511454428	-0.129641
C	0.8076341000208277 0.1767665776901541 0.3599839810465509	-0.125673
C	0.7501608900981829 0.2129078326623136 0.3852037049676607	0.068069
C	0.6935378331073040 0.1767915468648311 0.4133169840765924	-0.119789
C	0.6947631700912995 0.1068932730687072 0.4174522756078148	-0.125913
C	0.3887602806147323 0.2820823378016050 0.1670767269120716	0.099661
C	0.4586347601727074 0.2835400220881299 0.1707764960003613	-0.183592
C	0.4966081667908579 0.2528621193026875 0.1060426926541024	0.104078
C	0.4609943816832444 0.2226160302859042 0.0389190678138486	-0.182948
C	0.3910280364384857 0.2238583759357661 0.0389427751521852	0.098091
C	0.5707487145028501 0.2521395040057284 0.1087898236844005	0.055755
C	0.6069575182998413 0.3084801485255579 0.1378085633579847	-0.131635
C	0.6768939722834967 0.3077247580462112 0.1401255525251351	-0.125053
C	0.7129689125559393 0.2502303044802928 0.1148740315827696	0.067029
C	0.6768164314868917 0.1936210506607551 0.0867972686077356	-0.119141
C	0.6069139223650759 0.1948219778408063 0.0830083837912120	-0.126706
C	0.1112565210795570 0.2182206569176936 0.1655934061028954	0.111286
C	0.0414228577447250 0.2166252171186858 0.1695442570706654	-0.181032
C	0.0034238289421561 0.2471316693271607 0.1047909514702412	0.106757
C	0.0390082521441155 0.2775928569498604 0.0376988295840705	-0.182919
C	0.1089354468041104 0.2765081544984964 0.0378761241794449	0.105378
C	0.9293234203451316 0.2478705704038332 0.1079528959461018	0.054460
C	0.8931794074943097 0.1915876947242286 0.1373322982578365	-0.129744
C	0.8232396564924134 0.1923672653935775 0.1400084515781229	-0.125485
C	0.7870906863634107 0.2498346652732796 0.1147947178853965	0.067873
C	0.8232098862841860 0.3064627410688360 0.0866843180577285	-0.119541
C	0.8931078100512971 0.3052387630852745 0.0825491189862275	-0.125819
C	0.2817754177218361 0.1112591249186866 0.1650238742838080	0.099524
C	0.2833222500216341 0.0413987165071822 0.1689894903664436	-0.179644
C	0.2527790002621231 0.0033520347700282 0.1043331056676700	0.102848
C	0.2222901611815508 0.0388913355188750 0.0372180782241200	-0.184340
C	0.2233517298766335 0.1088696200141917 0.0370820912085871	0.100403
C	0.2520740941048701 0.9292363861439141 0.1076991947374212	0.055002
C	0.3083468429714463 0.8931237027714244 0.1372139545570376	-0.128853
C	0.3075809172544693 0.8231812018017862 0.1400072477384842	-0.125590
C	0.2501301654382172 0.7870238189172338 0.1148047101144014	0.067839
C	0.1934850203851238 0.8231057542066568 0.0866829805252811	-0.120817
C	0.1946986146436013 0.8929943358418286 0.0824038927458496	-0.126459
C	0.2179906761655024 0.3886838464194527 0.1666206876068229	0.106120
C	0.2165286654318082 0.4585214534292580 0.1705984320013059	-0.183456
C	0.2472281805221796 0.4965232194504172 0.1059025644394445	0.107103
C	0.2774372375757989 0.4609406010851974 0.0387184940427750	-0.180190
C	0.2761503490090272 0.3910003563335944 0.0387862855569014	0.107789
C	0.2479165552818821 0.5706390538300792 0.1087196756003314	0.054813
C	0.1915717541353790 0.6068476819693092 0.1377455975485969	-0.130884
C	0.1923053166720965 0.6768030848050396 0.1401114594405700	-0.125190
C	0.2497855768806371 0.7129049088216316 0.1148805104169740	0.067776
C	0.3063934225282279 0.6767401641650987 0.0867996486716273	-0.119301
C	0.3052280271231698 0.6068203508729024 0.0829819468049954	-0.125678
H	0.3582020088955238 0.1974218188914448 0.7164616527518828	0.103954
H	0.4830389581630890 0.1936439643227468 0.7239360341977874	0.113996
H	0.4877948338093376 0.3012278769689101 0.4842968521379092	0.112630
H	0.3621671221915584 0.2989021438602397 0.4849733162228686	0.099798
H	0.5795665409413610 0.1465547201393089 0.6567534820005255	0.098847
H	0.7040840780497071 0.1484323928474778 0.6632155694163753	0.101232
H	0.7041500373159177 0.3510980044653505 0.5654188688349155	0.102738
H	0.5798437107008195 0.3496833369357262 0.5602258249123029	0.102223
H	0.1423613774017852 0.3040348395388836 0.7167601356763463	0.095231
H	0.0168446542316884 0.3068454985565821 0.7251626806327353	0.112476
H	0.0125133210075528 0.1996133456489159 0.4853020945373653	0.114004
H	0.1380726842681310 0.2028886345984476 0.4862090727792625	0.099617
H	0.9203436189869373 0.3536488834576008 0.6571126608857931	0.099859
H	0.7958773643379189 0.3517561778312199 0.6629873411097724	0.102405
H	0.7960277113265616 0.1490736268912247 0.5652622387680093	0.101658
H	0.9203287292889907 0.1503875602940418 0.5607919394189668	0.102692
H	0.3026557955032589 0.3578651908195324 0.7165048994792669	0.097914
H	0.3062666152389320 0.4830835405473985 0.7245176040178568	0.114829
H	0.1990442731914603 0.4876338908068698 0.4846339640739877	0.112147
H	0.2012438510612038 0.3617566762994251 0.4862316836654697	0.095732
H	0.3535621582425512 0.5795539605921327 0.6568215760039809	0.098809
H	0.3516363322784494 0.7040541913266699 0.6631318690124723	0.102006
H	0.1489613368353484 0.7040637103139511 0.5653709422720268	0.102204
H	0.1503319138123114 0.5797742474124478 0.5604277333255941	0.102279
H	0.1961426218062936 0.1419135460597684 0.7178981911903735	0.100615
H	0.1930154049457187 0.0167139938779724 0.7252860046620946	0.112460
H	0.3005141826009686 0.0124853191445379 0.4855867056208493	0.114402
H	0.2971855000681517 0.1377623089856044 0.4859669526512285	0.104728
H	0.1463567951485228 0.9203091239754732 0.6572386826212544	0.100327
H	0.1482245513604934 0.7957978106682589 0.6629980691841417	0.101727
H	0.3509062016753531 0.7959543966396848 0.5652605159679356	0.101854
H	0.3495197704979261 0.9202900521960077 0.5607850813985865	0.103355
H	0.6421291244093112 0.6973477899381917 0.7835064646046145	0.097912
H	0.5169245610623834 0.6937327308945124 0.7754812652827801	0.114833
H	0.5123714595991686 0.8009650359086032 0.0153649625393965	0.112052
H	0.6382354885693620 0.7987630769437173 0.0137698843516788	0.095740
H	0.4204366259621409 0.6464395794401709 0.8431670709096422	0.098906
H	0.2959529547207328 0.6483659887960733 0.8368561155664842	0.101966
H	0.2959438130643196 0.8510334809592021 0.9346296456016513	0.102335
H	0.4202142084127991 0.8496655374492625 0.9395695115643740	0.102375
H	0.8580937092470190 0.8038549793551452 0.7821136491953141	0.100654
H	0.9832819134600437 0.8069869137322924 0.7747137445949213	0.112517
H	0.9875299675370474 0.6994784239471703 0.0144122174902394	0.114370
H	0.8622517472029370 0.7028031168911180 0.0140328098148041	0.104590
H	0.0796985081564191 0.8536443546820943 0.8427503059449438	0.100243
H	0.2041964208927557 0.8517760389357651 0.8369895893818375	0.101668
H	0.2040419572048889 0.6490978598115128 0.9347417293539051	0.101950
H	0.0797240825749272 0.6504850298821783 0.9392165268942435	0.103384
H	0.6959703384100223 0.8576426724784212 0.7832431996990564	0.095319
H	0.6931485919474218 0.9831499762054317 0.7748300812035107	0.112540
H	0.8003982972422669 0.9874897716114919 0.0146904693056072	0.113897
H	0.7971288424088303 0.8619310669756558 0.0137861320862170	0.099545
H	0.6463477658692945 0.0796664839692388 0.8428688485007170	0.099917
H	0.6482455348843525 0.2041230327392653 0.8370060184544216	0.102459
H	0.8509224172490701 0.2039669048228022 0.9347403019190759	0.101913
H	0.8496155699371487 0.0796770178951710 0.9392089872098827	0.102799
H	0.8025873647881672 0.6417983906021646 0.7835578995012613	0.103973
H	0.8063619612739010 0.5169672393568303 0.7760684096994073	0.113953
H	0.6987672709304410 0.5121947137085945 0.0157010579566695	0.112595
H	0.7010983553953005 0.6378225236545289 0.0150354100650757	0.099758
H	0.8534467214664451 0.4204328292461519 0.8432310593212236	0.098954
H	0.8515670566037906 0.2959226144639665 0.8367764560096018	0.101261
H	0.6489070148159550 0.2958597945629173 0.9345839198760925	0.102711
H	0.6503192614919773 0.4201541643954863 0.9397790143450618	0.102354
H	0.6423476751299788 0.8040444233229678 0.2832540305262833	0.095258
H	0.5168428393627963 0.8068483021482502 0.2748388773556644	0.112519
H	0.5125068168909105 0.6995992798571232 0.5146984201654800	0.113924
H	0.6380609984450469 0.7028903756581570 0.5138050996241201	0.099546
H	0.4203335133849853 0.8536492501921102 0.3428768693139282	0.099950
H	0.2958776170831701 0.8517604575289057 0.3370037118944428	0.102409
H	0.2960259438990331 0.6490752654882846 0.4347439955758680	0.101760
H	0.4203171454441288 0.6503861463650570 0.4392140946077896	0.102727
H	0.8581952053145067 0.6974126497911826 0.2835421001687404	0.104111
H	0.9830236136627494 0.6936370196859507 0.2760635278424553	0.113920
H	0.9877858823200056 0.8012268842176392 0.5156959155594064	0.112528
H	0.8621683517402359 0.7989034292661487 0.5150195693068035	0.099857
H	0.0795718866518205 0.6465552133114343 0.3432317410395891	0.098897
H	0.2040784070229291 0.6484346000806062 0.3367776918027039	0.101219
H	0.2041401341336777 0.8510963822433751 0.4345867265235304	0.102635
H	0.0798472929290681 0.8496817992971859 0.4397792959614678	0.102269
H	0.6961315440112668 0.6419149532751633 0.2821140197732716	0.100499
H	0.6930087710149322 0.5167201774041451 0.2747133214152385	0.112469
H	0.8005250168827593 0.5124842558788772 0.5144128952392779	0.114431
H	0.7971821513296751 0.6377552960487088 0.5140410800563127	0.104709
H	0.6463537198364413 0.4203039454181116 0.3427510876314185	0.100321
H	0.6482201712566986 0.2958028653001333 0.3369899455510570	0.101754
H	0.8509056067023018 0.2959570784095910 0.4347480442547527	0.101888
H	0.8495226615514213 0.4202818992755891 0.4392222114164877	0.103471
H	0.8026598157001954 0.8578750473293436 0.2834934226425091	0.097838
H	0.8062700942503586 0.9830820152644804 0.2754841609702982	0.114830
H	0.6990355114961404 0.9876314748126157 0.5153581312430299	0.112162
H	0.7012407832767897 0.8617638503417517 0.5137657610543632	0.095785
H	0.8535631688053672 0.0795616880359562 0.3431690374848504	0.098800
H	0.8516368194980263 0.2040520841068368 0.3368602132567202	0.102014
H	0.6489638599650792 0.2040594519336679 0.4346367832875356	0.102298
H	0.6503315734575668 0.0797819905278034 0.4395764759931774	0.102401
H	0.3580924319538947 0.3038562366626076 0.2178952131453686	0.100538
H	0.4832866159311950 0.3069835109993566 0.2252855596891312	0.112492
H	0.4875110137175409 0.1994875525222568 0.9855873767469066	0.114326
H	0.3622405404908249 0.2028180379685615 0.9859719491832519	0.104671
H	0.5796958356905137 0.3536383983091049 0.1572398758690872	0.100285
H	0.7042016282014562 0.3517726973185514 0.1630000413239291	0.101665
H	0.7040455211738564 0.1490977028401500 0.0652556630149044	0.101881
H	0.5797162217894043 0.1504861408250278 0.0607848609020669	0.103471
H	0.1421315882220158 0.1973462266586679 0.2164993384753147	0.097914
H	0.0169166984640074 0.1937353103391396 0.2245138731498444	0.114851
H	0.0123664088053196 0.3009575336482361 0.9846334807808111	0.112094
H	0.1382395960332084 0.2987552036862591 0.9862353665192835	0.095770
H	0.9204445096820908 0.1464453781570640 0.1568207103168618	0.098869
H	0.7959492064607885 0.1483669301616335 0.1631310631183082	0.101979
H	0.7959376440170741 0.3510349788427906 0.0653655291319104	0.102195
H	0.9202200359175026 0.3496637145598375 0.0604266079199581	0.102354
H	0.3025804377022300 0.1417994431463308 0.2164569175603440	0.104004
H	0.3063541350474527 0.0169624150441062 0.2239329284269033	0.113967
H	0.1987722359869420 0.0122047481187836 0.9842983620580088	0.112565
H	0.2010989044018757 0.1378341734163893 0.9849713105276088	0.099839
H	0.3534419607654414 0.9204372593273187 0.1567585923435809	0.098945
H	0.3515660627540862 0.7959168552627585 0.1632130345991565	0.101186
H	0.1489048235900048 0.7958520778616482 0.0654164572385254	0.102657
H	0.1503168564048833 0.9201593396840430 0.0602225578958100	0.102241
H	0.1959684639352330 0.3576399210054909 0.2167594750041465	0.095333
H	0.1931555347364486 0.4831586666046224 0.2251607122912137	0.112478
H	0.3003852552044036 0.4874888363269473 0.9853026867785786	0.114054
H	0.2971112363357538 0.3619275722754395 0.9862137100107097	0.099599
H	0.1463524753712252 0.5796552505525832 0.1571133661473308	0.099935
H	0.1482465107923571 0.7041240505225933 0.1629831886156595	0.102384
H	0.3509249250741428 0.7039722310320889 0.0652624202397988	0.101778
H	0.3496134929118059 0.5796689366427784 0.0607921666911199	0.102803
Ni	0.2501545731450168 0.2498788473405037 0.6007633997048676	0.769424
Ni	0.7501262437351429 0.7498607958479823 0.8992948720597018	0.769274
Ni	0.7501469716961020 0.7498717574080972 0.3992625050513475	0.769065
Ni	0.2501228976529885 0.2498449435445765 0.1007581914692278	0.769373
Fe	0.2515357934084752 0.2502349371068964 0.3510866222736806	1.528410
Fe	0.7497743264016694 0.7484503430847460 0.1489665117654197	1.528421
Fe	0.7515205682507223 0.7502419103832680 0.6489000543261810	1.528631
Fe	0.2497595220992958 0.2484655568530472 0.8510746584971578	1.528408
	  	
