#======================================================================

# CRYSTAL DATA

#----------------------------------------------------------------------

data_VESTA_phase_1


_pd_phase_name                         FeFFIVE_5_Cu_i
_cell_length_a                         19.73558
_cell_length_b                         19.73564
_cell_length_c                         16.23667
_cell_angle_alpha                      90
_cell_angle_beta                       89.99967
_cell_angle_gamma                      89.98376
_symmetry_space_group_name_H-M         P 1
_symmetry_Int_Tables_number            1

loop_
_symmetry_equiv_pos_as_xyz
   x, y, z

loop_
   _atom_site_label
   _atom_site_fract_x
   _atom_site_fract_y
   _atom_site_fract_z
   _atom_site_charge
F	0.2904516853949308 0.1621435755011827 0.3522101109678933	-0.613979
F	0.1575967967842581 0.2636644639955925 0.3507890507394126	-0.624378
F	0.3118573036181057 0.3233327150654093 0.3510041135961797	-0.618130
F	0.6766760861416133 0.6881550749128015 0.1489729377912024	-0.618073
F	0.7363313270225993 0.8423928766325159 0.1492466357179021	-0.624395
F	0.8378428848320569 0.7095384456989035 0.1477894477048844	-0.614004
F	0.6576266216895239 0.7636829927239346 0.6491907291591978	-0.624467
F	0.7904814605036183 0.6621610888176059 0.6477983638297303	-0.614093
F	0.8119004150880043 0.8232751574466123 0.6489341287843355	-0.618122
F	0.1766945526683269 0.1881240389896368 0.8510510709849333	-0.618013
F	0.3378357608519598 0.2095443122530757 0.8521917422763862	-0.614059
F	0.2363140161576494 0.3424019589385081 0.8507756171570960	-0.624449
F	0.2497857532533692 0.2496916603338799 0.4692589747500808	-0.604591
F	0.2501712319667853 0.2486048591324775 0.2331864501001210	-0.604757
F	0.7503074590122860 0.7502102153548467 0.0307430121550631	-0.604642
F	0.7513945586776895 0.7498109543568032 0.2667997421300174	-0.604685
F	0.7497859420157298 0.7496709388830951 0.5307220561619725	-0.604650
F	0.7501856351813923 0.7486201766203137 0.7668004646465604	-0.605085
F	0.2503307058645580 0.2502301395109561 0.9692618487662903	-0.604687
F	0.2513906618518948 0.2498136931198248 0.7331862418122854	-0.604692
N	0.3531948969064405 0.2477914523225008 0.6005673163195947	-0.227925
N	0.1468670068782444 0.2529452913598903 0.6017744725424398	-0.226640
N	0.2522797259582391 0.3531881574246172 0.6011883003165218	-0.226334
N	0.2470567429574756 0.1468810186101308 0.6021088780532081	-0.228420
N	0.6468111272281573 0.7477203862623615 0.8988077482603842	-0.226375
N	0.8531180145200716 0.7529430045192227 0.8978897929834487	-0.228491
N	0.7470541950279467 0.8531326774495847 0.8982232356277005	-0.226630
N	0.7522088340279152 0.6468048448306714 0.8994315233887100	-0.227944
N	0.6468675572953855 0.7529458813961435 0.3982279368086048	-0.226559
N	0.8531942531196769 0.7477933240279065 0.3994281995872832	-0.228116
N	0.7470589181105702 0.6468812180176550 0.3978886833710289	-0.228338
N	0.7522789700358284 0.8531872506464151 0.3988110395510791	-0.226222
N	0.3531176859955694 0.2529425724956773 0.1021102506326129	-0.228498
N	0.1468123486322077 0.2477202764470881 0.1011854924004637	-0.226296
N	0.2522094540773185 0.1468071956251730 0.1005663063728869	-0.227948
N	0.2470545030817260 0.3531326193795907 0.1017747796544626	-0.226690
C	0.3863825037614058 0.2195867887372954 0.6643776697641571	0.099035
C	0.4566516403006499 0.2179185615881475 0.6678701063604584	-0.175130
C	0.4948530157094632 0.2473236951832008 0.6044485693071744	0.103811
C	0.4591515116649265 0.2767441550244839 0.5387063665606722	-0.181851
C	0.3887517092654970 0.2756283626407470 0.5383455098687580	0.100998
C	0.5694852133501398 0.2479239770517849 0.6075178500274157	0.055743
C	0.6058132164391266 0.1916668625052036 0.6370453841069660	-0.130288
C	0.6762517125669518 0.1924260647360008 0.6397809928873532	-0.126338
C	0.7127589739638410 0.2498416821225105 0.6143175301649054	0.068772
C	0.6764108464489414 0.3064864533171232 0.5861787674856583	-0.120706
C	0.6060363452307723 0.3052872030364772 0.5820691211086656	-0.127274
C	0.1136705942320393 0.2811001428004866 0.6655622224555613	0.104377
C	0.0434192881333580 0.2825952772947148 0.6692686267198555	-0.178668
C	0.0052344666919611 0.2528992784072105 0.6058626601399192	0.107505
C	0.0408976754223701 0.2238723729711161 0.5399589179614408	-0.177675
C	0.1112301039804555 0.2253678456123255 0.5396173952255733	0.107470
C	0.9306193213474523 0.2520270974417498 0.6087114667743055	0.054155
C	0.8941967612256515 0.3083784395914390 0.6377518928690965	-0.131120
C	0.8237639315466647 0.3076917452088659 0.6400137232490117	-0.124856
C	0.7873418903253661 0.2502362654029199 0.6145169903371054	0.069426
C	0.8237646509663503 0.1935810876701598 0.5864457086382996	-0.121919
C	0.8941745846363932 0.1946982766763889 0.5828529501580519	-0.124137
C	0.2803903864379757 0.3864281334799579 0.6648944730476052	0.107866
C	0.2821651940415081 0.4566639581941833 0.6684017089892921	-0.175341
C	0.2528115033941146 0.4948195432890435 0.6048696365645169	0.108417
C	0.2233909447478387 0.4591301631373363 0.5391147613639055	-0.181373
C	0.2245289807674991 0.3887861671469590 0.5390564755671411	0.104549
C	0.2521443851221351 0.5694222364327419 0.6077986862545415	0.054122
C	0.3084090473981640 0.6057608905819851 0.6372003939549343	-0.130532
C	0.3076607258210748 0.6761964072137112 0.6398135591422863	-0.125607
C	0.2501983557301014 0.7126745807934906 0.6143277779687070	0.069257
C	0.1935599876513962 0.6762998251493390 0.5862025400126106	-0.121435
C	0.1947519442316268 0.6059193560973404 0.5822448621013723	-0.125235
C	0.2188765623397081 0.1137180929354701 0.6660308214789422	0.100648
C	0.2173829551173330 0.0434143993065769 0.6694327669877036	-0.179036
C	0.2470120150031483 0.0052165210731468 0.6060097080352774	0.104046
C	0.2760676200921320 0.0409342487390153 0.5401919988329130	-0.178587
C	0.2746889427400877 0.1113103894332748 0.5397956332903436	0.099846
C	0.2479138333054653 0.9305683759193173 0.6087889660442660	0.054198
C	0.1915991922094152 0.8941096025740276 0.6378097972956636	-0.130545
C	0.1923013927339000 0.8236788690515638 0.6400103237351357	-0.125505
C	0.2497526695000556 0.7872608066002000 0.6145005524952419	0.068713
C	0.3063676978507810 0.8236919887438270 0.5864440297651269	-0.121865
C	0.3052386220517522 0.8941056179462152 0.5828900006467708	-0.124544
C	0.6135710987149522 0.7196107656328868 0.8351038157263245	0.108019
C	0.5433349070873014 0.7178346699715068 0.8315981624344809	-0.175409
C	0.5051800811547851 0.7471874982860827 0.8951310017077736	0.108416
C	0.5408697161161407 0.7766068024665660 0.9608841010496234	-0.181399
C	0.6112138102830637 0.7754691933251319 0.9609396493989862	0.104482
C	0.4305771471654727 0.7478549968904074 0.8922027177758792	0.054091
C	0.3942376795541306 0.6915915538563923 0.8628018573061056	-0.130529
C	0.3238033534493030 0.6923393541343470 0.8601898559084303	-0.125624
C	0.2873243961169713 0.7498011682784251 0.8856726624617204	0.069195
C	0.3236996017395390 0.8064385381705494 0.9137970970744828	-0.121364
C	0.3940791111320132 0.8052463189297082 0.9177553916130613	-0.125258
C	0.8862810413863897 0.7811206201689124 0.8339687424119641	0.100754
C	0.9565842801678931 0.7826152138799370 0.8305666231722544	-0.179129
C	0.9947822555234683 0.7529882821199584 0.8939893352603773	0.104092
C	0.9590643879947086 0.7239348315956158 0.9598067996095402	-0.178618
C	0.8886885080895228 0.7253141542451915 0.9602027668675056	0.099821
C	0.0694300895313185 0.7520853602001830 0.8912110004455768	0.054277
C	0.1058900803119499 0.8083982687799992 0.8621890254774097	-0.130723
C	0.1763194025367573 0.8076968727344863 0.8599900527803185	-0.125309
C	0.2127384109246496 0.7502469202281521 0.8854996605333910	0.068680
C	0.1763064674318270 0.6936332138434117 0.9135557890636103	-0.121871
C	0.1058942114203551 0.6947624798192691 0.9171094025519347	-0.124508
C	0.7189025362821436 0.8863284632735129 0.8344357331300960	0.104389
C	0.7174060843137442 0.9565800210714619 0.8307312667762388	-0.178493
C	0.7471006353297309 0.9947642974545096 0.8941371468627201	0.107372
C	0.7761250408814029 0.9591008501127396 0.9600407612183395	-0.177640
C	0.7746297660106530 0.8887685634884708 0.9603803380205637	0.107478
C	0.7479732354665818 0.0693794056672382 0.8912881697872729	0.054124
C	0.6916237594638804 0.1058035362601017 0.8622491315542656	-0.131115
C	0.6923089800965319 0.1762350896436634 0.8599888882277439	-0.124855
C	0.7497634144846863 0.2126580500321172 0.8854842511369309	0.069438
C	0.8064172768401101 0.1762342936992173 0.9135549971382556	-0.121968
C	0.8053001013463982 0.1058253964710802 0.9171470608865132	-0.124073
C	0.7804116638785655 0.6136175161684748 0.8356222982223669	0.099050
C	0.7820805792460603 0.5433488522414196 0.8321296317270980	-0.175197
C	0.7526778740836616 0.5051479661085824 0.8955521021572626	0.103832
C	0.7232584306892220 0.5408497913258450 0.9612934211938521	-0.181871
C	0.7243737733214942 0.6112494595864085 0.9616536297101774	0.101064
C	0.7520763608092565 0.4305157393434683 0.8924826878504222	0.055721
C	0.8083318728495252 0.3941861790419273 0.8629556372194019	-0.130351
C	0.8075743651276698 0.3237484369192641 0.8602208568250237	-0.126227
C	0.7501587856944560 0.2872409489087304 0.8856831104982889	0.068754
C	0.6935153780603536 0.3235903618574160 0.9138206617888796	-0.120662
C	0.6947146801485928 0.3939633665441388 0.9179306933017710	-0.127272
C	0.6136691306352771 0.7810985759252252 0.3344406752610929	0.104300
C	0.5434172697982391 0.7825928969758532 0.3307371037246002	-0.178695
C	0.5052306244234586 0.7528973151614518 0.3941409777082888	0.107595
C	0.5408974619735942 0.7238735005034218 0.4600414488663718	-0.177704
C	0.6112285205836211 0.7253690607304116 0.4603824256173431	0.107405
C	0.4306192130844227 0.7520261841878788 0.3912910735224657	0.054223
C	0.3941963840511146 0.8083762245341688 0.3622517026699640	-0.131207
C	0.3237654205490478 0.8076909241863550 0.3599902524449173	-0.124759
C	0.2873417345352840 0.7502367983750984 0.3854870744016020	0.069374
C	0.3237652205151844 0.6935823613307116 0.4135574327170437	-0.121942
C	0.3941737509639615 0.6946991303305000 0.4171486231676004	-0.124125
C	0.8863843328245489 0.7195910347932083 0.3356193964030331	0.099208
C	0.9566526781773722 0.7179214946126005 0.3321297273196331	-0.175296
C	0.9948560043512813 0.7473230055411659 0.3955510591410958	0.103871
C	0.9591513250711552 0.7767412749813190 0.4612900866304069	-0.181822
C	0.8887517824855427 0.7756274805145211 0.4616504209860559	0.101122
C	0.0694848024781611 0.7479231863832393 0.3924835092680198	0.055696
C	0.1058137219020316 0.6916680292364269 0.3629560778184499	-0.130290
C	0.1762510176796609 0.6924257781076406 0.3602217647953605	-0.126355
C	0.2127588619710199 0.7498409457820241 0.3856857059071758	0.068877
C	0.1764086098159101 0.8064838477501074 0.4138234844434741	-0.120678
C	0.1060361816005665 0.8052848856996981 0.4179323708366512	-0.127296
C	0.7188787815941819 0.6137160763690952 0.3339699968755240	0.100580
C	0.7173844826036351 0.5434124733099160 0.3305696829178065	-0.179127
C	0.7470127627708997 0.5052128385940305 0.3939903838093752	0.104048
C	0.7760673906833803 0.5409332811189742 0.4598048976052919	-0.178671
C	0.7746884343925746 0.6113090466876033 0.4602002710704873	0.099760
C	0.7479143554808401 0.4305684784210123 0.3912132892730446	0.054336
C	0.6916012738421820 0.3941087859949489 0.3621920984079284	-0.130627
C	0.6923035094993201 0.3236801167924804 0.3599919592166992	-0.125379
C	0.7497528133691030 0.2872606080642242 0.3855021478587194	0.068748
C	0.8063663355097955 0.3236928632194601 0.4135593330915833	-0.121867
C	0.8052373687856165 0.3941048569235384 0.4171120193818315	-0.124504
C	0.7803878535125897 0.8864301525378468 0.3351065910147730	0.107760
C	0.7821639192969879 0.9566657906356868 0.3316014416951729	-0.175260
C	0.7528127681866509 0.9948235817049161 0.3951331757713775	0.108409
C	0.7233943983629855 0.9591306284713744 0.4608854999345737	-0.181359
C	0.7245309582032505 0.8887869784243886 0.4609434485846621	0.104422
C	0.7521461055376375 0.0694221613064074 0.3922048541924272	0.054047
C	0.8084098914328711 0.1057615387612038 0.3628039301374424	-0.130511
C	0.8076616412715372 0.1761954160949087 0.3601905750615609	-0.125521
C	0.7501999086627572 0.2126749084516326 0.3856739488189277	0.069111
C	0.6935622583725345 0.1762983639751977 0.4137984863418884	-0.121221
C	0.6947547291685641 0.1059195922604864 0.4177574688348530	-0.125248
C	0.3862840531327545 0.2811183894868550 0.1660286085635982	0.100671
C	0.4565865580684645 0.2826132868168941 0.1694326529151263	-0.179114
C	0.4947851534672172 0.2529869651507869 0.1060119914331188	0.104053
C	0.4590678349942187 0.2239347848327157 0.0401969961361728	-0.178748
C	0.3886930314872974 0.2253151347218668 0.0398009662308014	0.099913
C	0.5694320501464694 0.2520849735628815 0.1087893379559740	0.054424
C	0.6058920001998649 0.3083958009228256 0.1378118756844853	-0.130850
C	0.6763208017366681 0.3076930163198849 0.1400083469960814	-0.125266
C	0.7127407413380508 0.2502460589577500 0.1145009803299051	0.068542
C	0.6763081988624967 0.1936358319186461 0.0864462014129625	-0.121785
C	0.6058970612495429 0.1947650241832247 0.0828909501532141	-0.124429
C	0.1135687859782999 0.2196126761162894 0.1648881568642712	0.108007
C	0.0433348377455009 0.2178367892012916 0.1683978598567715	-0.175372
C	0.0051781100393859 0.2471888222817084 0.1048688376883546	0.108449
C	0.0408675015555466 0.2766073452540583 0.0391159761090214	-0.181250
C	0.1112101441779802 0.2754690779983595 0.0390579598509246	0.104441
C	0.9305770398725473 0.2478541741322151 0.1077972933902573	0.053962
C	0.8942374922497205 0.1915932416112183 0.1371998412087932	-0.130452
C	0.8238036949245785 0.1923429201516663 0.1398107919810435	-0.125599
C	0.7873237888446635 0.2497993977619278 0.1143286680086191	0.069499
C	0.8236993294538825 0.3064334895214003 0.0862054135962775	-0.121541
C	0.8940779126076105 0.3052429722584005 0.0822453590800939	-0.125176
C	0.2804090851741116 0.1136156498440847 0.1643739824632011	0.099008
C	0.2820774106279069 0.0433484165200499 0.1678682656223782	-0.175331
C	0.2526777290638266 0.0051462406516023 0.1044481694220911	0.104000
C	0.2232596348955018 0.0408482066258724 0.0387087640612068	-0.181924
C	0.2243762111898817 0.1112465768608961 0.0383482792509371	0.101086
C	0.2520781802285799 0.9305156531277815 0.1075158217257237	0.055859
C	0.3083300171500987 0.8941858880661246 0.1370449952062129	-0.130460
C	0.3075713314063075 0.8237488817192352 0.1397781627103153	-0.126176
C	0.2501596715051184 0.7872398539011456 0.1143168446071373	0.068813
C	0.1935209649790396 0.8235909212723879 0.0861802088080324	-0.120742
C	0.1947193452943214 0.8939626646341489 0.0820675934804288	-0.127505
C	0.2189029153140863 0.3863315758582838 0.1655601833211804	0.104393
C	0.2174070791456721 0.4565821360708137 0.1692669056988726	-0.178584
C	0.2471018735035128 0.4947668603954828 0.1058637368747863	0.107615
C	0.2761237834104404 0.4591032588812180 0.0399613244447718	-0.177903
C	0.2746284741585278 0.3887732709389580 0.0396220094758889	0.107640
C	0.2479733957283070 0.5693803948584698 0.1087134991323675	0.054118
C	0.1916252944815018 0.6058053420924157 0.1377523974346803	-0.130957
C	0.1923121982199459 0.6762361981178818 0.1400113626959225	-0.124925
C	0.2497625266237734 0.7126601538045139 0.1145162582189874	0.069299
C	0.3064130558601802 0.6762351088876966 0.0864472847153004	-0.121777
C	0.3052975740547451 0.6058273485280192 0.0828545167561842	-0.124137
H	0.3555882055762392 0.2001152424606781 0.7149025960297197	0.109065
H	0.4813157521837749 0.1955117584252615 0.7213921671872163	0.116429
H	0.4860620161301691 0.2992326858056895 0.4868831733334846	0.115804
H	0.3594519361441793 0.2964640529879158 0.4871632677567075	0.106604
H	0.5783154891667014 0.1465011850155493 0.6566880138066798	0.100249
H	0.7035644047907742 0.1484053311087333 0.6632429521861579	0.101875
H	0.7037875598147713 0.3512543018084232 0.5650952177964657	0.102447
H	0.5787190037263940 0.3497314862676991 0.5599068347944250	0.103154
H	0.1451979346726102 0.3015751683623680 0.7147302457517561	0.102140
H	0.0186176430497515 0.3049403110720681 0.7227181782304835	0.115089
H	0.0140837628770472 0.2014985400577702 0.4879468170213638	0.116461
H	0.1406564106831900 0.2058980158052838 0.4880277135033445	0.105481
H	0.9216577961523219 0.3536106011612454 0.6572479341100226	0.100364
H	0.7964284065200883 0.3519179824466441 0.6629202368267718	0.102865
H	0.7963864671244335 0.1489497437280586 0.5648944949468543	0.102856
H	0.9214776484185950 0.1502150603573007 0.5607660772986853	0.103578
H	0.2997150159554308 0.3551398841430680 0.7148581265648462	0.104704
H	0.3043406055030569 0.4813828067377496 0.7220263985476555	0.116113
H	0.2009386286448918 0.4860116351661147 0.4872195994105058	0.115126
H	0.2037423070578557 0.3590376540572520 0.4884502877577064	0.102896
H	0.3536070757578207 0.5782710368732488 0.6567935264624682	0.099709
H	0.3517301558547146 0.7035159705666467 0.6631379551562167	0.102745
H	0.1487923783503273 0.7036786278931906 0.5650178389928495	0.102696
H	0.1502719925216190 0.5786103367059859 0.5601897790852186	0.103047
H	0.1985514165882542 0.1447252613397841 0.7159860043166624	0.106881
H	0.1949968469036843 0.0186014780734900 0.7228324073429996	0.115440
H	0.2986221178121851 0.0141528749560445 0.4882822173169916	0.116006
H	0.2944481940912010 0.1402819247529176 0.4877566116042378	0.109034
H	0.1464065927916302 0.9215924067660988 0.6574135535528632	0.100278
H	0.1481114620184356 0.7963492022270267 0.6629242561330527	0.102091
H	0.3509858052245242 0.7963099853700776 0.5648825374325015	0.102918
H	0.3496916175982529 0.9214109039477272 0.5607501541248152	0.103846
H	0.6448573964915775 0.7002874999118658 0.7851403612599100	0.104700
H	0.5186159126766635 0.6956598469856567 0.7779744488132683	0.116104
H	0.5139887671543482 0.7990573343313254 0.0127807682806238	0.115135
H	0.6409615680100680 0.7962536148691001 0.0115452580933524	0.102960
H	0.4217277723111164 0.6463939408126976 0.8432104048130078	0.099714
H	0.2964838600883504 0.6482706275866273 0.8368653734428363	0.102786
H	0.2963211234443200 0.8512058075687299 0.9349797974398373	0.102666
H	0.4213880393656929 0.8497253371257876 0.9398089397609255	0.103050
H	0.8552756686728710 0.8014434600323967 0.7840136858952853	0.106907
H	0.9813971716224822 0.8050005450434848 0.7771678999734372	0.115436
H	0.9858442885500236 0.7013810857915086 0.0117176876975736	0.116040
H	0.8597172926936700 0.7055566074239006 0.0122418270805434	0.109091
H	0.0784077266248813 0.8535895826387124 0.8425858074662945	0.100277
H	0.2036493605797090 0.8518858927898862 0.8370753422826626	0.102037
H	0.2036884554793638 0.6490160568058867 0.9351159283106955	0.102917
H	0.0785890334523575 0.6503103237224374 0.9392478620500948	0.103813
H	0.6984297667325441 0.8548022725005607 0.7852678393971932	0.102156
H	0.6950616713923473 0.9813813641256349 0.7772822341955526	0.115033
H	0.7984974366162808 0.9859138381228040 0.0120535988875186	0.116449
H	0.7940976068373421 0.8593434433076044 0.0119692086126087	0.105487
H	0.6463927399063889 0.0783425177616917 0.8427536009615093	0.100350
H	0.6480842121800651 0.2035701233062566 0.8370803801394151	0.102868
H	0.8510486581535790 0.2036122657827771 0.9351038231360597	0.102882
H	0.8497825165043396 0.0785231486335889 0.9392345111556970	0.103536
H	0.7998833519590469 0.6444099727871035 0.7850994385529146	0.109100
H	0.8044866329746067 0.5186845216323228 0.7786075335032694	0.116446
H	0.7007711022289037 0.5139398033450328 0.0131168580557773	0.115764
H	0.7035393136125950 0.6405479727668305 0.0128352159059901	0.106634
H	0.8534967670657798 0.4216834864849103 0.8433132132356035	0.100246
H	0.8515933471975934 0.2964363067039978 0.8367579569275335	0.101797
H	0.6487476026862201 0.2962147511273040 0.9349038721225975	0.102469
H	0.6502718906367448 0.4212821690763811 0.9400916874284631	0.103131
H	0.6451954060128695 0.8015724387233295 0.2852772801429476	0.102160
H	0.5186173243466512 0.8049372923055153 0.2772867596737905	0.115091
H	0.5140834721721065 0.7015004423079452 0.5120543276658643	0.116429
H	0.6406534638767377 0.7059008785870817 0.5119688180193238	0.105490
H	0.4216571470033594 0.8536071835679750 0.3427576595570085	0.100356
H	0.2964300616108889 0.8519142235045142 0.3370843397813513	0.102866
H	0.2963856437103575 0.6489517628541516 0.4351045305305701	0.102885
H	0.4214758626208482 0.6502158210813487 0.4392351235002485	0.103544
H	0.8555911536327350 0.7001202786432289 0.2850983763824855	0.109049
H	0.9813158227412573 0.6955134161015450 0.2786084949081455	0.116473
H	0.9860603143612914 0.7992273481661742 0.5131151888884492	0.115701
H	0.8594539269217406 0.7964594087048988 0.5128315753016217	0.106608
H	0.0783168818656714 0.6465029412301788 0.3433145179308537	0.100248
H	0.2035638672560202 0.6484088757194524 0.3367589671880208	0.101817
H	0.2037858452712221 0.8512501447821894 0.4349051764498247	0.102459
H	0.0787182111695690 0.8497288080883668 0.4400935932607917	0.103161
H	0.6985526990943201 0.6447233796476423 0.2840198732958920	0.106888
H	0.6949971643436974 0.5186010640732751 0.2771714965124052	0.115489
H	0.7986186783099112 0.5141542686283532 0.5117168992756705	0.116048
H	0.7944459074973489 0.6402784199151252 0.5122356453758223	0.109074
H	0.6464107314998572 0.4215916163869908 0.3425877810756941	0.100295
H	0.6481162206801114 0.2963502450122004 0.3370772913246196	0.102031
H	0.8509825152688779 0.2963093766151632 0.4351168767283285	0.102912
H	0.8496896905211060 0.4214097552728458 0.4392503604753657	0.103763
H	0.7997099498063365 0.8551442248857553 0.2851446852574590	0.104706
H	0.8043393158424745 0.9813830205585499 0.2779763881134014	0.116095
H	0.7009427431327770 0.9860115477256803 0.5127808157725011	0.115105
H	0.7037453576790179 0.8590386464737005 0.5115453117109607	0.102934
H	0.8536068483620498 0.0782723362415403 0.3432112113310788	0.099684
H	0.8517285378451153 0.2035160565474732 0.3368661353964845	0.102763
H	0.6487958517900895 0.2036786330907218 0.4349810386454915	0.102619
H	0.6502745540601436 0.0786111927957041 0.4398107532203360	0.103022
H	0.3552770063104980 0.3014431324763668 0.2159807269701437	0.106912
H	0.4813972133063072 0.3049989421365299 0.2228313686657502	0.115468
H	0.4858475663622536 0.2013830400157598 0.9882858782789593	0.116077
H	0.3597218220324193 0.2055591084397185 0.9877648830738223	0.109041
H	0.5784100644774660 0.3535862771339550 0.1574155326785602	0.100366
H	0.7036491542871303 0.3518795437962334 0.1629260141950003	0.102010
H	0.7036884470166781 0.1490202102166369 0.0648845101524638	0.102843
H	0.5785912163590994 0.1503136967695350 0.0607528092193845	0.103691
H	0.1448565549097560 0.2002910839943114 0.2148494227543256	0.104591
H	0.0186171062231768 0.1956624393286248 0.2220221461265882	0.116083
H	0.0139861890403054 0.2990583780765210 0.9872209212913029	0.115072
H	0.1409585302816587 0.2962543711539157 0.9884543064257337	0.102893
H	0.9217275061705904 0.1463971081703403 0.1567918694716779	0.099693
H	0.7964861443661667 0.1482765041848600 0.1631375203538608	0.102740
H	0.7963224022255374 0.3511995050047504 0.0650225566803456	0.102646
H	0.9213879342741385 0.3497220415903010 0.0601925573788841	0.103047
H	0.2998782405870716 0.1444092897884472 0.2148962547784398	0.109046
H	0.3044838411086764 0.0186858740548618 0.2213906815789133	0.116497
H	0.2007745760500350 0.0139389664157646 0.9868847911681494	0.115750
H	0.2035445256968922 0.1405447359960837 0.9871658995485212	0.106639
H	0.3534937876172786 0.9216834283057923 0.1566870847588100	0.100268
H	0.3515879826531255 0.7964384167638174 0.1632438233764438	0.101789
H	0.1487545890137339 0.7962161462147987 0.0650970952416084	0.102546
H	0.1502769477805889 0.9212811886562959 0.0599071024679972	0.103252
H	0.1984304330152094 0.3548047595497126 0.2147245717133318	0.102132
H	0.1950628776957222 0.4813822388707901 0.2227164798955879	0.115019
H	0.2984953077895940 0.4859173869176938 0.9879498119027988	0.116459
H	0.2940969435400850 0.3593471537392787 0.9880363151959090	0.105469
H	0.1463962352631029 0.5783440882835846 0.1572480207604515	0.100292
H	0.1480900056343625 0.7035678138605587 0.1629208310869726	0.102873
H	0.3510427914285565 0.7036125344623271 0.0648987650929419	0.102826
H	0.3497798028712712 0.5785250738133243 0.0607668291068937	0.103532
Cu	0.2500524800228442 0.2499589413959104 0.6006584069913632	0.739841
Cu	0.7500402920756493 0.7499476319567642 0.8993374097352033	0.739919
Cu	0.7500527641574143 0.7499589021156667 0.3993378650381220	0.739943
Cu	0.2500409801253551 0.2499476077028440 0.1006566133139532	0.739994
Fe	0.2519009920604765 0.2494432793539795 0.3513141290086860	1.523912
Fe	0.7505557669824264 0.7481017087135509 0.1486965920390205	1.523870
Fe	0.7519128173840545 0.7494439058867125 0.6486656455313937	1.524414
Fe	0.2505458495481012 0.2481043687816519 0.8513016201691893	1.523994
	  	
