#======================================================================

# CRYSTAL DATA

#----------------------------------------------------------------------

data_VESTA_phase_1


_pd_phase_name                         FeFFIVE_7_Cd
_cell_length_a                         20.08503
_cell_length_b                         19.57891
_cell_length_c                         8.16617
_cell_angle_alpha                      88.70718
_cell_angle_beta                       91.24237
_cell_angle_gamma                      90.11848
_symmetry_space_group_name_H-M         P 1
_symmetry_Int_Tables_number            1

loop_
_symmetry_equiv_pos_as_xyz
   x, y, z

loop_
   _atom_site_label
   _atom_site_fract_x
   _atom_site_fract_y
   _atom_site_fract_z
   _atom_site_charge
C	0.6555837262433784 0.8683642268622541 0.7061939537805644	0.091341
C	0.6056481664238947 0.9174863612898837 0.7067860677433710	-0.174519
C	0.5861192997005674 0.8986620165590207 0.4200600822332637	-0.171403
C	0.6364913698095923 0.8503239317537226 0.4285191620825537	0.091833
C	0.8501930396120878 0.6275567488508492 0.6997094139497795	0.086497
C	0.8999058240960929 0.5782786908045129 0.7026421758246703	-0.177799
C	0.9176853423022698 0.6045001415321762 0.4184617571459688	-0.176439
C	0.8676574105231102 0.6531696571568778 0.4251742726041239	0.088139
C	0.6335124018885693 0.6468087187644503 0.7071572505541143	0.081523
C	0.5837287822570764 0.5972799212213911 0.7077693455697379	-0.175794
C	0.5965586327766216 0.5869509124502734 0.4180709162456155	-0.171720
C	0.6456214701753412 0.6367827856716398 0.4260554010627610	0.085367
C	0.8719092027414573 0.8405549295578097 0.7017918056055384	0.091446
C	0.9216546720248924 0.8900054916339715 0.7036128349297881	-0.174503
C	0.8920318806969846 0.9187912836333917 0.4238196783736563	-0.170369
C	0.8433721200671724 0.8684637281370283 0.4311986975926436	0.096183
C	0.3407810978794464 0.3723809809084320 0.3015968217553915	0.094870
C	0.3904276681350783 0.4219266777712699 0.2977086569910115	-0.172197
C	0.4180373861234564 0.3919756956375661 0.5779866122201702	-0.169558
C	0.3675757009639918 0.3435169921477145 0.5726929015494903	0.094006
C	0.1467708508561050 0.1332369513488791 0.2941910964293284	0.085553
C	0.0969541905906206 0.0837896394725109 0.2924070556720930	-0.177495
C	0.0865930382356982 0.0972185807701720 0.5819456720295251	-0.173783
C	0.1367770424391284 0.1459233905706519 0.5750538145742233	0.084237
C	0.3705899990645117 0.1557626166076250 0.2937466805181350	0.088858
C	0.4200186994723993 0.1060765336182446 0.2920506082530699	-0.177136
C	0.4005200974699185 0.0826650046867507 0.5768650304287790	-0.173434
C	0.3518963820659483 0.1328249090272656 0.5691230303667687	0.085204
C	0.1309211255598634 0.3484022447249256 0.2981191010148277	0.091576
C	0.0813612831856699 0.3979023306865418 0.2948461048650807	-0.174716
C	0.1044723669314496 0.4154933670401743 0.5805030455537116	-0.169996
C	0.1533833461756719 0.3656611904090188 0.5746101746413055	0.089216
C	0.4361267805254113 0.0678895172887544 0.4353707667855873	0.136864
C	0.4877925056272130 0.0158014191554782 0.4319267624337867	-0.130524
C	0.0667449802640322 0.4327958187984576 0.4384631774155539	0.135777
C	0.0147893916732456 0.4847860532367564 0.4331257987302033	-0.129520
C	0.4303780738027643 0.4331245977781675 0.4382554514242985	0.137126
C	0.4820322808430510 0.4855878726879311 0.4331751552373124	-0.128238
C	0.0654723163688700 0.0643457602952213 0.4383690574730703	0.137999
C	0.0129957728415594 0.0128515529874208 0.4342180415155363	-0.130580
C	0.5641279949453093 0.5656722991336474 0.5614635726250994	0.138061
C	0.5125464191024668 0.5132544158577510 0.5650561415338091	-0.132118
C	0.9330614083308261 0.9304880669845669 0.5623871960750850	0.139347
C	0.9855830307817196 0.9820216010445909 0.5662062289799122	-0.130225
C	0.5695191143999369 0.9338841509090243 0.5619181323714948	0.138535
C	0.5174848779702457 0.9856157012240426 0.5646978686490088	-0.130194
C	0.9348955915727788 0.5651103712642782 0.5593279540289291	0.140980
C	0.9866979846628361 0.5129818454878958 0.5643149681757536	-0.132180
H	0.6840621858061509 0.8551422688020699 0.8185310498597232	0.097554
H	0.5952157651849288 0.9431744190321167 0.8205204819883177	0.100080
H	0.5597873758886311 0.9079267175949157 0.3036760686572832	0.102093
H	0.6509220207750563 0.8225929951771712 0.3204661426463664	0.091516
H	0.8227636691967676 0.6398570004999770 0.8089668171526559	0.090946
H	0.9115989253718155 0.5499020327979891 0.8160730632981379	0.092831
H	0.9436665619083776 0.5987590472537031 0.3038955253147773	0.103895
H	0.8545902626777221 0.6852286311515540 0.3176517959251596	0.095827
H	0.6498509219575442 0.6713015197045334 0.8204504416744185	0.102407
H	0.5601128961521950 0.5832000744003121 0.8227876681111854	0.098570
H	0.5846606012078609 0.5648208231566036 0.2998063628904289	0.104849
H	0.6704735559675106 0.6547283096639903 0.3153919641868758	0.094108
H	0.8616070303892086 0.8086471960447503 0.8098382102097698	0.096969
H	0.9518206507326157 0.8970053029139973 0.8146501943676501	0.096139
H	0.8968593358427279 0.9491857412372681 0.3112876995258677	0.100885
H	0.8107735682359084 0.8582838081513333 0.3258226443275237	0.090599
H	0.3092731946781994 0.3622000149401113 0.1941820888942671	0.094843
H	0.3979207347936142 0.4521041477456087 0.1857446763321970	0.095829
H	0.4480108755174974 0.3965144291803254 0.6899862634144128	0.102429
H	0.3570664461293697 0.3106926495029285 0.6790735570949983	0.095911
H	0.1702980725981180 0.1506617594665423 0.1811588404769332	0.099637
H	0.0824091468936701 0.0605707376458777 0.1768030785193353	0.099148
H	0.0638933910388551 0.0861962092689220 0.6995778908407257	0.106763
H	0.1534215382569278 0.1720485468174607 0.6857624445318574	0.100205
H	0.3575059406750840 0.1863404557768526 0.1837603361054023	0.101850
H	0.4463161599443555 0.0972481437001698 0.1789990686422184	0.097644
H	0.4097249328724268 0.0548248923869573 0.6921317726741097	0.097908
H	0.3237358797944014 0.1460897905243478 0.6764837421961704	0.095115
H	0.1441227781787160 0.3211977822240547 0.1882726281791405	0.094724
H	0.0540895678723331 0.4095499549197713 0.1807019040702312	0.096201
H	0.0973119166939665 0.4411379769676817 0.6957534073489196	0.106440
H	0.1835550633878206 0.3526329225800495 0.6842318538829916	0.100954
H	0.5040320561377861 0.0024233891714057 0.3097298204326563	0.086138
H	0.9972059449311749 0.5002278324923113 0.3100235291658673	0.086426
H	0.4946917209038673 0.5042245099030126 0.3103563189025256	0.085963
H	-0.0035561496322723 0.9978792568733317 0.3116861594352253	0.087170
H	0.4973036401794050 0.4968343316076725 0.6875425159750729	0.087367
H	0.0044387463569438 0.9943888621615682 0.6887538803446294	0.086146
H	0.5037098854376055 0.0016067084595899 0.6869235977704621	0.085633
H	0.0020049087265175 0.4951057977552560 0.6873770446307689	0.088100
Cd	0.2486932982323151 0.2480385557017192 0.4336105248824918	0.845314
Cd	0.7493394803213952 0.7471944854314327 0.5709961058019831	0.842235
Fe	0.2491903094528421 0.2533384122891686 0.9329975392513693	1.201102
Fe	0.7505591143130406 0.7518358143421227 0.0687372735437050	1.368656
F	0.2463807242426649 0.2507517779230488 0.1613938404680699	-0.460240
F	0.2553896374905710 0.2398582955021805 0.7073994691047383	-0.462289
F	0.7578748098623221 0.7389335483619666 0.8435737883822065	-0.483743
F	0.7468481284376893 0.7494740109769722 0.2971936037665144	-0.479407
F	0.1710429164188997 0.2013372988210056 0.9306048626514016	-0.471406
F	0.2272884223703022 0.3471910506176153 0.9138133201107309	-0.467878
F	0.3415801229131173 0.2447197968229314 0.9493342259205723	-0.480247
F	0.7258261200972859 0.8449952654432754 0.0510381129727697	-0.502741
F	0.8430017820630324 0.7441037606916210 0.0869436525866227	-0.492568
F	0.6739891846207895 0.6974840512576939 0.0643124376757326	-0.483771
N	0.3367565270272390 0.1685125708040051 0.4302399555774159	-0.251968
N	0.1661418860432851 0.3324453424758836 0.4356948742021509	-0.252007
N	0.3295853845286266 0.3340194749681871 0.4369563293451565	-0.248469
N	0.1665851233929811 0.1634795837163954 0.4335279332587418	-0.247713
N	0.6640958937813134 0.6659760595428393 0.5682525929685078	-0.252928
N	0.8335857499275852 0.8299933759197734 0.5675461857952724	-0.252532
N	0.6705106913501656 0.8352878898072350 0.5689485126373911	-0.257249
N	0.8339605662508162 0.6640945934878735 0.5632964194836951	-0.254059
	  	
