#======================================================================

# CRYSTAL DATA

#----------------------------------------------------------------------

data_VESTA_phase_1


_pd_phase_name                         FeFFIVE_6_Cd_i
_cell_length_a                         18.22374
_cell_length_b                         18.22375
_cell_length_c                         16.38221
_cell_angle_alpha                      90.00062
_cell_angle_beta                       90.00045
_cell_angle_gamma                      89.97068
_symmetry_space_group_name_H-M         P 1
_symmetry_Int_Tables_number            1

loop_
_symmetry_equiv_pos_as_xyz
   x, y, z

loop_
   _atom_site_label
   _atom_site_fract_x
   _atom_site_fract_y
   _atom_site_fract_z
   _atom_site_charge
N	0.2439968396446237 0.1207553653540231 0.1283379633083304	-0.239764
N	0.2569327020151065 0.3791363545180990 0.1279949281428269	-0.241401
N	0.3791801012339590 0.2429559621561868 0.1277799791790963	-0.239381
N	0.1207913141772035 0.2557953851310915 0.1282021034416757	-0.241626
N	0.7570420105562055 0.6208201690510162 0.3722193558076057	-0.239421
N	0.7442041953939328 0.8792075096096059 0.3717975713565652	-0.241619
N	0.6208640359005509 0.7430681460307431 0.3720044739378570	-0.241443
N	0.8792438113797395 0.7560031345603621 0.3716600882791438	-0.239862
N	0.7569334487069987 0.8791365821420901 0.8720034598046896	-0.241520
N	0.7439976428250895 0.6207557012861590 0.8716592578155209	-0.239848
N	0.6207915367022403 0.7557948449823034 0.8717962977202175	-0.241645
N	0.8791801569516721 0.7429563047606970 0.8722199324265812	-0.239358
N	0.2442043796608683 0.3792076741360344 0.6282008486256643	-0.241635
N	0.2570426788974203 0.1208205279775421 0.6277810673206963	-0.239361
N	0.3792436559625341 0.2560034441590237 0.6283375676525346	-0.239809
N	0.1208640551009023 0.2430686086978354 0.6279980592957825	-0.241460
C	0.2029143548399445 0.0854644501270403 0.1839441644797577	0.106923
C	0.1944199586052272 0.0096562937021915 0.1831917733879070	-0.181814
C	0.2324425213997278 0.9679518691783140 0.1249109263359905	0.111820
C	0.2764921892231115 0.0054455782699251 0.0683679170742070	-0.181863
C	0.2795610311227604 0.0816308661581420 0.0711686681094535	0.102823
C	0.2268087446563173 0.8872894053455969 0.1237190173085833	0.060799
C	0.2895887093020045 0.8445359765249170 0.1209212768136217	-0.174321
C	0.2853611781315111 0.7671650933023763 0.1220725621148870	0.085516
C	0.1508209793608471 0.7775690694728379 0.1245061673389252	-0.123727
C	0.1567871293790256 0.8528079621011876 0.1266135246799435	-0.135886
C	0.2975893284945719 0.4143626933186322 0.1841576264586113	0.099404
C	0.3057176963858451 0.4902441138596458 0.1836659586058145	-0.184323
C	0.2676488118591424 0.5319862351285330 0.1253965794100384	0.108242
C	0.2240653259304793 0.4944690574422754 0.0684772066560326	-0.181086
C	0.2214537345205166 0.4181998547702655 0.0705816499123357	0.101126
C	0.2731305716459586 0.6126767891430445 0.1242382964222197	0.061826
C	0.2103372299655783 0.6554440306242533 0.1212582413651243	-0.174147
C	0.2145464943720729 0.7328230677329269 0.1221392355636958	0.085266
C	0.3490693512417462 0.7224262238797858 0.1245862218792359	-0.124327
C	0.3431497809451386 0.6471967313177607 0.1269949742607070	-0.136031
C	0.4144741652887454 0.2020175260659721 0.1835626280619376	0.100354
C	0.4903422907964597 0.1940374936388934 0.1833856234888499	-0.184397
C	0.5320699515840905 0.2323864346455985 0.1253829235577395	0.110074
C	0.4945423919170274 0.2761609904779200 0.0686119139546316	-0.178919
C	0.4183043798107529 0.2787339943597790 0.0708020313442388	0.107640
C	0.6127370771690728 0.2268993864465242 0.1242546724026071	0.061765
C	0.6554371005587519 0.2896706502021887 0.1212942228017388	-0.174000
C	0.7328235183562103 0.2854104316526958 0.1221512737258330	0.085247
C	0.7225029426040304 0.1508758806455142 0.1245679711026704	-0.124484
C	0.6472726503309738 0.1568459005806390 0.1269784642397105	-0.135559
C	0.0855000930849200 0.2966656331191695 0.1841664883149567	0.102233
C	0.0096682381488118 0.3052391616748323 0.1832262617711282	-0.181143
C	0.9680088215910749 0.2674277546344319 0.1247884510520896	0.108990
C	0.0055570466881463 0.2235536952694715 0.0680633039562676	-0.184226
C	0.0817887466064606 0.2204855957053329 0.0706704264479739	0.100800
C	0.8873168258129996 0.2731072519310919 0.1236137018374998	0.061865
C	0.8445740524459511 0.2103566117828835 0.1208296239734884	-0.174832
C	0.7672024987664119 0.2145767602250313 0.1220480751214039	0.085841
C	0.7775225423448288 0.3491050817841124 0.1245215619012302	-0.124458
C	0.8527851551813251 0.3431532662619934 0.1265722080690554	-0.136589
C	0.7979815523267341 0.5855250515320314 0.3164371487206800	0.100477
C	0.8059626134395816 0.5096570193421397 0.3166150456882924	-0.184468
C	0.7676132143159801 0.4679296387254807 0.3746176998225283	0.110125
C	0.7238385642188379 0.5054575011527275 0.4313890637505686	-0.178826
C	0.7212652226093997 0.5816954256558563 0.4291983854827732	0.107571
C	0.7731003711990463 0.3872628028377972 0.3757458194111216	0.061745
C	0.7103289973796377 0.3445623365709083 0.3787058469018330	-0.173962
C	0.7145895754756453 0.2671764235165808 0.3778488247496805	0.085264
C	0.8491239023282799 0.2774970274224102 0.3754323530783400	-0.124461
C	0.8431537851911282 0.3527273491129280 0.3730221424219407	-0.135608
C	0.7033343852742645 0.9144998164735751 0.3158324016565425	0.102120
C	0.6947610500768219 0.9903317521792090 0.3167736707485153	-0.181077
C	0.7325724348825176 0.0319914300748085 0.3752120836602135	0.108912
C	0.7764464663710517 0.9944423052015104 0.4319366636960952	-0.184232
C	0.7795145148976762 0.9182101771793109 0.4293295951728240	0.100877
C	0.7268927574583287 0.1126825002960303 0.3763869396294816	0.061871
C	0.7896434033152000 0.1554253896178276 0.3791708297363401	-0.174787
C	0.7854231007420117 0.2327971042402573 0.3779521431908386	0.085797
C	0.6508945652992332 0.2224769751451423 0.3754783810595527	-0.124450
C	0.6568463449978719 0.1472145370885651 0.3734281222591087	-0.136612
C	0.5856377111507176 0.7024104586724860 0.3158418250749556	0.099396
C	0.5097563754123365 0.6942820835279799 0.3163341650087853	-0.184296
C	0.4680137084875557 0.7323514272454974 0.3746033297017040	0.108264
C	0.5055309469560723 0.7759348359129762 0.4315232154829223	-0.181077
C	0.5818004070362852 0.7785467866725613 0.4294184436060584	0.101150
C	0.3873236953339832 0.7268696885529915 0.3757610841013632	0.061867
C	0.3445563803934752 0.7896630192462273 0.3787418113366374	-0.174140
C	0.2671772114621365 0.7854540123795098 0.3778614237768154	0.085256
C	0.2775735935688826 0.6509311120215799 0.3754139388320694	-0.124320
C	0.3528035621321335 0.6568506303385668 0.3730049960864432	-0.136082
C	0.9145361980509452 0.7970859485594169 0.3160542576872840	0.107002
C	0.9903444524788484 0.8055807429682580 0.3168076968185795	-0.181942
C	0.0320481058278194 0.7675579384036237 0.3750891399439863	0.111857
C	0.9945540756303661 0.7235083699347336 0.4316318793459540	-0.181915
C	0.9183682722500618 0.7204392050186764 0.4288302255930671	0.102868
C	0.1127109993218167 0.7731922882167279 0.3762819295880795	0.060845
C	0.1554642211382283 0.7104122831693955 0.3790792865102040	-0.174388
C	0.2328349551328633 0.7146392565833832 0.3779281064003330	0.085502
C	0.2224317687186095 0.8491795318935950 0.3754946538871548	-0.123784
C	0.1471924595978341 0.8432133103095732 0.3733878695346086	-0.135846
C	0.7975902075998216 0.9143619209724323 0.8158413440447447	0.099476
C	0.8057182094136890 0.9902432883872587 0.8163345221318509	-0.184274
C	0.7676489886346487 0.0319861270261628 0.8746034299308598	0.108312
C	0.7240656763422655 0.9944692101303105 0.9315223582843798	-0.181172
C	0.7214544824766821 0.9182000836962128 0.9294168702828757	0.101144
C	0.7731302419842194 0.1126766380066720 0.8757616159501264	0.061827
C	0.7103371217620802 0.1554440923592811 0.8787421571545252	-0.174107
C	0.7145463334310483 0.2328232726897798 0.8778613608037806	0.085233
C	0.8490690318161039 0.2224264456494509 0.8754141660173863	-0.124305
C	0.8431495663224603 0.1471967171355337 0.8730053441165181	-0.136056
C	0.7029146646399738 0.5854632157750564 0.8160536302791209	0.107016
C	0.6944192537663529 0.5096553630985733 0.8168076369797000	-0.181843
C	0.7324423881426086 0.4679529852483951 0.8750892284684296	0.111934
C	0.7764914661016755 0.5054471524080302 0.9316324051520127	-0.181899
C	0.7795614645173744 0.5816324068263512 0.9288303319121702	0.102818
C	0.7268081705847173 0.3872896895792960 0.8762817568329586	0.060776
C	0.7895886522011664 0.3445361246825868 0.8790790439564931	-0.174376
C	0.7853610919243758 0.2671653243523612 0.8779277079362779	0.085496
C	0.6508207409532494 0.2775690226132939 0.8754941563277633	-0.123707
C	0.6567866212030835 0.3528076731845955 0.8733866336001208	-0.135899
C	0.5854996190547778 0.7966651722981533 0.8158327728890661	0.102254
C	0.5096679413537927 0.8052390785291412 0.8167738118393434	-0.181197
C	0.4680092740243434 0.7674279639309551 0.8752114991098476	0.108939
C	0.5055586146302173 0.7235543915002802 0.9319359673175943	-0.184287
C	0.5817902145256933 0.7204858997754182 0.9293285446764442	0.100888
C	0.3873172838676204 0.7731075846976324 0.8763865965513812	0.061936
C	0.3445746350627729 0.7103567728115827 0.8791705747096589	-0.174843
C	0.2672028840367541 0.7145772022173853 0.8779520803122852	0.085789
C	0.2775231366626068 0.8491056159542060 0.8754783380661212	-0.124504
C	0.3527856005648092 0.8431535846105660 0.8734279131061257	-0.136602
C	0.9144744934462390 0.7020173219109599 0.8164368863393826	0.100336
C	0.9903426719638111 0.6940372678580815 0.8166146111075429	-0.184443
C	0.0320700661518996 0.7323870246813435 0.8746181994706788	0.110150
C	0.9945427415969885 0.7761619116728932 0.9313897865909381	-0.178884
C	0.9183048825607169 0.7787346635276711 0.9291988363539843	0.107552
C	0.1127374592885863 0.7269000724454144 0.8757463890222664	0.061716
C	0.1554378233858364 0.7896714779548908 0.8787062388883413	-0.173966
C	0.2328238665284968 0.7854108958529434 0.8778489052321601	0.085210
C	0.2225031202284667 0.6508764421411519 0.8754324441847010	-0.124483
C	0.1472726773043332 0.6568464759253817 0.8730224451427062	-0.135566
C	0.2033351616129122 0.4145005819435872 0.6841659719596381	0.102190
C	0.1947610380632172 0.4903321363649485 0.6832259103521198	-0.181171
C	0.2325725120448072 0.5319917728493647 0.6247878669632290	0.108991
C	0.2764460918589145 0.4944419181056059 0.5680632190587672	-0.184261
C	0.2795142071106085 0.4182101022930773 0.5706688013441776	0.100866
C	0.2268924415952728 0.6126829498159261 0.6236131754632563	0.061868
C	0.2896431888647203 0.6554259268205994 0.6208288735335604	-0.174892
C	0.2854226053649501 0.7327975466908746 0.6220477816818359	0.085859
C	0.1508943141918921 0.7224770193784203 0.6245217755304759	-0.124527
C	0.1568464468568265 0.6472148094911975 0.6265721623111894	-0.136544
C	0.2979821539078799 0.0855263872913240 0.6835643144216837	0.100323
C	0.3059629126734754 0.0096582694119134 0.6833859560306262	-0.184398
C	0.2676131877171661 0.9679297884901952 0.6253824791907187	0.110083
C	0.2238382094041348 0.0054573421462930 0.5686106216666431	-0.178813
C	0.2212651851710104 0.0816954953929380 0.5708020419914847	0.107469
C	0.2730997705570027 0.8872634254606763 0.6242541258769048	0.061833
C	0.2103285302967214 0.8445627369664830 0.6212945276049451	-0.173949
C	0.2145888780120649 0.7671767655340377 0.6221514147609487	0.085168
C	0.3491233910930755 0.7774973079464700 0.6245677437934071	-0.124471
C	0.3431534025302347 0.8527277106936496 0.6269781867188161	-0.135618
C	0.4145363210560435 0.2970864661980775 0.6839444387761031	0.107013
C	0.4903443207913113 0.3055812854806881 0.6831918961356738	-0.181984
C	0.5320476212710915 0.2675578993900373 0.6249101975673933	0.111901
C	0.4945538526898804 0.2235081380675232 0.5683664655716431	-0.181928
C	0.4183678964452453 0.2204386349883084 0.5711670279922512	0.102825
C	0.6127106138325852 0.2731925130219860 0.6237176344169981	0.060872
C	0.6554636754599225 0.2104118040889440 0.6209206229480658	-0.174371
C	0.7328344455810150 0.2146384504745843 0.6220715033074035	0.085571
C	0.7224315710094666 0.3491788084253374 0.6245048329919186	-0.123734
C	0.6471924302171966 0.3432132025911550 0.6266120728628360	-0.135909
C	0.0856378231774651 0.2024109801441004 0.6841597888154449	0.099388
C	0.0097564027081379 0.1942824145611280 0.6836665381473289	-0.184365
C	0.9680134096284716 0.2323514039482286 0.6253975174329767	0.108315
C	0.0055303380847347 0.2759347168102290 0.5684785486522582	-0.181182
C	0.0817997889144507 0.2785468117567522 0.5705843545816306	0.101089
C	0.8873231816929931 0.2268695528827916 0.6242388041648183	0.061909
C	0.8445555309945295 0.2896628279007901 0.6212575976729769	-0.174103
C	0.7671769888767067 0.2854539285878643 0.6221377242631045	0.085189
C	0.7775731393836863 0.1509308715959814 0.6245858755475958	-0.124273
C	0.8528034907943429 0.1568506270902322 0.6269948970282848	-0.136185
H	0.1776259258620438 0.1196642378775894 0.2307847387931928	0.099747
H	0.1604444715952475 0.9828026993011577 0.2291263437029687	0.113795
H	0.3063753780973569 0.9753090088479258 0.0214092779228175	0.113270
H	0.3104109793154786 0.1133478294432861 0.0262956810517273	0.098180
H	0.3435100316254394 0.8704939668439272 0.1203935130802970	0.107712
H	0.0969657759088086 0.7512775658046440 0.1250582711841167	0.109899
H	0.1076388842051349 0.8870318048583924 0.1286727392871904	0.100911
H	0.3231107463203814 0.3800949089431948 0.2310086740628725	0.102803
H	0.3396042874485869 0.5171486504207707 0.2296752316829520	0.113723
H	0.1941658274366622 0.5245983878334425 0.0215068881401865	0.114644
H	0.1918619529774961 0.3867827993285655 0.0242961011357116	0.104941
H	0.1563844473747192 0.6295530858348992 0.1206640433488476	0.108795
H	0.4028929442632792 0.7487616174665953 0.1249781377165245	0.106982
H	0.3923119886703701 0.6129809289758548 0.1291078610799943	0.101553
H	0.3800190208623416 0.1758672300257614 0.2296220705122207	0.098436
H	0.5172441797268947 0.1600322426076219 0.2293028027340333	0.113018
H	0.5246363153485404 0.3061034783039098 0.0216999026105747	0.114766
H	0.3867577693667253 0.3086473127391442 0.0250303207323323	0.100866
H	0.6294919521383866 0.3436238699301424 0.1207529822467174	0.109141
H	0.7487825675602258 0.0969946831387008 0.1249291997991297	0.108406
H	0.6130904828050575 0.1077109022415420 0.1290146544439713	0.102275
H	0.1194523651210734 0.3214301761641383 0.2317054469663926	0.103907
H	0.9827969518238812 0.3391959506028176 0.2292092488103815	0.114141
H	0.9754125169357611 0.1937716766187126 0.0210321768755249	0.114035
H	0.1134610604927863 0.1900464866069764 0.0252113421283601	0.101501
H	0.8705490207998442 0.1564198451625936 0.1202184772738060	0.107415
H	0.7511231065174248 0.4029293133367909 0.1251641371823334	0.108478
H	0.8869814457552361 0.3922852880440244 0.1286788328954406	0.100389
H	0.8241314246168417 0.6199804462883315 0.2703782271211321	0.098374
H	0.8399684485809881 0.4827551933512801 0.2706985377320969	0.113015
H	0.6938967980148066 0.4753637316207543 0.4783013506714196	0.114739
H	0.6913525961371908 0.6132427699038698 0.4749700358478954	0.100866
H	0.6563759303444933 0.3705076546694537 0.3792467018438356	0.109110
H	0.9030048007951955 0.2512174247467013 0.3750712110312711	0.108413
H	0.8922883879986131 0.3869096168699987 0.3709863006772167	0.102297
H	0.6785687529958810 0.8805479532501402 0.2682948583702353	0.103963
H	0.6608046538757391 0.0172028521456363 0.2707913782978262	0.114132
H	0.8062283635816043 0.0245864717325131 0.4789680181555392	0.114028
H	0.8099529309745195 0.8865379127513299 0.4747886240410281	0.101497
H	0.8435794931509141 0.1294508895572664 0.3797821011635120	0.107386
H	0.5970708291458908 0.2488765931959953 0.3748358782216696	0.108478
H	0.6077148194551125 0.1130179520126175 0.3713215123308641	0.100407
H	0.6199053511364578 0.6768885747930812 0.2689917202901606	0.102825
H	0.4828520394619056 0.6603955840365883 0.2703251301512424	0.113711
H	0.4754020699528409 0.8058339839707708 0.4784941090088229	0.114614
H	0.6132167990537957 0.8081380044875142 0.4757042780944636	0.104924
H	0.3704473488763713 0.8436159111507253 0.3793361085776600	0.108770
H	0.2512386658398890 0.5971077964177428 0.3750220021237675	0.106990
H	0.3870189770927117 0.6076881410196333 0.3708925954738619	0.101562
H	0.8803374092290792 0.8223741005997546 0.2692136985261764	0.099801
H	0.0171983207826984 0.8395561882909239 0.2708737484008590	0.113778
H	0.0246903151268626 0.6936254828767990 0.4785907374669441	0.113294
H	0.8866507632585041 0.6895899810067944 0.4737026831187233	0.098176
H	0.1295059902488503 0.6564910185091979 0.3796062109786205	0.107753
H	0.2487230072653526 0.9030345285747717 0.3749424072973934	0.109935
H	0.1129687382754459 0.8923622341870306 0.3713289940149802	0.100875
H	0.8231110893922879 0.8800939404840478 0.7689904068657462	0.102810
H	0.8396041207353356 0.0171476945488462 0.7703257204482401	0.113645
H	0.6941661367561838 0.0245985950658959 0.9784926792341254	0.114625
H	0.6918631690934770 0.8867830940121253 0.9757013180633929	0.104982
H	0.6563841646030599 0.1295531134075377 0.8793364222993957	0.108782
H	0.9028926466907953 0.2487616526974143 0.8750218895565340	0.106995
H	0.8923116770519427 0.1129809144085251 0.8708923654925028	0.101547
H	0.6776264276483230 0.6196610536314133 0.7692117022721374	0.099731
H	0.6604435728486868 0.4828003340960064 0.7708726681134435	0.113778
H	0.8063750734098941 0.4753113836976482 0.9785917410474925	0.113278
H	0.8104117616775784 0.6133503941647145 0.9737031780362762	0.098146
H	0.8435098506973041 0.3704942296134141 0.8796065478867506	0.107717
H	0.5969657814011099 0.2512775275515913 0.8749421179081123	0.109891
H	0.6076387547530148 0.3870317966541587 0.8713269175063501	0.100907
H	0.6194513027643856 0.8214299744989101 0.7682948761239687	0.103914
H	0.4827958111550585 0.8391957081122907 0.7707918022897836	0.114154
H	0.4754146628478502 0.6937727234567835 0.9789667829355080	0.114029
H	0.6134630418277300 0.6900481807078750 0.9747878988301678	0.101476
H	0.3705490733907384 0.6564203524139727 0.8797815562974186	0.107406
H	0.2511236471600750 0.9029296141397577 0.8748357249595711	0.108537
H	0.3869818352631722 0.8922852201537200 0.8713211395396839	0.100418
H	0.8800192791801082 0.6758668964914615 0.7703769787501982	0.098445
H	0.0172442209022865 0.6600315542806934 0.7706974954904416	0.113018
H	0.0246368065954489 0.8061043331737677 0.9783023278066987	0.114768
H	0.8867577690239696 0.8086481301838845 0.9749701485969493	0.100861
H	0.1294925737980620 0.8436246970968162 0.8792469191317172	0.109105
H	0.2487824649808198 0.5969953691291274 0.8750710728006588	0.108428
H	0.1130904836518551 0.6077117816012177 0.8709864839757478	0.102293
H	0.1785704950386214 0.3805490776377630 0.7317029303119940	0.103958
H	0.1608050100060303 0.5172039442902120 0.7292079199294609	0.114162
H	0.3062271946743815 0.5245857666302500 0.5210333434926665	0.114046
H	0.3099519530015403 0.3865377170690463 0.5252091267000691	0.101460
H	0.3435794419358471 0.6294514893160812 0.6202170664324997	0.107423
H	0.0970705034053294 0.7488767799477308 0.6251645099078004	0.108547
H	0.1077149518563651 0.6130183419740386 0.6286787414769420	0.100390
H	0.3241316843243864 0.1199817647653351 0.7296234386149939	0.098452
H	0.3399680941340528 0.9827568332062825 0.7293030111311110	0.113018
H	0.1938955813281505 0.9753627967278758 0.5216987500814039	0.114757
H	0.1913521841471361 0.1132427135887702 0.5250312867072852	0.100898
H	0.1563752592127134 0.8705081105197211 0.6207539674636611	0.109112
H	0.4030042835403859 0.7512179603389235 0.6249286435304930	0.108415
H	0.3922877921924313 0.8869103283049179 0.6290146612157274	0.102303
H	0.3803379658435553 0.3223744223062797 0.7307852096184476	0.099723
H	0.5171986922206984 0.3395560498530643 0.7291273668738750	0.113795
H	0.5246900314020386 0.1936240857420780 0.5214083498887422	0.113345
H	0.3866501684726607 0.1895888483977415 0.5262943764535816	0.098183
H	0.6295050493567131 0.1564905789772026 0.6203940454674010	0.107697
H	0.7487228329388881 0.4030340441773098 0.6250568145880738	0.109912
H	0.6129684275237085 0.3923619466807516 0.6286715466554273	0.100911
H	0.1199059379851659 0.1768888789396489 0.7310090641055434	0.102832
H	0.9828524139362965 0.1603956006072773 0.7296744884226333	0.113748
H	0.9754014185119476 0.3058332062671567 0.5215075948267746	0.114646
H	0.1132162672305793 0.3081373842823332 0.5242993168666217	0.105003
H	0.8704464123753958 0.3436155357498465 0.6206634297066783	0.108789
H	0.7512384318796917 0.0971071797677254 0.6249784993702959	0.107005
H	0.8870187569937347 0.1076879905816882 0.6291082369623106	0.101567
F	0.2547672024752320 0.1488710323395386 0.3785783878504496	-0.636048
F	0.1571597079828732 0.2984937952169022 0.3788596612888406	-0.631735
F	0.3332666335359634 0.3100105841547032 0.3784960931216940	-0.633563
F	0.6899838321931369 0.6667306523174071 0.1215243596390271	-0.633594
F	0.7015061918063097 0.8428325299321467 0.1211426549227752	-0.631714
F	0.8511232151580793 0.7452629390555451 0.1214090036331269	-0.636031
F	0.6571599272623931 0.7984920089861658 0.6211359272748875	-0.631766
F	0.7547500371443872 0.6488715986566679 0.6214291885355104	-0.636059
F	0.8332684628943180 0.8100110333844709 0.6215435899696899	-0.633627
F	0.1900041599206319 0.1667231278123295 0.8784511319078373	-0.633643
F	0.3511302748457905 0.2452572213607922 0.8785919216875002	-0.636029
F	0.2015130019063616 0.3428338516834169 0.8788601609839809	-0.631742
F	0.2494775183928433 0.2504662154045623 0.2610631884314465	-0.582807
F	0.2495429653930737 0.2501778041486983 0.4957084649393724	-0.582700
F	0.7495357948291214 0.7505143280043953 0.2389347035244160	-0.582827
F	0.7497888201027090 0.7504609725742490 0.0042894483785064	-0.582678
F	0.7494813089132154 0.7504873671320043 0.7389372608757141	-0.582840
F	0.7495526914246660 0.7501733913125633 0.5042954558899041	-0.582739
F	0.2495348478268951 0.2505165200728536 0.7610569758521276	-0.582795
F	0.2497931886485008 0.2504521570089434 0.9957024894658760	-0.582716
Cd	0.2499254638490072 0.2501169902520333 0.1283755910763425	0.833308
Cd	0.7498792853176416 0.7500757042746745 0.3716217274146389	0.833349
Cd	0.7499258270615645 0.7501192600707258 0.8716225151551762	0.833374
Cd	0.2498809871520851 0.2500764156665453 0.6283714788189290	0.833347
Fe	0.2488427237159323 0.2515812511035701 0.3783745581498441	1.549664
Fe	0.7484135293982583 0.7511533425525616 0.1216251522600277	1.549682
Fe	0.7488450565848606 0.7515801559809943 0.6216299165255333	1.549800
Fe	0.2484226108210546 0.2511521988401303 0.8783653031604854	1.549708
	  	
