#======================================================================

# CRYSTAL DATA

#----------------------------------------------------------------------

data_VESTA_phase_1


_pd_phase_name                         FeFFIVE_18_Cu
_cell_length_a                         13.62315
_cell_length_b                         13.86535
_cell_length_c                         8.27611
_cell_angle_alpha                      90.34402
_cell_angle_beta                       94.98444
_cell_angle_gamma                      90.02260
_symmetry_space_group_name_H-M         P 1
_symmetry_Int_Tables_number            1

loop_
_symmetry_equiv_pos_as_xyz
   x, y, z

loop_
   _atom_site_label
   _atom_site_fract_x
   _atom_site_fract_y
   _atom_site_fract_z
   _atom_site_charge
F	0.4981215989947155 0.3355005586206107 0.4885213802383056	-0.585463
F	0.5219312506190456 0.4759802437883625 0.7288724310449292	-0.587797
F	0.3741616746874695 0.5282130111968438 0.5182725439684143	-0.563585
F	0.9976373190266206 0.8357655358688038 0.4876617765309849	-0.585318
F	0.0219555426029263 0.9757190017253871 0.7287520616406736	-0.589402
F	0.8747180563102793 0.0294113130322379 0.5177769258261591	-0.562803
F	0.6240458714433809 0.5295810561135487 0.4833962390388580	-0.564525
F	0.4767611668848327 0.4830955420073898 0.2689853532138635	-0.586330
F	0.1242572748607963 0.0293984242084541 0.4832898036673605	-0.564501
F	0.9767006922399156 0.9835267745645891 0.2686476829110918	-0.586153
C	0.6870288427040012 0.1666056426308660 0.6626162424144534	-0.422704
C	0.7589440261181963 0.1558464378509671 0.8073564993427591	0.205278
C	0.7626797680721843 0.1984026154296413 0.9618183223886142	-0.150720
C	0.6915062211376171 0.2646963628527623 0.0234253470794160	-0.144660
C	0.6748240998322169 0.3623181709177004 0.9796446301434892	0.220369
C	0.7313692138087895 0.4220239081124867 0.8706956886132620	-0.432941
C	0.8894175996129940 0.1888478217512194 0.2150655703072326	-0.436528
C	0.8498718826247303 0.1630627260685820 0.0470045976786828	0.216308
C	0.6245751299072200 0.2441955724510234 0.1381450667574262	0.214031
C	0.6056034634032722 0.1536865233945455 0.2261149712623076	-0.428788
C	0.1871620065938826 0.6668305137023749 0.6626016452161740	-0.422754
C	0.2590347497991150 0.6559459395499236 0.8073566237582335	0.205922
C	0.2628297491772199 0.6984902525559827 0.9618335303921468	-0.150927
C	0.1916592434351151 0.7647623863536617 0.0234906993893331	-0.144235
C	0.1749061801465606 0.8623672988272869 0.9797812481289275	0.219912
C	0.2314036696564850 0.9221770061382465 0.8708942470449185	-0.432370
C	0.3894837897436779 0.6886296723806645 0.2151476508050172	-0.435486
C	0.3499231043717544 0.6630017689662723 0.0470772982802991	0.216179
C	0.1247254261962317 0.7442193054806173 0.1381637667487068	0.213386
C	0.1057359946065271 0.6536868526335688 0.2261124403998189	-0.428891
C	0.3136434005869099 0.1668706541676186 0.3362735008699244	-0.425308
C	0.2407579107448445 0.1563922280084427 0.1925328180758676	0.205238
C	0.2375960557615257 0.1968658785240071 0.0373615212097844	-0.150035
C	0.3092336945158042 0.2625812854590427 0.9765831752610624	-0.144871
C	0.3258913448243139 0.3599754453159675 0.0241843626329411	0.219625
C	0.2694480944458266 0.4185217343957021 0.1357711240631153	-0.432969
C	0.1096373497314958 0.1871088353972675 0.7854223426713799	-0.435017
C	0.1493509924938567 0.1624649149683425 0.9532945703469631	0.216001
C	0.3759612355805748 0.2430593606520879 0.8606276805023674	0.214077
C	0.3953387920084587 0.1536875349090854 0.7680495034346250	-0.430165
C	0.8137301044159908 0.6666091597919889 0.3363069753193682	-0.424118
C	0.7407698468391410 0.6562624265624387 0.1926312402719866	0.204912
C	0.7375815962535879 0.6968339503862923 0.0374883076461012	-0.150087
C	0.8092800602634810 0.7624906226379062 0.9767443247209059	-0.145036
C	0.8259581959260671 0.8599055983033849 0.0243638358933231	0.219630
C	0.7694819258769553 0.9184644396815613 0.1359171074030896	-0.432246
C	0.6096448864906110 0.6872540835126223 0.7855815443806153	-0.436009
C	0.6493585534767674 0.6625032421788692 0.9533905709048280	0.216699
C	0.8760429221908398 0.7430078260123989 0.8608444192765250	0.213861
C	0.8954377291356077 0.6536893859708903 0.7681031799894223	-0.430166
H	0.7247995961300461 0.1838825079739664 0.5544486017926727	0.147730
H	0.6343996580863416 0.2244430232079971 0.6817704567619258	0.142223
H	0.6455151572288353 0.0994847533088559 0.6358018514819989	0.135971
H	0.6837673368116246 0.4515255225736827 0.7692475543607035	0.152103
H	0.7893151761481910 0.3781833972433428 0.8226516818720337	0.134249
H	0.7665915777168764 0.4830173816528975 0.9386598807548615	0.132281
H	0.8613725165005049 0.0608257454183430 0.7071048523805168	0.282628
H	0.8752828286915729 0.1322502402276853 0.3024684558431484	0.146108
H	0.8542080288546015 0.2557607130685997 0.2520197142523008	0.131960
H	0.9694581639392543 0.1999206337919365 0.2218665250810894	0.142172
H	0.5703905232020660 0.1690427698005331 0.3376495251266875	0.146643
H	0.6745395682047480 0.1145479995370515 0.2575276882827982	0.151586
H	0.5564880390250503 0.1055456270898349 0.1499180974178420	0.135101
H	0.5233856605780185 0.3409995080030491 0.2389511370792189	0.274681
H	0.2250067257934028 0.6840748086130525 0.5544426260116501	0.147671
H	0.1346267961429921 0.7247820268290109 0.6817137080879171	0.142123
H	0.1455128776125458 0.5997821401829633 0.6356227650077784	0.135957
H	0.1837721802123352 0.9516193401602028 0.7693460126824698	0.152143
H	0.2894061030049361 0.8784101518439248 0.8227969074898579	0.133820
H	0.2665915446596994 0.9832613609881427 0.9388508494002852	0.131910
H	0.3611685989243387 0.5606025863253171 0.7071683846553851	0.283047
H	0.3755723588226756 0.6318161729780711 0.3022904884366329	0.145869
H	0.3541074525780228 0.7553462289431239 0.2523897790104817	0.131256
H	0.4694553183580511 0.6999100406424862 0.2218535238837884	0.142267
H	0.0704486473539344 0.6689941428980075 0.3375927563114725	0.146588
H	0.1746687751964392 0.6145584588044820 0.2575627751526922	0.151730
H	0.0567174776415517 0.6056017260409922 0.1497141269284801	0.135171
H	0.0234843713607858 0.8409487627931770 0.2391303061194322	0.274840
H	0.2763927383834718 0.1768770031017511 0.4475059548165573	0.147647
H	0.3621053525737650 0.2289099822255326 0.3231008625177829	0.144988
H	0.3599749286933025 0.1020855927927887 0.3532941796419468	0.135197
H	0.3180729327749475 0.4543266230248768 0.2301352075233932	0.152347
H	0.2175259189337723 0.3719875384282341 0.1930160530661321	0.135088
H	0.2269692686346900 0.4745277819746613 0.0671353572412973	0.132837
H	0.1369415832430575 0.0639198094201091 0.2940347430472111	0.282276
H	0.1151098397092376 0.1263571507138541 0.7009500402626637	0.145811
H	0.1515424016412799 0.2480606783291397 0.7421370945736796	0.131760
H	0.0316782695713870 0.2077453742532330 0.7822006120098235	0.141566
H	0.4289129327332347 0.1709809500585280 0.6560280766789655	0.146634
H	0.3268311720026619 0.1135939242971401 0.7365015360830525	0.153299
H	0.4460509006103981 0.1055719797769829 0.8402107866075876	0.136060
H	0.4774374117887169 0.3422233109754302 0.7653444310341652	0.276210
H	0.7765434892793954 0.6766205574011491 0.4476282439089975	0.147019
H	0.8622940899837495 0.7285884994827863 0.3232195472977829	0.144977
H	0.8599551269185213 0.6017073897956523 0.3532850714553401	0.134774
H	0.8180703967977524 0.9542743574798511 0.2304374259122296	0.152067
H	0.7175210230153783 0.8719219391675059 0.1931039322278666	0.134704
H	0.7269414523263357 0.9744939573110898 0.0672838005376974	0.132647
H	0.6369111501629808 0.5639299792134438 0.2940616753035870	0.281758
H	0.6148012441054721 0.6264470289344193 0.7011701848826472	0.146356
H	0.6517640985856591 0.7480148473067079 0.7422762206175954	0.132213
H	0.5317962162001915 0.7082096913694352 0.7824824129910146	0.141453
H	0.9289941074365456 0.6710724114926371 0.6561213842568849	0.146882
H	0.8269457205610087 0.6135695594649980 0.7366644923717738	0.153266
H	0.9461558134817353 0.6056119247747542 0.8403171019765368	0.136041
H	0.9774769268721115 0.8423271583197693 0.7655474264896469	0.276083
N	0.8388232565842950 0.0983558847750585 0.8068176013942088	-0.150994
N	0.6010654235438764 0.3979525726108891 0.0605989459631708	-0.243675
N	0.8948746879461530 0.1020285022999000 0.9501247286291320	-0.237572
N	0.5724126778229589 0.3256136673194467 0.1553890569283393	-0.146025
N	0.3387963703324968 0.5983615706332150 0.8068199424140807	-0.151407
N	0.1011665622739123 0.8980206497259182 0.0607796601916014	-0.243500
N	0.3948435883088566 0.6019447498447492 0.9501388117194639	-0.237413
N	0.0725269354037269 0.8256509112038791 0.1555471415122614	-0.145966
N	0.1594989218649510 0.1008816409572224 0.1945110328354398	-0.148596
N	0.3992972693289710 0.3964071662190056 0.9442177238188414	-0.240128
N	0.1033084842706910 0.1035984271562756 0.0512859612232835	-0.240331
N	0.4278149499595322 0.3249158046157721 0.8464240525444007	-0.147764
N	0.6595031055994182 0.6008194908077619 0.1945557763907164	-0.147415
N	0.8993256400711518 0.8964135628678918 0.9444225095033476	-0.240083
N	0.6032725673235433 0.6036438190366400 0.0513852559368308	-0.241228
N	0.9278733753413207 0.8249243794067980 0.8466339925005387	-0.147545
Fe	0.4991409482587149 0.4710651039415469 0.4983275660854613	1.494538
Fe	-0.0007996726168075 0.9712820942556113 0.4980436581541380	1.494689
Cu	0.4993441817002376 0.5033264944246926 0.0020232164450925	0.754798
Cu	0.9993521837014370 0.0033321190600380 0.0020946617036487	0.755311
	  	
