#======================================================================

# CRYSTAL DATA

#----------------------------------------------------------------------

data_VESTA_phase_1


_pd_phase_name                         FeFFIVE_2_Fe
_cell_length_a                         13.69248
_cell_length_b                         13.69179
_cell_length_c                         8.00310
_cell_angle_alpha                      89.99200
_cell_angle_beta                       89.95414
_cell_angle_gamma                      90.11102
_symmetry_space_group_name_H-M         P 1
_symmetry_Int_Tables_number            1

loop_
_symmetry_equiv_pos_as_xyz
   x, y, z

loop_
   _atom_site_label
   _atom_site_fract_x
   _atom_site_fract_y
   _atom_site_fract_z
   _atom_site_charge
C	0.5311263789613082 0.6978679814188923 0.1349902125833560	0.098515
C	0.5318805639410576 0.7990049851252421 0.1404565420615511	-0.167154
C	0.4687659826844180 0.3027913701043399 0.1349129850446843	0.093812
C	0.4682333833612589 0.2015868353368077 0.1402403510166595	-0.167706
C	0.3027161086555353 0.5312991855582984 0.1343990472181627	0.098695
C	0.2015468262435576 0.5318001948715081 0.1403218396723475	-0.169002
C	0.6977521660802692 0.4686054175753818 0.1344071981267398	0.091964
C	0.7988869993706312 0.4682148744645974 0.1396284119409500	-0.166463
C	0.4687460472194594 0.6976126859162262 0.8658183311689507	0.089616
C	0.4682746564873645 0.7987745328212584 0.8602992955926251	-0.166643
C	0.5313717108363246 0.3027340413272921 0.8653443514083771	0.098807
C	0.5318564784470626 0.2015689543321851 0.8597267287213530	-0.167963
C	0.6978407546756107 0.5310005983607203 0.8651799147862965	0.098574
C	0.7989851423472097 0.5318391654118484 0.8594515776784971	-0.166626
C	0.3026142590579242 0.4687241854944393 0.8649472428320539	0.094617
C	0.2014410668177167 0.4682353832857498 0.8599263498896387	-0.168649
C	0.5000358141161673 0.1480406261223517 0.0000808359616380	0.165956
C	0.5000206737688431 0.0448385155883649 0.0000831468600085	-0.098678
C	0.5000121080841851 0.8524455615677201 0.0003253806266066	0.164798
C	0.5000266645145736 0.9556854094260695 0.0002919416463771	-0.094049
C	0.8524746139227186 0.5000382571239821 -0.0005358752428892	0.164956
C	0.9556620080762968 0.5001289874783181 -0.0004752480848763	-0.095117
C	0.1479688460779608 0.5000804828363774 0.0001548450700255	0.166959
C	0.0447879844678532 0.5001174151352464 0.0001214579358889	-0.097692
H	0.5543309144267907 0.6549712951801773 0.2417873098602634	0.095755
H	0.5574938635846589 0.8357897186578102 0.2527120590819555	0.125969
H	0.4436844898003292 0.3453956701134601 0.2416496247945601	0.096189
H	0.4422474014412074 0.1646868312199327 0.2523128265142419	0.126542
H	0.3460748788800932 0.5560991794580041 0.2400963293761990	0.090523
H	0.1644739802133694 0.5574061207281302 0.2523570847112930	0.126049
H	0.6555858674249602 0.4455373596266329 0.2426530723077185	0.100342
H	0.8353772677609520 0.4426975312030946 0.2521794272761533	0.126648
H	0.4456714046915764 0.6553355905030959 0.7577434421793507	0.100476
H	0.4426989982158028 0.8351990014950157 0.7477051295176199	0.126815
H	0.5560690028064177 0.3461635542862666 0.7595760913283606	0.091571
H	0.5575253725412679 0.1645435763444068 0.7476838758163318	0.125776
H	0.6550805767254232 0.5541786527331627 0.7581876196180833	0.094362
H	0.8358068991305974 0.5574596885644599 0.7471494399833657	0.125945
H	0.3451968448426170 0.4437040816672546 0.7582281016472719	0.097949
H	0.1644985540180871 0.4422584296363452 0.7480033940140992	0.126568
Fe	0.5001482814185672 0.5000890929626214 0.0000076553770144	0.904915
Fe	0.4990561410152375 0.4991424947328422 0.4999391810659011	1.509740
F	0.4972116848860062 0.4996569326854400 0.7455638497304868	-0.558625
F	0.5033811292127315 0.5009331595045652 0.2543790092307335	-0.557798
F	0.4625289043578313 0.6296415880926308 0.4954015189445574	-0.581366
F	0.4031309659858253 0.4031454283534613 0.4984662922384206	-0.581592
F	0.6296462984621961 0.4628965473853376 0.5061172002028210	-0.581588
N	0.5001947996436669 0.3534549659424640 0.0000316922733258	-0.255902
N	0.4997661187485685 0.6470107484007958 0.0006314502180222	-0.259871
N	0.6470483292796327 0.4997039547609602 -0.0002535137440498	-0.260725
N	0.3533738582702613 0.5001931900783979 -0.0004059380791097	-0.256193
	  	
