#======================================================================

# CRYSTAL DATA

#----------------------------------------------------------------------

data_VESTA_phase_1


_pd_phase_name                         FeFFIVE_3_Cu
_cell_length_a                         13.78866
_cell_length_b                         13.79438
_cell_length_c                         8.24019
_cell_angle_alpha                      89.99812
_cell_angle_beta                       89.99972
_cell_angle_gamma                      91.51781
_symmetry_space_group_name_H-M         P 1
_symmetry_Int_Tables_number            1

loop_
_symmetry_equiv_pos_as_xyz
   x, y, z

loop_
   _atom_site_label
   _atom_site_fract_x
   _atom_site_fract_y
   _atom_site_fract_z
   _atom_site_charge
C	0.2587826437411421 0.4502332181033493 0.6338225046923402	0.060576
C	0.2375717867261418 0.0516826981177369 0.6431953677217397	0.068678
C	0.2394395218424720 0.4506599287803892 0.3552162530702324	0.059003
C	0.2577387455094273 0.0510797559047455 0.3651133063193026	0.065754
C	0.0511303874497003 0.2577743265759861 0.3651461530887672	0.065398
C	0.4506265156644453 0.2394036468096476 0.3552310184070918	0.057992
C	0.4502159158791874 0.2588349160427425 0.6338068849797611	0.059373
C	0.0517331680469874 0.2375412887792646 0.6432085735254457	0.067869
C	0.9506400672306955 0.2394105561660269 0.6447825785818965	0.054862
C	0.5511271892551951 0.2577927471302798 0.6348566025565082	0.062655
C	0.5517202891898331 0.2375374394663832 0.3568011586074843	0.065269
C	0.9502224307254884 0.2588247333111716 0.3662028172485494	0.056052
C	0.7375637310855515 0.0516859173815592 0.3567656500075786	0.070617
C	0.7587774021222169 0.4502495500178774 0.3661854762376661	0.062685
C	0.7577418693433665 0.0510816456120282 0.6348436862630779	0.067294
C	0.7394391591569726 0.4506516952139496 0.6447808214444756	0.061245
C	0.4506012765202487 0.7393938733990948 0.6447646331424653	0.061993
C	0.0511236238298721 0.7577814147855625 0.6348675487738086	0.068932
C	0.0517259929430634 0.7375501820433640 0.3568064320411967	0.071729
C	0.4501765220951900 0.7588490687963496 0.3661800511639549	0.063403
C	0.2375630068268162 0.5517149319634108 0.3567888163075236	0.066530
C	0.2587944362654897 0.9502099838103739 0.3661632063712979	0.057695
C	0.2577274004500171 0.5511003781818051 0.6348639465856646	0.062901
C	0.2394438657422133 0.9506227378566270 0.6447670003569949	0.056274
C	0.7587864273957698 0.9502029860375556 0.6337978853554749	0.059326
C	0.7375698599825339 0.5517184999695375 0.6432292137820463	0.067918
C	0.7394268776847995 0.9506196153346665 0.3551966595013016	0.058290
C	0.7577287711853509 0.5511260725853497 0.3651586548991432	0.064862
C	0.5510892393669072 0.7578129368957078 0.3651259924156461	0.066444
C	0.9506298915099699 0.7394245509678640 0.3552458461371831	0.059572
C	0.9502124918919016 0.7588277942921124 0.6338316538931521	0.060564
C	0.5516981918711384 0.7375298199939203 0.6431774329222688	0.069309
H	0.2640358108445310 0.4092160379461007 0.7463228320928417	0.122735
H	0.2271736582809150 0.0926061091527310 0.7548198319189275	0.119747
H	0.2321685501336055 0.4109447723081744 0.2410809570450534	0.123362
H	0.2633894351050169 0.0923014085732881 0.2527549369851789	0.119259
H	0.0923650581217582 0.2634497285926677 0.2527808670987524	0.117682
H	0.4108728202933839 0.2321123912035454 0.2411074474598296	0.122234
H	0.4091602716050156 0.2641324252230595 0.7462904255517241	0.121410
H	0.0926643421348312 0.2271120599708620 0.7548509815040653	0.118475
H	0.9109058185010643 0.2321263538918771 0.7589107250795374	0.121611
H	0.5923333191954132 0.2634763112755816 0.7472504499387236	0.117276
H	0.5926320636838229 0.2271112432763050 0.2451500974196289	0.117984
H	0.9091971341783053 0.2641255827949238 0.2536967576851962	0.120980
H	0.7271407539151801 0.0926224787087782 0.2451209128519388	0.120842
H	0.7640232890537889 0.4092261657135715 0.2536799978444172	0.124078
H	0.7633797694425412 0.0923051060931464 0.7472070993738313	0.120801
H	0.7321556576779238 0.4109346439218055 0.7589419818313580	0.124347
H	0.4108595999641410 0.7321045684369254 0.7589070200099064	0.125996
H	0.0923545704300105 0.7634653949838015 0.7472650072296666	0.121980
H	0.0926548685032962 0.7271182769582971 0.2451534768201777	0.122484
H	0.4091259069140759 0.7641597817811145 0.2536678389792572	0.125363
H	0.2271623643234038 0.5926560888126003 0.2451839723945866	0.118172
H	0.2640603023766082 0.9091727903129153 0.2536902360426333	0.121012
H	0.2633617794700493 0.5923349893398675 0.7472003867891853	0.117947
H	0.2321691013598679 0.9108940562614889 0.7588897311264435	0.121324
H	0.7640376994633121 0.9091650982475067 0.7463086014102653	0.122753
H	0.7271614882190344 0.5926428696384607 0.7548606918972989	0.119718
H	0.7321164448500947 0.9108997031512188 0.2410604612300165	0.122932
H	0.7633640684798760 0.5923543149826872 0.2527866236959108	0.119268
H	0.5923084723686284 0.7635163594359277 0.2527442646449503	0.120719
H	0.9108839577721142 0.7321381292616287 0.2410929832154003	0.124862
H	0.9091722958033344 0.7641108011207967 0.7463406279454969	0.124300
H	0.5926261957940053 0.7270962585202717 0.7548344984336065	0.121289
Cu	0.2506858036979197 0.2506674108154108 0.4975212558665156	0.701714
Cu	0.7506850743893287 0.2506755388983072 0.5024637470547788	0.715448
Cu	0.2506720672265524 0.7506696124787318 0.5024511988014916	0.726083
Cu	0.7506659329298774 0.7506649407049444 0.4975465524737854	0.745130
Fe	0.2515633156812414 0.2515520626312483 -0.0038996097426813	1.488277
Fe	0.7515394740551150 0.2515320812809088 0.0039437972909781	1.489369
Fe	0.2515285210036812 0.7515149780295998 0.0038946024101844	1.485198
Fe	0.7514477003470749 0.7514965763399805 -0.0039295181905784	1.492128
F	0.2542933240313055 0.2541973625707856 0.7589726237194722	-0.607615
F	0.2488796960209208 0.2486709124699044 0.2333098568911781	-0.610229
F	0.1552788171269980 0.1552967243792439 -0.0152437498913788	-0.581137
F	0.2192669638740895 0.3818069169086581 -0.0019857008376723	-0.579031
F	0.3819191461470304 0.2193120736706113 -0.0019783310617338	-0.578525
F	0.7488794097758994 0.2485471438913349 0.7666775405995357	-0.601934
F	0.7541956564448614 0.2542133535163905 0.2410858499780288	-0.598996
F	0.6553469010721195 0.1551764312892242 0.0153193714232665	-0.577959
F	0.7190633385472128 0.3817443400980417 0.0019336887478706	-0.576934
F	0.8819430786436503 0.2194429934169186 0.0021058602427443	-0.574676
F	0.2488314818507040 0.7486279475197652 0.7667301185167860	-0.607836
F	0.2542455960404785 0.7541964364938348 0.2409893804492850	-0.605570
F	0.1552664189033307 0.6552520078181581 0.0152983680466457	-0.576711
F	0.2191158825625461 0.8816906678194208 0.0020077318603110	-0.573122
F	0.3818817418244415 0.7193839907739400 0.0020558872420766	-0.575698
F	0.7541544575527644 0.7542083542500798 0.7589627709957866	-0.608136
F	0.7488590121290646 0.7485794400046755 0.2332929509586724	-0.610679
F	0.6553403296399020 0.6550619938394688 -0.0153364455187934	-0.576755
F	0.7187056623005579 0.8816522463124179 -0.0019608819908123	-0.574268
F	0.8818660809567579 0.7195074584351281 -0.0021065152273217	-0.574817
N	0.4005103389477547 0.2503649250746656 0.4938008689967691	-0.194060
N	0.1014139631123358 0.2476673820433183 0.5035272014995992	-0.194325
N	0.2503548535936980 0.4005240061129562 0.4938152696178758	-0.182585
N	0.2476752290707608 0.1013610249282115 0.5034925123245968	-0.181955
N	0.9005209898267326 0.2503660565003428 0.5061971918127816	-0.184925
N	0.6014072025138734 0.2476745789896579 0.4964930702094620	-0.184836
N	0.7503509366802920 0.4005403379853190 0.5062034269194807	-0.188298
N	0.7476600606580380 0.1013495549462241 0.4964569186306290	-0.186990
N	0.4004659768185770 0.7503705930303090 0.5061800262419132	-0.184237
N	0.1014231452433104 0.7476789485367545 0.4965019472757722	-0.183945
N	0.2503672189213274 0.9005039773450452 0.5061907406282967	-0.186543
N	0.2476574459617513 0.6013749258439035 0.4964755570854568	-0.186421
N	0.9004959620698206 0.7503575717662245 0.4938231579501492	-0.182768
N	0.6013915764596285 0.7476738083841272 0.5035017013920047	-0.182152
N	0.7503447132601552 0.9005080528325159 0.4937936891881151	-0.186673
N	0.7476543282975210 0.6013813908049798 0.5035278971719231	-0.186005
	  	
