#======================================================================

# CRYSTAL DATA

#----------------------------------------------------------------------

data_VESTA_phase_1


_pd_phase_name                         FeFFIVE_2_Zn_i
_cell_length_a                         13.97625
_cell_length_b                         13.97687
_cell_length_c                         8.16010
_cell_angle_alpha                      89.99977
_cell_angle_beta                       89.99938
_cell_angle_gamma                      89.66712
_symmetry_space_group_name_H-M         P 1
_symmetry_Int_Tables_number            1

loop_
_symmetry_equiv_pos_as_xyz
   x, y, z

loop_
   _atom_site_label
   _atom_site_fract_x
   _atom_site_fract_y
   _atom_site_fract_z
   _atom_site_charge
C	0.0001952325542829 0.3036624536730533 0.3520505964167744	-0.159353
C	-0.0000465632462338 0.2043890227274083 0.3575781904916185	0.097881
C	0.5001930757910216 0.8036626885114833 0.8521082404292106	-0.159519
C	0.4999396346445578 0.7043491774330191 0.8576233618224640	0.097631
C	-0.0000079379708312 0.6969952417459274 0.3520044979530554	-0.165676
C	-0.0003069000532408 0.7962437105516921 0.3577762443589918	0.105767
C	0.4999761304739819 0.1970120770390570 0.8520682926143912	-0.165998
C	0.4996680651839329 0.2962974540525809 0.8578338263915385	0.105630
C	0.6970160723251523 -0.0000131148879185 0.3520104848052290	-0.165936
C	0.7962729319366280 -0.0003115296411540 0.3577767436196805	0.105750
C	0.1970080458453837 0.4999666575152061 0.8520541972263254	-0.166102
C	0.2963003008424658 0.4996574859890426 0.8578193694634377	0.105792
C	0.3036542557477484 0.0001864599704971 0.3520608848238838	-0.159509
C	0.2043742411781635 -0.0000562750948944 0.3575893887796481	0.097786
C	0.8036334378699300 0.5001821134864296 0.8521074228675501	-0.159821
C	0.7043097566079980 0.4999295642955311 0.8576276204723270	0.097975
C	0.0001944761735605 0.3036614820395004 0.6479353857985682	-0.159416
C	-0.0000477353034060 0.2043901986820736 0.6424085766187306	0.098021
C	0.5001895416226202 0.8036696852857829 0.1478884880231284	-0.159565
C	0.4999340948314374 0.7043566722365814 0.1423838847395480	0.097621
C	-0.0000086593994401 0.6969936538394690 0.6479855597088723	-0.165815
C	-0.0003068210866969 0.7962417431098769 0.6422152873382572	0.105831
C	0.4999775223465323 0.1970050378473792 0.1479614177494225	-0.166014
C	0.4996709062019180 0.2962926130338479 0.1421994835621786	0.105664
C	0.3036565407769787 0.0001870194873779 0.6479279287917874	-0.159608
C	0.2043760548860213 -0.0000559804058233 0.6424056723329572	0.097817
C	0.8036393952960224 0.5001812439348252 0.1478901296517013	-0.159874
C	0.7043142731145479 0.4999304803415583 0.1423817551121997	0.097897
C	0.6970185118856999 -0.0000135419963265 0.6479802195654613	-0.165931
C	0.7962752933132758 -0.0003123244642632 0.6422088266081445	0.105687
C	0.1970040839446764 0.4999669308039346 0.1479396083669444	-0.166085
C	0.2962961950261929 0.4996610904154220 0.1421743627332407	0.105714
C	0.0004040773491303 0.4566687154792516 0.4999931782030771	-0.091382
C	0.0003792052159325 0.3554047190598799 0.4999937061231570	0.158729
C	0.5004213442504082 0.9566654070673621 -0.0000045467900441	-0.091701
C	0.5003898486422826 0.8554044936962162 -0.0000020791781900	0.159081
C	0.0004237725182450 0.5439491071629922 0.4999940738773641	-0.100216
C	0.0003103423491145 0.6452070419228964 0.4999968455615521	0.165086
C	0.5004362861791326 0.0439516026588985 0.0000067378812867	-0.100155
C	0.5003049026844799 0.1452171112753305 0.0000112470746961	0.165500
C	0.5439598352676894 0.0004181298068663 0.4999968308407415	-0.100530
C	0.6452243736195253 0.0003042330240370 0.4999958664677014	0.165399
C	0.0439359261542934 0.5004312953328712 -0.0000082207555520	-0.100548
C	0.1452074889045070 0.5002958453626826 -0.0000052465315325	0.165428
C	0.4566686592216556 0.0004019641772390 0.4999934325850429	-0.091069
C	0.3554023355586252 0.0003728932015017 0.4999905524042333	0.158806
C	0.9566429520932015 0.5004135516328549 -0.0000075349187653	-0.091219
C	0.8553786320846148 0.5003814706748458 -0.0000022231046487	0.159170
H	-0.0001719998737677 0.3405015689919699 0.2345105742375297	0.118932
H	-0.0014545588497829 0.1625233467543864 0.2449838461275224	0.102083
H	0.4998279071512315 0.8405005302278673 0.7345849515742838	0.118844
H	0.4985201595006509 0.6625490796107359 0.7449707673695305	0.101983
H	-0.0003883008722784 0.6598572815097942 0.2347301131530423	0.119653
H	-0.0017868839257540 0.8389759210690745 0.2462150783177381	0.096178
H	0.4995966748594397 0.1598760918659643 0.7348124381589118	0.119664
H	0.4981899588943152 0.3389694919442722 0.7462147429793695	0.095954
H	0.6598818988866344 -0.0003959166078170 0.2347305892243450	0.119718
H	0.8390028132424625 -0.0017896867597332 0.2462088032510570	0.096224
H	0.1598752976932553 0.4995884667862520 0.7347978379217223	0.119768
H	0.3389674635813612 0.4981745919678840 0.7461937093064336	0.095955
H	0.3404823713049537 -0.0001800391215571 0.2345067174444836	0.119007
H	0.1625064480772928 -0.0014625282210723 0.2449931312179242	0.102058
H	0.8404651338187135 0.4998169223578257 0.7345851625474651	0.118919
H	0.6625144071337361 0.4985054614263513 0.7449652351323324	0.102017
H	-0.0001731197458234 0.3404989823151427 0.7654764779497725	0.118903
H	-0.0014548443402646 0.1625211106752713 0.7550005619791962	0.101990
H	0.4998234605062933 0.8405109533712309 0.2654050531745186	0.118856
H	0.4985074132137612 0.6625561985894367 0.2550485130188517	0.102110
H	-0.0003896494187903 0.6598553645742675 0.7652642663129173	0.119692
H	-0.0017873625786166 0.8389746497836257 0.7537759706014565	0.096130
H	0.4995988271418554 0.1598675037815907 0.2652086795835972	0.119665
H	0.4981952497335598 0.3389596770723680 0.2538274703712782	0.096069
H	0.3404875936263068 -0.0001792698764729 0.7654792707619169	0.119033
H	0.1625104623710310 -0.0014628385887287 0.7550064083716927	0.102076
H	0.8404731232199237 0.4998164181483120 0.2654051517980984	0.118996
H	0.6625209306054933 0.4985055699571560 0.2550568944270936	0.102117
H	0.6598852311858703 -0.0003970910628546 0.7652634139690895	0.119748
H	0.8390053465005388 -0.0017916364162559 0.7537715714821678	0.096243
H	0.1598701698564883 0.4995878457521045 0.2651965504826542	0.119761
H	0.3389617304723982 0.4981852176753679 0.2538012488071361	0.096089
Zn	0.0008979933432738 0.0008874204806182 0.4999876001849689	0.735828
Zn	0.5008836036158252 0.5008974669936285 0.0000033962687013	0.736005
Fe	-0.0003510972312351 -0.0003595734859269 -0.0000121084039396	1.492034
Fe	0.4994666145473337 0.4994593175105550 0.5000559377625625	1.491042
N	-0.0000721917067783 0.1554473214938891 0.4999919525532447	-0.223950
N	0.4999143246103520 0.6554283733816801 0.0000058101944453	-0.223191
N	-0.0000935076794495 0.8453120263800300 0.4999944943466367	-0.219805
N	0.4998852285840971 0.3453427876806037 0.0000201470136420	-0.219298
N	0.8453508643468800 -0.0000956557057064 0.4999886610072453	-0.219684
N	0.3453554643687919 0.4998789645098174 -0.0000015181842075	-0.219277
N	0.1554228428408907 -0.0000793443045913 0.4999991070499820	-0.223516
N	0.6553834618907383 0.4999114938656482 0.0000062522553258	-0.223596
F	0.0003831889623209 0.0003666705116222 0.7582082783633570	-0.562692
F	0.5002939447500621 0.5003869837793261 0.2575598899920222	-0.563250
F	0.0003784154043068 0.0003662919540205 0.2417897567437641	-0.562662
F	0.5003724928459898 0.5003716167408983 0.7424832752883744	-0.562917
F	0.6274228596111346 0.4635668903305556 0.4999810868297780	-0.575405
F	0.4635295550095886 0.6274603053784803 0.5000221483540982	-0.575653
F	0.4060438621921432 0.4060763736339135 0.5000278663896897	-0.587589
F	0.9061709384648189 0.9061409421666756 -0.0000224934064833	-0.588520
F	0.9639070374340047 0.1278188105708778 0.0000112306180984	-0.576465
F	0.1278373123687153 0.9638984664857357 -0.0000104662537962	-0.576497
	  	
