#======================================================================

# CRYSTAL DATA

#----------------------------------------------------------------------

data_VESTA_phase_1


_pd_phase_name                         FeFFIVE_13_Cd_i
_cell_length_a                         15.79946
_cell_length_b                         15.77708
_cell_length_c                         8.17088
_cell_angle_alpha                      89.88844
_cell_angle_beta                       89.69778
_cell_angle_gamma                      89.92957
_symmetry_space_group_name_H-M         P 1
_symmetry_Int_Tables_number            1

loop_
_symmetry_equiv_pos_as_xyz
   x, y, z

loop_
   _atom_site_label
   _atom_site_fract_x
   _atom_site_fract_y
   _atom_site_fract_z
   _atom_site_charge
C	0.5366578449306427 0.6952198921761424 0.8734510656318796	0.110419
C	0.5411810181940672 0.7833522245746000 0.8733005429281067	-0.153531
C	0.4636743057525871 0.3104797854950782 0.8821024866874519	0.106416
C	0.4606796455864729 0.2222253549834121 0.8808763991312566	-0.143585
C	0.8086480847369076 0.9746136560162363 0.3657904720730791	0.106382
C	0.7206034316500401 0.9723853178705651 0.3621377862169545	-0.139786
C	0.3085832804140272 0.5418043325570432 0.8702078108910708	0.103640
C	0.2205270587516365 0.5464955122080615 0.8704476149359847	-0.153595
C	0.1945092467590423 0.9771583245491203 0.3575735839683892	0.099832
C	0.2825759286968931 0.9759283784457777 0.3554287061587914	-0.138857
C	0.6935581027340638 0.4658704712530303 0.8861722359823947	0.101939
C	0.7815500175719060 0.4629342446332849 0.8818630531488614	-0.144896
C	0.4586465341867494 0.6945013239807365 0.1156034125247611	0.104667
C	0.4556883101806767 0.7826353684532703 0.1189468733564835	-0.142293
C	0.5392791350448093 0.3109001847514363 0.1260121647181886	0.103493
C	0.5430676933959669 0.2227524437102480 0.1290331379247780	-0.153136
C	0.1917064644621006 0.0117063639502572 0.6348277565457605	0.105247
C	0.2795788472628875 0.0146470667418242 0.6419490860896645	-0.136358
C	0.6937513732971872 0.5401671846859486 0.1315717317045106	0.111728
C	0.7817622917930618 0.5447316920486250 0.1310289580772122	-0.153916
C	0.8082203631651582 0.0260876661408144 0.6324053393653883	0.105226
C	0.7202594552371469 0.0272889854884871 0.6386252592338204	-0.139890
C	0.3084072375325594 0.4602972318441221 0.1078108210438262	0.107744
C	0.2203514940556882 0.4581049649199053 0.1121426821395097	-0.143787
C	0.9681229714478284 0.8061105674330140 0.6313596005670022	0.106228
C	0.9670716570650502 0.7179218007633880 0.6362872367528006	-0.139432
C	0.9864223626016259 0.1904426337067303 0.6427078398579796	0.097384
C	0.9843218261389469 0.2785662176837898 0.6465490923540956	-0.139894
C	0.0176920173087764 0.8063361827188286 0.3626157432338883	0.106179
C	0.0201546678517132 0.7183254148079720 0.3577578019280982	-0.139939
C	0.0214461943215907 0.1903919029047595 0.3650584204429932	0.107589
C	0.0233905457607502 0.2784699900675781 0.3595650716440227	-0.139510
C	0.0035497508752205 0.3233460311979027 0.5027133407899506	0.041623
C	0.0016107675644440 0.4162390865059417 0.5013760751731785	0.257124
C	0.4989656987359374 0.8278803618858744 0.9970741229088734	0.057973
C	0.5000911363762196 0.9213889324305189 0.0010855419569092	0.249986
C	0.9943036660490128 0.6731728854481218 0.4973955419990157	0.038102
C	0.9965773087380601 0.5801036102059192 0.4986086345447361	0.248923
C	0.5017758351396823 0.1776388779416111 0.0057128653753398	0.055949
C	0.5013736935966460 0.0840592163320654 0.0070638874824487	0.253512
C	0.6755208963602223 -0.0005445750800772 0.5009238152759672	0.039146
C	0.5825293928947087 0.9977052762502618 0.5023899973277752	0.247363
C	0.1756682423806156 0.5027456788829888 0.9920692043840952	0.057599
C	0.0823026598162051 0.5035391649696154 0.9952103885787715	0.248575
C	0.3259353068314217 0.9956923609339590 0.4998306847600691	0.037878
C	0.4187546471664387 0.9959206548047224 0.5022249981443119	0.257521
C	0.8264355492446329 0.5041622714734867 0.0054958348141505	0.056308
C	0.9198053833598197 0.5041918988028754 0.0031590209148543	0.250924
H	0.5638255163708367 0.6574810548654850 0.7746191019021275	0.103153
H	0.5758262144416413 0.8165168965865088 0.7770416576177999	0.122039
H	0.4369151479733543 0.3481096205534800 0.7821424972832746	0.109861
H	0.4289797736070596 0.1884330400766778 0.7825147759492185	0.120544
H	0.8465971241385344 0.9549760094907174 0.2601357829217334	0.106978
H	0.6877312339020070 0.9503559975680641 0.2533818418364472	0.120698
H	0.3465785716158522 0.5720117637532357 0.7742412476541474	0.102034
H	0.1875933203648982 0.5824322854582925 0.7761896786389579	0.122476
H	0.1583520068339692 0.9653433666454880 0.2459719314888827	0.108618
H	0.3164534366501713 0.9610283169703505 0.2426718787745302	0.115777
H	0.6550690162791709 0.4400267787354685 0.7876359632400406	0.110618
H	0.8149098051871563 0.4315707750172462 0.7819822794537433	0.118055
H	0.4310222517679694 0.6559189907099322 0.2132736050482791	0.110327
H	0.4232355234284680 0.8160207582723159 0.2174488823413814	0.117410
H	0.5673637010851800 0.3491594118935670 0.2230102896459997	0.100604
H	0.5762006274052435 0.1899432148270257 0.2272201221956121	0.122079
H	0.1530042098165573 0.0219504363089642 0.7440534584635764	0.105901
H	0.3110783635075038 0.0300045442943709 0.7563334117127807	0.119265
H	0.6562055225668738 0.5651824027085797 0.2328281280240951	0.104768
H	0.8147549498302392 0.5777608150021265 0.2286622427348507	0.120883
H	0.8461623548688640 0.0449894752804807 0.7375134789009113	0.099422
H	0.6872612205966444 0.0482167428152056 0.7486419606204383	0.120210
H	0.3463449149318299 0.4310046310211803 0.2041038763340634	0.106677
H	0.1867026410778069 0.4248043104005526 0.2095779720713054	0.117745
H	0.9492561985109251 0.8438643838171036 0.7375863779290641	0.107960
H	0.9466167679913068 0.6847942116300170 0.7466677693359082	0.119481
H	0.9745274848447016 0.1532056023410693 0.7536634855409019	0.108656
H	0.9687297141546258 0.3114738535791199 0.7597964779747624	0.119929
H	0.0354707641334357 0.8446332615793632 0.2565133723426109	0.099820
H	0.0413194275735321 0.6856893489133278 0.2476507767753081	0.119507
H	0.0323524978041143 0.1525644394185041 0.2551585570845757	0.105558
H	0.0381889194255824 0.3112926657834735 0.2456190348508267	0.119519
N	0.9547013120796557 0.5390651763902351 0.6197947241442160	-0.134323
N	0.4252368155030105 0.0452587239571056 0.0088368532984562	-0.150498
N	0.5414155833558399 0.0393757760089461 0.6235546342332796	-0.137197
N	0.9590199519570690 0.4280405000731302 0.0012954626699195	-0.145436
N	0.0409263074803977 0.5406468995552081 0.3788551777329204	-0.134945
N	0.5768109736559162 0.0439136262656997 0.0087189809293397	-0.153167
N	0.9594315052492650 0.5799522743116104 0.0025509572547590	-0.148805
N	0.5431797913635971 0.9529541279624250 0.3840363316110549	-0.132945
N	0.0442538544177242 0.4572943840235748 0.3812252155158572	-0.131689
N	0.5762154249861373 0.9601680346597009 0.0013745912717848	-0.149638
N	0.4599811061750153 0.9517238837894961 0.3844789960391303	-0.129976
N	0.0430794040472387 0.5796029932668114 0.9945299704515689	-0.151885
N	0.9565718996349459 0.4557233529067100 0.6200973683398935	-0.130438
N	0.4246359776755099 0.9615244302368140 0.0092838085437980	-0.143167
N	0.0426644650519118 0.4277468409734721 0.0003979726582738	-0.148036
N	0.4580774901319719 0.0388265063715297 0.6231323528097666	-0.133839
N	0.0038406455593805 0.1477164418890608 0.5039371322306863	-0.229875
N	0.4974293520818250 0.6520128415013076 0.9936499178696846	-0.230467
N	0.9929795601602227 0.8490222061764636 0.4970166611314811	-0.225538
N	0.5010427703698791 0.3534333588777491 0.0042573834108118	-0.228701
N	0.8512319246147740 0.0006778219837733 0.4986800952400622	-0.226351
N	0.3512697171455048 0.5001948532312658 0.9874978258911218	-0.227103
N	0.1504435884078145 0.9940687348239350 0.4952770740891808	-0.230373
N	0.6507640376997177 0.5025821115311662 0.0102428137570443	-0.231915
Cd	0.0013633118917252 0.9986075014770029 0.4981946514252635	0.824874
Cd	0.5012909983926130 0.5029038137057639 0.0000280930217410	0.825935
Fe	-0.0003380990529829 0.9954415809479790 0.9981476935248058	1.514155
Fe	0.4966099046159571 0.4992349379536434 0.5004559411915525	1.523731
F	0.0026446501850753 -0.0039901577609771 0.2324993111866501	-0.573087
F	0.5254968040520019 0.4873951618986178 0.7321104736536563	-0.584251
F	-0.0007847217513174 0.9971761020400245 0.7639089546553470	-0.573060
F	0.4726066697419496 0.5147784540013506 0.2671856811571337	-0.586703
F	0.9156998121129334 0.9124195028041782 0.0003845197362680	-0.608762
F	0.4183068970503586 0.4114227003355695 0.5175256710389553	-0.616594
F	0.9690514293601201 0.1100026708995180 0.9975480411646358	-0.601535
F	0.4588094999229624 0.6093170248085947 0.5426965833952823	-0.622028
F	0.1139939025419488 0.9637202536594240 -0.0025975345483759	-0.601757
F	0.6084568474284030 0.4723406685949898 0.4449140298953882	-0.621397
	  	
