#======================================================================

# CRYSTAL DATA

#----------------------------------------------------------------------

data_VESTA_phase_1


_pd_phase_name                         FeFFIVE_6_Fe_i
_cell_length_a                         17.91609
_cell_length_b                         17.77590
_cell_length_c                         15.68130
_cell_angle_alpha                      89.99088
_cell_angle_beta                       90.00529
_cell_angle_gamma                      90.05792
_symmetry_space_group_name_H-M         P 1
_symmetry_Int_Tables_number            1

loop_
_symmetry_equiv_pos_as_xyz
   x, y, z

loop_
   _atom_site_label
   _atom_site_fract_x
   _atom_site_fract_y
   _atom_site_fract_z
   _atom_site_charge
N	0.2438640189067012 0.1352513636542995 0.1272805248177551	-0.248139
N	0.2572875030314096 0.3648642400355789 0.1279611524467324	-0.249359
N	0.3716585728651086 0.2420026084725374 0.1283308157463002	-0.248566
N	0.1285550057967754 0.2565279921843531 0.1268008419837360	-0.251531
N	0.7575411482359636 0.6290149392280925 0.3710533316513486	-0.246270
N	0.7441780126599137 0.8709608736140791 0.3725567887193850	-0.245655
N	0.6273116594951429 0.7421528608093482 0.3713587644342996	-0.240410
N	0.8727620604105280 0.7562391385280450 0.3718210279967133	-0.240272
N	0.7575280799362343 0.8709437442992791 0.8709541970947628	-0.265456
N	0.7439062699537446 0.6289605797856238 0.8715667256037115	-0.258521
N	0.6272919792087884 0.7560386285341805 0.8727026809823847	-0.261643
N	0.8726236269930083 0.7421761110303023 0.8714077281297793	-0.260747
N	0.2441444379999191 0.3710752602267536 0.6273574426920335	-0.248338
N	0.2576233602013303 0.1290451426781485 0.6288827658446907	-0.248066
N	0.3728058827659163 0.2562984493643592 0.6281277495412046	-0.244753
N	0.1272665983249207 0.2420786914202632 0.6285818837901828	-0.246732
C	0.2028148749419979 0.0976666546016688 0.1856881092386840	0.109035
C	0.1958526785205857 0.0196727349691624 0.1855387415072612	-0.182168
C	0.2344692866241262 0.9761550690113719 0.1250822081973006	0.109297
C	0.2779872677876729 0.0160053554852465 0.0656536115400358	-0.180776
C	0.2803335359434811 0.0942747970305565 0.0679047319002104	0.100995
C	0.2288870147159610 0.8926163355754687 0.1241393390202730	0.061227
C	0.2918421191200109 0.8470867445855631 0.1214791318009999	-0.172438
C	0.2861471641143473 0.7673889416787465 0.1229197455914119	0.084415
C	0.1500392283010016 0.7801479989184732 0.1251644737224383	-0.124570
C	0.1573964152476380 0.8573546530584921 0.1268703543184964	-0.136373
C	0.2972894849351761 0.4021867242047741 0.1876766903876494	0.097319
C	0.3038813650415552 0.4802734907699324 0.1879948790686136	-0.183712
C	0.2658466740779891 0.5239298861181239 0.1270976069102353	0.105796
C	0.2237014348707858 0.4842051882565326 0.0664207590708986	-0.180235
C	0.2217873747252786 0.4058625432730051 0.0677576424166785	0.097555
C	0.2711997018723228 0.6075071565181551 0.1260791912993787	0.061637
C	0.2081932122674789 0.6529454834256807 0.1227981605280943	-0.172987
C	0.2138131133571144 0.7326877664958744 0.1231941428305721	0.084324
C	0.3499327379246738 0.7200006014111533 0.1255746268667047	-0.124148
C	0.3426443364367643 0.6428242552410063 0.1284080067808056	-0.137189
C	0.4077845155559027 0.2003901318268370 0.1870031883053415	0.100458
C	0.4849748174252405 0.1927192947178093 0.1873809225318639	-0.185971
C	0.5278337193783478 0.2314833405328166 0.1266450461712067	0.109834
C	0.4895394601816445 0.2753366398955796 0.0665966139685645	-0.179175
C	0.4120433420977400 0.2781229866305843 0.0686156123801807	0.108127
C	0.6101046539611833 0.2261042942740036 0.1255572256261256	0.061278
C	0.6537357832175826 0.2904754923877769 0.1225036591976379	-0.174775
C	0.7325721379137657 0.2861414972224374 0.1229244883683653	0.085318
C	0.7218735689116238 0.1483032514737704 0.1251870724792498	-0.124169
C	0.6453532697655209 0.1544034097637855 0.1279780851399517	-0.134658
C	0.0923027300498245 0.2970272918555690 0.1864298040626813	0.099546
C	0.0151109759587462 0.3051462492797373 0.1861441585083533	-0.183149
C	0.9724035633505719 0.2677962216779191 0.1242508873738637	0.106236
C	0.0108138505393098 0.2244111106451225 0.0637795803073216	-0.185073
C	0.0883532442574610 0.2212391710994363 0.0661461852692499	0.100698
C	0.8901129598729129 0.2734312738680640 0.1234165608312370	0.065525
C	0.8463388745442145 0.2091615654766176 0.1207381057422482	-0.175755
C	0.7675235823751033 0.2135511287826539 0.1224681076268937	0.085055
C	0.7783170106752481 0.3513600402119185 0.1250836658986695	-0.124920
C	0.8548797813903354 0.3451338243767569 0.1266040549891091	-0.137688
C	0.7999450087682314 0.5932687409058468 0.3130626865476915	0.102629
C	0.8084747883778723 0.5156593257809307 0.3130245760121960	-0.187280
C	0.7699080884400804 0.4726639700088777 0.3737373135326417	0.108749
C	0.7251741229479639 0.5104974258515976 0.4331549462790696	-0.179280
C	0.7212974604511274 0.5884304705925010 0.4304206932925483	0.110069
C	0.7753171402117801 0.3901777377626181 0.3748648499470312	0.061977
C	0.7109260202333612 0.3471785140159443 0.3777888389503051	-0.174699
C	0.7143220646176747 0.2678775335927749 0.3773802583196662	0.085140
C	0.8514087051419869 0.2772281303644364 0.3751446917316931	-0.122483
C	0.8461988658781201 0.3543634666413604 0.3724434756889503	-0.136601
C	0.7026824366726243 0.9069053541678697 0.3137583491930487	0.103400
C	0.6935523881520635 0.9844579987018488 0.3145052230555145	-0.183584
C	0.7308275132159665 0.0272173160142132 0.3763364233447944	0.109447
C	0.7751752225405762 0.9892674315597497 0.4361295969027480	-0.186643
C	0.7795193960007185 0.9113071758269135 0.4329917825482689	0.102555
C	0.7252089914080373 0.1097044668031869 0.3771865234066928	0.062828
C	0.7895025549017152 0.1528204299611243 0.3796635643619424	-0.173866
C	0.7860573671792470 0.2321116518384347 0.3778609244090930	0.083762
C	0.6490092096997550 0.2226810564464235 0.3752958071964931	-0.123936
C	0.6543348305605852 0.1455038879709521 0.3739399245773213	-0.137817
C	0.5911849829054058 0.7010187593416808 0.3121088537689975	0.097715
C	0.5139732017881637 0.6929550459503293 0.3120606695533025	-0.187620
C	0.4714660310917402 0.7308887437277900 0.3735795733968632	0.109005
C	0.5095599132829527 0.7747058879955242 0.4338549024361650	-0.184929
C	0.5870825513767992 0.7778972109083861 0.4315178318140648	0.098815
C	0.3894397360441217 0.7254042910893594 0.3747127843386391	0.061613
C	0.3464257607199379 0.7900139742329265 0.3777891495514916	-0.174818
C	0.2676614042303279 0.7861661048227369 0.3772717041240919	0.085113
C	0.2773678950881001 0.6481453613248526 0.3747870626625586	-0.122019
C	0.3539163791439005 0.6538384950795435 0.3721518966098568	-0.136808
C	0.9089585970718922 0.7984311473470265 0.3137778292270668	0.108820
C	0.9860555837277128 0.8070496877838016 0.3141713436969963	-0.183513
C	0.0285274819828801 0.7686555117570812 0.3753234960016725	0.113761
C	0.9904479979356692 0.7236093970156492 0.4345463366602891	-0.184474
C	0.9130311083576035 0.7197909460315756 0.4313162174695654	0.105043
C	0.1105037282557281 0.7743611064287831 0.3764410486373387	0.059559
C	0.1535779257336791 0.7097810630630613 0.3790820868801422	-0.171737
C	0.2323064668822830 0.7137084860346509 0.3775299585159638	0.083695
C	0.2225259024721801 0.8517337932387921 0.3751206139343617	-0.121529
C	0.1459575066968332 0.8459565342747114 0.3734268378898243	-0.137885
C	0.7988717162697492 0.9068776852920624 0.8118941480322014	0.100250
C	0.8074756928568352 0.9845534307047068 0.8121152078733680	-0.185981
C	0.7698723058500874 0.0273241668270980 0.8736832565105612	0.104028
C	0.7259705938034184 0.9893168261434541 0.9338213811454302	-0.183331
C	0.7221419156862668 0.9113184488371674 0.9312186920882773	0.100060
C	0.7752690250405718 0.1098365738488255 0.8748575064086214	0.062842
C	0.7108655565609318 0.1526811425590138 0.8779074768843529	-0.177574
C	0.7141876205766301 0.2320091375918383 0.8774155362410293	0.086029
C	0.8512798447469957 0.2230082692984741 0.8749457359755257	-0.124619
C	0.8460890091931031 0.1458545101953806 0.8723070991919525	-0.135807
C	0.7016227446169599 0.5929502417498890 0.8136428488884778	0.115278
C	0.6925974612878320 0.5153867860637878 0.8142523208913170	-0.180597
C	0.7306283099576546 0.4726507054812540 0.8754760756854238	0.118122
C	0.7757231044502118 0.5106396888931074 0.9345465495452522	-0.182043
C	0.7800914534414228 0.5885386093096571 0.9310886564713694	0.111578
C	0.7249727041938899 0.3901784717877558 0.8766175391376424	0.057042
C	0.7893138523335836 0.3472418109345890 0.8791874099700073	-0.174062
C	0.7859135713519797 0.2679426934909682 0.8776935559414739	0.087096
C	0.6488332656092900 0.2770285033095343 0.8752758631405659	-0.123983
C	0.6541228023968263 0.3542143206775623 0.8736302215738382	-0.137170
C	0.5911677445808111 0.7973982729583422 0.8137573594740385	0.102052
C	0.5140553803548653 0.8060730337287534 0.8142677618065167	-0.183837
C	0.4715719751007961 0.7684380302197538 0.8760535487951475	0.109842
C	0.5096022781904799 0.7241901883239504 0.9359885809878019	-0.185988
C	0.5870924660973620 0.7204274569352376 0.9330487134992792	0.102742
C	0.3895750501367485 0.7741560790393003 0.8769430687226714	0.060242
C	0.3462980277544968 0.7096188675545235 0.8794999345435263	-0.175519
C	0.2675565775233290 0.7135894892942003 0.8777386635835928	0.085080
C	0.2777214715397780 0.8515771443723565 0.8751131612583055	-0.123874
C	0.3542862601920461 0.8457207389092734 0.8736995266479687	-0.136730
C	0.9086416038355195 0.6999913054240380 0.8132499440595551	0.099392
C	0.9857963550119891 0.6919890429634790 0.8129301013070079	-0.184764
C	0.0284951200831816 0.7308939318137974 0.8736030580976938	0.110150
C	0.9905720554979388 0.7755106052133601 0.9331507262861243	-0.180704
C	0.9130844954620292 0.7787184261389893 0.9306555975230835	0.109721
C	0.1104967237455486 0.7253588861181171 0.8747196659035609	0.059505
C	0.1536637916797002 0.7899775465338748 0.8776744165821615	-0.177052
C	0.2324167621896051 0.7860612392984947 0.8772694216707095	0.085059
C	0.2223300331473103 0.6480408677702889 0.8750236878005487	-0.122988
C	0.1458054440482250 0.6537900450539375 0.8723135566807612	-0.135079
C	0.2027464786494273 0.4069774178725553 0.6862548602756211	0.099556
C	0.1936278109198600 0.4845240692350248 0.6855253776132507	-0.182572
C	0.2308435444697559 0.5272925385796137 0.6236350383268527	0.105053
C	0.2751345760461456 0.4893754343372684 0.5637828325975146	-0.185631
C	0.2794404700329702 0.4114205123661600 0.5668790281696541	0.101057
C	0.2252160180816467 0.6097776324762575 0.6228375132880378	0.064624
C	0.2895086374353138 0.6528801175889042 0.6204044284320509	-0.174773
C	0.2860588413196365 0.7321580065498504 0.6222402653299959	0.084362
C	0.1490139002583868 0.7227208776221972 0.6248366820572067	-0.124539
C	0.1543311822797170 0.6455464404252339 0.6261399350460108	-0.137918
C	0.2999102822321588 0.0933134877059971 0.6870255089332333	0.102619
C	0.3083981043991955 0.0157016598196169 0.6871694562509320	-0.186373
C	0.2699135456898767 0.9727017867148137 0.6263826274691249	0.109032
C	0.2252429948274416 0.0105053394886875 0.5668584310446863	-0.180020
C	0.2214210892717865 0.0884430433721535 0.5695001732469657	0.112286
C	0.2753347817838179 0.8902113570082986 0.6252780423097839	0.062161
C	0.2109442887277913 0.8472148107107370 0.6223430602474271	-0.174661
C	0.2143335174223292 0.7679167835130662 0.6227306141867731	0.084907
C	0.3514060945829765 0.7772584439070861 0.6250058534220313	-0.123280
C	0.3462122833615175 0.8543988009884179 0.6277229107932728	-0.136806
C	0.4089853399933417 0.2983582604288540 0.6862766952297472	0.109715
C	0.4860742072436145 0.3069517655857030 0.6859250322650117	-0.183721
C	0.5285239898459377 0.2686301982127378 0.6247094505358326	0.109695
C	0.4904410753759160 0.2236496347459422 0.5654307004558657	-0.184556
C	0.4130346359624733 0.2198737438392777 0.5686084531579555	0.102410
C	0.6105084679251538 0.2743522745718998 0.6236183171411147	0.061437
C	0.6535954979264823 0.2097816595390285 0.6210465019383719	-0.172708
C	0.7323115350347230 0.2137233859314636 0.6226065016729813	0.084037
C	0.7225107025810121 0.3517330238112001 0.6250056171800442	-0.122640
C	0.6459352016809389 0.3459601123650431 0.6266366267563909	-0.138533
C	0.0911875286376511 0.2010881943881612 0.6879989579333183	0.098387
C	0.0139792389199904 0.1930522556968641 0.6881267412452725	-0.187100
C	0.9714487174220405 0.2309030107804216 0.6265249044923074	0.104947
C	0.0095032648833492 0.2746481108930039 0.5661383319915497	-0.183742
C	0.0870318669502781 0.2777801282678605 0.5683793591519023	0.098220
C	0.8894260723064347 0.2254318766998578 0.6254269978839216	0.063794
C	0.8464170586460298 0.2900359616694689 0.6223742126380591	-0.176372
C	0.7676574223123630 0.2861759673329780 0.6228707126419476	0.084852
C	0.7773779750940547 0.1481666508342430 0.6253555241522409	-0.122623
C	0.8539244924274115 0.1538452060854250 0.6279653606290314	-0.137277
H	0.1764478813449551 0.1320925198376416 0.2345091851570520	0.096938
H	0.1618405061382769 0.9927953982335702 0.2344623652506059	0.112730
H	0.3086194631617654 0.9862593235861518 0.0159966700965044	0.112263
H	0.3113590942868006 0.1266239071500083 0.0206347902350379	0.095521
H	0.3474006644903825 0.8724681850625698 0.1206372649279114	0.106705
H	0.0945544769966877 0.7546529091216287 0.1258278328818050	0.107332
H	0.1077345551528129 0.8928931943302101 0.1285275424637754	0.097508
H	0.3235215661506009 0.3677939828987465 0.2369260093404277	0.100544
H	0.3375580568883310 0.5070022362566877 0.2373373917215290	0.112627
H	0.1939799721383603 0.5139585538610564 0.0160599983140370	0.113085
H	0.1930673764266363 0.3741308311617936 0.0179795132818329	0.102030
H	0.1526740851558870 0.6274651262892897 0.1223010205254406	0.108009
H	0.4053736363011252 0.7455825074193264 0.1257676742544299	0.104593
H	0.3923146268913205 0.6073448590701116 0.1305720234435164	0.098757
H	0.3729190301336557 0.1730852656133360 0.2349649257701892	0.094576
H	0.5119245381396607 0.1582351547636432 0.2358188076962954	0.112629
H	0.5200523875456359 0.3053446475618776 0.0170522836002596	0.112805
H	0.3804087282697680 0.3082745542234850 0.0200762448720141	0.097566
H	0.6274280913656575 0.3458577457675919 0.1220608794140220	0.108316
H	0.7483528010800177 0.0930614572644312 0.1253928199360611	0.106870
H	0.6106014827908890 0.1039280295973743 0.1299321991588276	0.100328
H	0.1264393780640493 0.3217098298240011 0.2368595030289449	0.102175
H	0.9881601506764027 0.3386100274357127 0.2354932968496157	0.112647
H	0.9803760406901769 0.1946563021825979 0.0139737930614633	0.112688
H	0.1199399605276593 0.1905570145515725 0.0177276567752426	0.097874
H	0.8725575275654395 0.1537359305044977 0.1197395694499762	0.107191
H	0.7518098820193340 0.4065999319208255 0.1260482838168452	0.106679
H	0.8897517514198051 0.3955229056790325 0.1284473159265981	0.098126
H	0.8270382697021339 0.6289651378701597 0.2655504307331111	0.094069
H	0.8432330465959653 0.4884507802900003 0.2650683389408350	0.111937
H	0.6953446327272240 0.4793003729972420 0.4823926876759904	0.112479
H	0.6900065408060302 0.6203919403948082 0.4777473575781910	0.097993
H	0.6564183942150207 0.3745605373997241 0.3781863487360216	0.108098
H	0.9058484784356471 0.2496416515158083 0.3750094821738039	0.106361
H	0.8964699065327409 0.3890483162637174 0.3706100185993019	0.101390
H	0.6780818807068346 0.8720370036986886 0.2637578767854530	0.103510
H	0.6596905956035379 0.0116674334899084 0.2656856536550847	0.113649
H	0.8047257127316294 0.0203983885415315 0.4856287461292364	0.113224
H	0.8111648995632090 0.8793049643507117 0.4803003608704281	0.099696
H	0.8440448723984569 0.1255261904159526 0.3805446701204322	0.106010
H	0.5945717024997741 0.2502588625071466 0.3743801635817104	0.107305
H	0.6041500320377093 0.1106511021950708 0.3722084266727285	0.098564
H	0.6257572337801255 0.6748989913168654 0.2628849955828931	0.102126
H	0.4867869664429118 0.6589462705955722 0.2632193428734767	0.113607
H	0.4789331238692494 0.8044874748576675 0.4835514774559195	0.113916
H	0.6186251202438519 0.8082435788578547 0.4802866257347951	0.103658
H	0.3732703015878617 0.8451778715211151 0.3783451093218684	0.107963
H	0.2502429829497926 0.5930969639944239 0.3745032878015603	0.105740
H	0.3884006723229084 0.6032682029761033 0.3701141144966791	0.100705
H	0.8743469480316951 0.8245355182444071 0.2648496333607677	0.097780
H	0.0132908960849924 0.8414683446162626 0.2657271252510958	0.113503
H	0.0211673509346266 0.6932415430013745 0.4837176781774572	0.113040
H	0.8811857436630435 0.6872060376933409 0.4778311127943349	0.096501
H	0.1268483771556964 0.6545651698285507 0.3797544008976858	0.106739
H	0.2495486660310877 0.9068420016130730 0.3743664317105749	0.108706
H	0.1114113877798476 0.8964754193849591 0.3716499645348720	0.099554
H	0.8244808064411244 0.8717189375145322 0.7627674367844707	0.100146
H	0.8414279807989514 0.0118805030721661 0.7634120962964032	0.114422
H	0.6965336365679161 0.0203412231408653 0.9834321042169402	0.114261
H	0.6916752420131529 0.8794436581819437 0.9796423689686132	0.101997
H	0.6563881028001380 0.1251185985982938 0.8783784065192395	0.107500
H	0.9056800996477521 0.2507910736595023 0.8744898257881082	0.106018
H	0.8963811206724071 0.1112685401253926 0.8702145928917001	0.100354
H	0.6760060305855234 0.6281425995250345 0.7648205635761706	0.099709
H	0.6582118462598896 0.4880807276876404 0.7659551670828685	0.115742
H	0.8057419049962107 0.4795411581735021 0.9836291713571457	0.115665
H	0.8128560551325943 0.6207612788284816 0.9771325487268551	0.096396
H	0.8438595756037823 0.3746655270551309 0.8797855793513782	0.106881
H	0.5943759379867679 0.2493577930594430 0.8744062437727101	0.109473
H	0.6038541265806506 0.3888498077950532 0.8718617286170588	0.098632
H	0.6254904192251451 0.8224767307393145 0.7636908879465500	0.102949
H	0.4869663954007549 0.8399835442329321 0.7652939649410881	0.115106
H	0.4789573093639751 0.6942530624166616 0.9855623447882929	0.114495
H	0.6187663356638049 0.6888532871664906 0.9807821222054679	0.098172
H	0.3728982825289843 0.6543857686866910 0.8803666116645666	0.106088
H	0.2507961330343322 0.9066718403069947 0.8740588605088920	0.107305
H	0.3890164439071022 0.8962345236271350 0.8718068221375451	0.097870
H	0.8736272528022169 0.6723541390769280 0.7655956855602408	0.094624
H	0.0129138239332359 0.6572245435580544 0.7647881706749118	0.113309
H	0.0213139107397989 0.8057315035210242 0.9824207562039013	0.115785
H	0.8814849609136737 0.8098589304891800 0.9784990249849091	0.099307
H	0.1269868982132183 0.8451757066007027 0.8780308205652250	0.108659
H	0.2492307179583436 0.5929337779277419 0.8747930000007859	0.106359
H	0.1112294868338593 0.6032001043085541 0.8704068489715638	0.100375
H	0.1783090933977946 0.3721160381650450 0.7363482692331642	0.102317
H	0.1598187899556137 0.5117632952955617 0.7343770974578944	0.112119
H	0.3046345195849662 0.5205351437285139 0.5142658919894386	0.111856
H	0.3110279761084720 0.3794135756106419 0.5195408017707163	0.098710
H	0.3440398880315417 0.6255570827684067 0.6195372905743342	0.106002
H	0.0945693080886825 0.7503148425389901 0.6258826947948524	0.106874
H	0.1041700908589892 0.6106796274196288 0.6279095574487747	0.098210
H	0.3269138608512069 0.1290421256516935 0.7345495046653896	0.093475
H	0.3430865437818827 0.9884533324585153 0.7351933911067579	0.111570
H	0.1954811271198791 0.9792827786348968 0.5175928794305520	0.112742
H	0.1902297367575259 0.1203957789643928 0.5220703363257538	0.097700
H	0.1564422303817098 0.8746110917679852 0.6219615209814665	0.107581
H	0.4058512734230389 0.7496550065492730 0.6252235037493331	0.106127
H	0.3964839549057008 0.8890865315297487 0.6296041398868614	0.100975
H	0.3743809858114743 0.3242880939812829 0.7352834960198824	0.096110
H	0.5133736858456324 0.3413022710757087 0.7343873454179921	0.111300
H	0.5211829787222269 0.1933351867834916 0.5162466066530810	0.111558
H	0.3811818928873398 0.1873473734519991 0.5220753155561323	0.093858
H	0.6268425256316977 0.1545704780974589 0.6204058316280755	0.106486
H	0.7495350937219633 0.4068513766843078 0.6258443154227005	0.107926
H	0.6113725052953758 0.3964595557704755 0.6283989843091948	0.099134
H	0.1257806986919642 0.1751391711029717 0.7373233269362924	0.100214
H	0.9867819724537675 0.1591332901566762 0.7370693044935256	0.111691
H	0.9788375738570224 0.3044044458220789 0.5164298525412053	0.112607
H	0.1185694271002466 0.3080126444439221 0.5195257311059237	0.102308
H	0.8732698405112284 0.3451889597432251 0.6218227928162444	0.108081
H	0.7502470171037928 0.0931174106723707 0.6257060573799009	0.105616
H	0.8884358116974114 0.1032966088023952 0.6299656613839636	0.100403
F	0.2551252202445222 0.1497525939204423 0.3792526346617644	-0.616767
F	0.1575937109687555 0.3049047218410794 0.3807238583037991	-0.605887
F	0.3338642477192872 0.3158160712697995 0.3799058580955955	-0.608318
F	0.6850513802820442 0.6657988425767476 0.1210064081048074	-0.612038
F	0.6954512743690598 0.8431150605189586 0.1205488346112803	-0.607449
F	0.8490557544452922 0.7451544067075961 0.1225668643975385	-0.618489
F	0.6575700894458875 0.8044664491345191 0.6202405030150578	-0.607922
F	0.7539475995117586 0.6497507046082805 0.6226254985816252	-0.619213
F	0.8332205980851708 0.8151983670527806 0.6213083024469672	-0.610682
F	0.1838424010570038 0.1663850299256208 0.8774007666165483	-0.607876
F	0.3491844082373987 0.2442625120253044 0.8742512032958850	-0.616780
F	0.1944430846932274 0.3429962489259963 0.8775911361395694	-0.603262
F	0.2482728320054362 0.2521673452639441 0.2565352242238464	-0.549658
F	0.2497466233588780 0.2506328018850789 0.5026504207801528	-0.545063
F	0.7473610992460008 0.7516184341765331 0.2452954711806485	-0.567777
F	0.7497001256374329 0.7507336551098870 -0.0023388313788993	-0.561717
F	0.7481987960735660 0.7521168654481429 0.7453410351544429	-0.561436
F	0.7496798666448178 0.7499065058626235 0.4976022908911364	-0.568699
F	0.2471790956104818 0.2516222776125631 0.7537443491914747	-0.543149
F	0.2511078791142997 0.2514070507309210 -0.0007487043076336	-0.549280
Fe	0.2502439907642979 0.2501364160543574 0.1278846887626923	0.808931
Fe	0.7499518144316243 0.7499550611621258 0.3714709238164081	0.800924
Fe	0.7499380907428221 0.7500077253281575 0.8714202474973352	0.900278
Fe	0.2499998281344950 0.2500446431499933 0.6283667664080611	0.788831
Fe	0.2491817072690963 0.2547365418720223 0.3789698760464152	1.533746
Fe	0.7452129398659527 0.7511148516515915 0.1214784470480966	1.531885
Fe	0.7487521953936267 0.7544253285943159 0.6214633361314696	1.533429
Fe	0.2451134236406232 0.2511250238718985 0.8771133749274866	1.532179
	  	
