#======================================================================

# CRYSTAL DATA

#----------------------------------------------------------------------

data_VESTA_phase_1


_pd_phase_name                         FeFFIVE_15_Cu_i
_cell_length_a                         29.61643
_cell_length_b                         28.64748
_cell_length_c                         8.35039
_cell_angle_alpha                      90.00070
_cell_angle_beta                       90.00063
_cell_angle_gamma                      89.99950
_symmetry_space_group_name_H-M         P 1
_symmetry_Int_Tables_number            1

loop_
_symmetry_equiv_pos_as_xyz
   x, y, z

loop_
   _atom_site_label
   _atom_site_fract_x
   _atom_site_fract_y
   _atom_site_fract_z
   _atom_site_charge
C	0.9355981272821670 0.1043869080673550 0.8895056509414682	0.094316
C	0.9028939093987214 0.0697391119080892 0.8946462317285711	-0.162594
C	0.7701832639742024 0.9362892541685612 0.8960647581395743	-0.116322
C	0.7357198241661339 0.9036015186914212 0.8958452465402708	-0.116475
C	0.5662473803114555 0.7393125868689939 0.8893485110762389	0.092130
C	0.6000089163906239 0.7728718379523646 0.8943046711336655	-0.166115
C	0.4357748572140994 0.6041801420020932 0.8893591854040160	0.100870
C	0.4031029057339789 0.5695264232117907 0.8947034225305814	-0.163021
C	0.2701058345981261 0.4363563322558219 0.8960487710358184	-0.114465
C	0.2356733542731455 0.4036603539313773 0.8958290153014868	-0.115588
C	0.0663733698037636 0.2391577998592182 0.8892077686676177	0.099200
C	0.1001797555871632 0.2726456686666493 0.8943533635823406	-0.165915
C	0.0648693182430036 0.8951722414941391 0.3893680332514724	0.102181
C	0.0972253690545249 0.9301409432907192 0.3947249268646985	-0.161840
C	0.2297820114132033 0.0637777618490744 0.3960419998032560	-0.113747
C	0.2642570388920914 0.0964307840411546 0.3958340493098420	-0.115515
C	0.4342387097391014 0.2601866247795455 0.3892307914316008	0.099478
C	0.4001720267896230 0.2269819242656812 0.3943676217772948	-0.166503
C	0.5647229087417494 0.3952953826635735 0.3895003845480766	0.094931
C	0.5969867806287984 0.4303888902381009 0.3946374247412460	-0.162426
C	0.7298082254035080 0.5637236441876754 0.3960590345935262	-0.115997
C	0.7643325428858817 0.5963450003034045 0.3958401997421317	-0.116062
C	0.9340902199208758 0.7603452521198080 0.3893597254634182	0.093250
C	0.8999718291125347 0.7271753406389867 0.3943003812520182	-0.167425
C	0.0647233839838543 0.1050180863765187 0.6106265786348214	0.103667
C	0.0970363253591395 0.0700224686993853 0.6052719810245371	-0.163967
C	0.2295601363053169 0.9364089851928639 0.6039386192631373	-0.115627
C	0.2640980337368934 0.9038144816537357 0.6041861395757030	-0.114927
C	0.4335833538909042 0.7394608089637495 0.6106647893814715	0.092024
C	0.3998328170158064 0.7730487830225307 0.6057110206627923	-0.165958
C	0.5640794297583293 0.6043626884187058 0.6106282514768195	0.100945
C	0.5967362208210037 0.5697060704908903 0.6052848948127973	-0.165077
C	0.7296861757132089 0.4365419168841797 0.6039242233826824	-0.114977
C	0.7640993519604627 0.4038105958957530 0.6041896649582491	-0.115790
C	0.9339548113897872 0.2398426250378645 0.6106552912524736	0.092477
C	0.8998100741201046 0.2729932711939994 0.6057116410338732	-0.166570
C	0.9354693489386889 0.8958261982540336 0.1105012874623909	0.094084
C	0.9027334656008199 0.9304586072454917 0.1053813808434221	-0.161623
C	0.7699421506543694 0.0638965027250642 0.1039700212016078	-0.114944
C	0.7355418239590101 0.0966496462700379 0.1041459737224054	-0.115169
C	0.5655776857737185 0.2603486871677787 0.1107741183912226	0.099497
C	0.5996490792145228 0.2271676490790545 0.1056372790218003	-0.166581
C	0.4350996629002020 0.3954416686823924 0.1105022394474640	0.095073
C	0.4028323000827062 0.4305525128685784 0.1053862838311247	-0.161888
C	0.2699711717317094 0.5639174817715549 0.1039640943888126	-0.115682
C	0.2354318584161850 0.5965218092770875 0.1041470301490018	-0.115040
C	0.0662392074109725 0.7610531357407275 0.1107618814491370	0.099307
C	0.1000114978234809 0.7275378067500199 0.1056302279295797	-0.167979
C	0.0648685887418897 0.8951703519886260 0.1106312061051662	0.102136
C	0.0972246506969224 0.9301393308254703 0.1052756812883015	-0.161885
C	0.2297813315517369 0.0637765044755975 0.1039597223880900	-0.113716
C	0.2642563860366177 0.0964293923369602 0.1041659420937405	-0.115498
C	0.4342373078087047 0.2601862318512648 0.1107754727256348	0.099531
C	0.4001712999766125 0.2269811185449923 0.1056370392724898	-0.166543
C	0.5647213340727177 0.3952940600633470 0.1105015443201581	0.095040
C	0.5969853083193529 0.4303875549078274 0.1053634057643949	-0.162505
C	0.7298072011007174 0.5637229371165035 0.1039380128292978	-0.116009
C	0.7643318769076580 0.5963443798108816 0.1041564026976603	-0.116058
C	0.9340899557784873 0.7603440879275911 0.1106469557553585	0.093269
C	0.8999717416278901 0.7271738643268542 0.1057049673899580	-0.167508
C	0.9355977487220212 0.1043857782863496 0.6104984901155579	0.094327
C	0.9028932155347613 0.0697383567936315 0.6053582941020347	-0.162582
C	0.7701827298894556 0.9362886566271025 0.6039328078020687	-0.116273
C	0.7357193418734735 0.9036006894982704 0.6041509497191127	-0.116568
C	0.5662468052092829 0.7393124694675781 0.6106534632811431	0.092235
C	0.6000081598207695 0.7728714530433886 0.6057009161523990	-0.166138
C	0.4357739654768328 0.6041793971470246 0.6106386482546174	0.100821
C	0.4031024347913224 0.5695250968171485 0.6052935462155112	-0.162878
C	0.2701052325140694 0.4363558516007245 0.6039465673115774	-0.114454
C	0.2356731047306468 0.4036597315864509 0.6041643650652133	-0.115616
C	0.0663725515021375 0.2391564645702658 0.6107888425234939	0.099271
C	0.1001792485936236 0.2726444464331143 0.6056413368148870	-0.165833
C	0.9354697725345212 0.8958260728539607 0.3895028394187184	0.094074
C	0.9027339282969661 0.9304585052931046 0.3946247844916202	-0.161638
C	0.7699421717293408 0.0638963334426084 0.3960316869985696	-0.114979
C	0.7355422026236971 0.0966499215618078 0.3958547828803346	-0.115231
C	0.5655767552361655 0.2603482700820520 0.3892316591226800	0.099213
C	0.5996484087599986 0.2271673640666017 0.3943689276597482	-0.166238
C	0.4350990783369428 0.3954422909114107 0.3894953265660497	0.095140
C	0.4028321681031330 0.4305534227414650 0.3946080658316911	-0.161999
C	0.2699714598421829 0.5639169600030670 0.3960367548325271	-0.115709
C	0.2354323230544701 0.5965215902071183 0.3958543580885322	-0.114883
C	0.0662387212584734 0.7610519277848784 0.3892397097539751	0.099064
C	0.1000115234189797 0.7275374384882092 0.3943719584686395	-0.167874
C	0.0647226436022467 0.1050169507695544 0.8893769810756161	0.103677
C	0.0970361563708350 0.0700219692461348 0.8947317135797258	-0.163915
C	0.2295599521401997 0.9364081181627307 0.8960607729617054	-0.115597
C	0.2640984349165229 0.9038140013355495 0.8958124855605213	-0.114902
C	0.4335840455263934 0.7394612404904716 0.8893303574802767	0.092123
C	0.3998333629850838 0.7730489176357896 0.8942835669549549	-0.166150
C	0.5640798045418821 0.6043630876130582 0.8893703284324523	0.100910
C	0.5967367551194664 0.5697062999862346 0.8947160978467976	-0.164902
C	0.7296860191516389 0.4365418241274012 0.8960777078515612	-0.114982
C	0.7640994448148275 0.4038103011925444 0.8958092133696265	-0.115851
C	0.9339541188647352 0.2398422230073985 0.8893421438274907	0.092514
C	0.8998098323801951 0.2729930553973883 0.8942859882874488	-0.166678
C	0.6524378720542451 0.8244503112796903 0.7500031989862420	-0.101986
C	0.8856320574159313 0.0517739948533611 0.7500020941113911	0.162603
C	0.8224809010913279 0.9870949947470263 0.7500002075948192	-0.101479
C	0.6177596608557003 0.7905782613592931 0.7500039241050779	0.167330
C	0.7878519682306004 0.9532439608133721 0.7499992770701215	0.128916
C	0.7178205515868645 0.8867242369088795 0.7499985922892418	0.137863
C	0.6826889748656818 0.8533929973323265 0.7499989147152908	-0.100817
C	0.8519633535416263 0.0168749127813969 0.7500019585893681	-0.102471
C	0.1525697495984041 0.3242751450321811 0.7499989467940468	-0.104711
C	0.3857965826202010 0.5515980306871152 0.7499988018373899	0.163615
C	0.3224759035309736 0.4870914358020635 0.7499987494946927	-0.096718
C	0.1179265126693544 0.2903625537401310 0.7499979324977757	0.168376
C	0.2877773318117235 0.4532996745708455 0.7499986431199360	0.129953
C	0.2178002569906537 0.3867445926534310 0.7499960977544659	0.137785
C	0.1827379589815652 0.3533146591950649 0.7499953442547813	-0.097428
C	0.3520512582526106 0.5167746511945805 0.7499982930982886	-0.105779
C	0.3473207294870627 0.1758670991132298 0.2500020256693833	-0.105291
C	0.1141641800936938 0.9484330300991698 0.2499995215376515	0.163555
C	0.1772824159075388 0.0131739503948761 0.2499991008455679	-0.099019
C	0.3821103148342996 0.2096178845175819 0.2500028010189929	0.169821
C	0.2120397914583974 0.0469106612455385 0.2499999873087463	0.128472
C	0.2821091053683442 0.1133647172416055 0.2500014081192184	0.138853
C	0.3171699145978402 0.1467946732931552 0.2500015600311585	-0.097372
C	0.1476836100122791 0.9834931469107926 0.2500003914261399	-0.106848
C	0.8471999533918916 0.6759681834611259 0.2500018225774678	-0.103821
C	0.6138917488970262 0.4487099013179436 0.2499993567647701	0.162408
C	0.6771524172931616 0.5132961211249643 0.2499974726135240	-0.102795
C	0.8819169239412066 0.7097928158798853 0.2500018728193542	0.169585
C	0.7120208706162380 0.5468970458399883 0.2499976628289336	0.127521
C	0.7821732740661254 0.6132896220372375 0.2499999104201936	0.139201
C	0.8171658676874702 0.6467829685395787 0.2500011909199720	-0.099585
C	0.6474380211744551 0.4837473102444874 0.2499988209510446	-0.104118
C	0.3474151851688892 0.8246691231221298 0.7499990315754361	-0.101671
C	0.1139720638406257 0.0517294921731360 0.7500010951072522	0.165249
C	0.1770710244548646 0.9869991632819080 0.7500010079121533	-0.094792
C	0.3820832669923925 0.7907543308689678 0.7499979715681890	0.167816
C	0.2118272047599052 0.9532764826566094 0.7500010366471602	0.124720
C	0.2820223980280471 0.8869447463329457 0.7499973976442768	0.141443
C	0.3171823003636126 0.8536223246629734 0.7499963655970315	-0.101904
C	0.1474733094550962 0.0166674084794090 0.7499996467250597	-0.111067
C	0.8470069991463880 0.3241878548936245 0.7500000919353594	-0.103193
C	0.6140139397791703 0.5517492550980484 0.7499990918094560	0.166520
C	0.6772918285379516 0.4872204060339196 0.7500009405169342	-0.093628
C	0.8817604605032067 0.2903808967765675 0.7499977548210230	0.168026
C	0.7120016253699574 0.4534550437127553 0.7499990725354058	0.127115
C	0.7819460261956743 0.3868519483519733 0.7500003367577919	0.140180
C	0.8169346415077574 0.3533404756620853 0.7499991664142309	-0.100573
C	0.6477201823526865 0.5169116225816798 0.7499994122222498	-0.108299
C	0.6524809387622352 0.1760562763530818 0.2500026031930788	-0.106475
C	0.8854552296536685 0.9484114324009544 0.2500027161490386	0.161264
C	0.8222414092730991 0.0130630435757257 0.2500008464880848	-0.099779
C	0.6177050631695806 0.2097919334500457 0.2500042093741179	0.171699
C	0.7876152763541384 0.0469362185874923 0.2500014640094619	0.128508
C	0.7176888969546638 0.1135748528912657 0.2500003779146687	0.135485
C	0.6826344320781976 0.1470006120669309 0.2500024023213703	-0.096933
C	0.8517415039974076 0.9832903862124740 0.2500032114906278	-0.100749
C	0.1523272894426230 0.6758685157564347 0.2499988843501234	-0.105834
C	0.3859102082273594 0.4488613374736558 0.2499965726140616	0.160666
C	0.3226072965993850 0.5134426862574140 0.2499991539461204	-0.103156
C	0.1177385700893386 0.7098155699307365 0.2500003539686028	0.172490
C	0.2877442684135659 0.5470660209694490 0.2499996609673011	0.128891
C	0.2175525124483764 0.6134078624321369 0.2500015479532241	0.137139
C	0.1824821493017321 0.6468176334560747 0.2499990486453187	-0.097430
C	0.3523382292551547 0.4839057123394386 0.2499967073255156	-0.102703
H	0.9500357651505119 0.1185013556636251 -0.0005930923409445	0.107375
H	0.8911389214699165 0.0567274005305321 0.0099085683079550	0.122356
H	0.7840324491887853 0.9492067705966368 0.0086116174123561	0.106465
H	0.7220546669989671 0.8905459559869173 0.0083341524797364	0.114973
H	0.5525332223622023 0.7245478867600221 -0.0006257399444136	0.106929
H	0.6125798350596754 0.7848713472333929 0.0096424898327597	0.126615
H	0.4505107507980156 0.6186956681461370 -0.0019526199659227	0.104025
H	0.3912466787242973 0.5564270566584141 0.0097152515338312	0.122215
H	0.2839558075045595 0.4492672330528611 0.0086159831790213	0.107175
H	0.2220389205766404 0.3905889506780848 0.0083663915706756	0.114727
H	0.0522525606437306 0.2240848196681460 -0.0019984961738331	0.102820
H	0.1128572146610683 0.2847169735171762 0.0094326535633844	0.126578
H	0.0512357676048060 0.8795032530375636 0.4979651973907347	0.103330
H	0.1093729958123973 0.9429525423201006 0.5097502626060175	0.121583
H	0.2160248050046902 0.0507890534041116 0.5086391803326494	0.106490
H	0.2779934678283741 0.1093841368301107 0.5083641658786754	0.115078
H	0.4494577626439207 0.2741075438210461 0.4979599514081497	0.102773
H	0.3878254742050651 0.2145397062531520 0.5094439070112028	0.126475
H	0.5515815280358937 0.3798556369908148 0.4993569582381010	0.107876
H	0.6090353267201059 0.4431154755027701 0.5098974965983158	0.121801
H	0.7160391326840442 0.5507367398507989 0.5086111888503623	0.106149
H	0.7780887514877656 0.6092880004602197 0.5083353803475481	0.115132
H	0.9490260181827579 0.7738324991168617 0.4993495248672636	0.106215
H	0.8876992997909179 0.7148355106991480 0.5096209809644501	0.127238
H	0.0510838601059476 0.1206833459680394 0.5020072573928073	0.102678
H	0.1091744272732961 0.0571946401132241 0.4902549620643328	0.121665
H	0.2157157876213943 0.9492945974461209 0.4913443418933670	0.106003
H	0.2778213395634803 0.8908378246323652 0.4916792370292200	0.115435
H	0.4473094828529004 0.7247127915544918 0.5006365504258302	0.106870
H	0.3872907672457305 0.7850646878921350 0.4903780647491695	0.126819
H	0.5493777157467017 0.6189268093776441 0.5019603392262708	0.103793
H	0.6086185168869824 0.5566121823984219 0.4902784098380388	0.122762
H	0.7159071695367585 0.4495248384705350 0.4913668593062117	0.106696
H	0.7777547077441189 0.3907639067651271 0.4916642523249994	0.115222
H	0.9488809268143394 0.2263582382109679 0.5006554538363516	0.107055
H	0.8875149833769131 0.2853148311391287 0.4904078253983385	0.127014
H	0.9498895535649983 0.8816977953375268 0.0005916359665485	0.107939
H	0.8909488250363743 0.9434346919427203 0.9901112910842834	0.122338
H	0.7837102472105754 0.0508989787893117 0.9914008609289605	0.106724
H	0.7218785938814778 0.1096816353759113 0.9916375240914640	0.114147
H	0.5503887964664338 0.2743054648431437 0.0020445728763250	0.102476
H	0.6120258474900601 0.2147518986480920 0.9905589836283808	0.126145
H	0.4482601988618850 0.3800314536755230 0.0006291750189080	0.108035
H	0.3908161388458439 0.4432949204517457 0.9901230060003122	0.121564
H	0.2838043228402465 0.5510158253080626 0.9913785450445308	0.106156
H	0.2217091356936795 0.6094853129112978 0.9916418797087854	0.114666
H	0.0521055388639938 0.7761191121034178 0.0019844934065688	0.102815
H	0.1126731937361352 0.7154434292330704 0.9905475855933451	0.126972
H	0.0512353883911633 0.8795005382434301 0.0020332209929512	0.103415
H	0.1093721382898882 0.9429496872596687 0.9902503515851828	0.121582
H	0.2160242818345186 0.0507867503386613 0.9913607399453793	0.106493
H	0.2779925132959929 0.1093822780783320 0.9916387072630793	0.115059
H	0.4494556644226156 0.2741071849251126 0.0020480201581902	0.102741
H	0.3878236796173115 0.2145384564324550 0.9905601516708146	0.126475
H	0.5515796855227064 0.3798530901965308 0.0006450586443813	0.107835
H	0.6090324635589637 0.4431137336662525 0.9901027131721184	0.121848
H	0.7160376088258883 0.5507356596798948 0.9913843065702831	0.106159
H	0.7780873610915001 0.6092874332350013 0.9916633239635946	0.115136
H	0.9490256434092630 0.7738306362858872 0.0006593922351940	0.106248
H	0.8876994283225912 0.7148330419473700 0.9903828417437575	0.127260
H	0.9500345929141456 0.1185002683903549 0.5006003813159373	0.107330
H	0.8911377879666972 0.0567253968969598 0.4900953480219205	0.122357
H	0.7840318495749327 0.9492055469136198 0.4913868757477870	0.106476
H	0.7220540549711316 0.8905450922257732 0.4916615987277174	0.114961
H	0.5525321381109296 0.7245481927547262 0.5006259183030450	0.106918
H	0.6125785674083358 0.7848712487027156 0.4903646537914145	0.126577
H	0.4505090506514461 0.6186943540372934 0.5019499841554760	0.104005
H	0.3912449823281949 0.5564256832609762 0.4902818811838153	0.122149
H	0.2839552658402558 0.4492659747967854 0.4913800119064884	0.107127
H	0.2220381088284508 0.3905875310912709 0.4916264279718531	0.114764
H	0.0522516956859973 0.2240825564170068 0.5019984013304182	0.102826
H	0.1128557684152665 0.2847143279879127 0.4905614593819166	0.126550
H	0.9498903595121346 0.8816973426909409 0.4994134696244552	0.107906
H	0.8909491321652143 0.9434338951952372 0.5098939934191343	0.122357
H	0.7837108903711127 0.0508993729989473 0.5085995397117972	0.106766
H	0.7218791630178314 0.1096821572669612 0.5083637894170341	0.114170
H	0.5503871359154414 0.2743036715810804 0.4979622373585845	0.102520
H	0.6120250003175801 0.2147514426360288 0.5094485742049834	0.126042
H	0.4482601273905465 0.3800330372410502 0.4993690855222568	0.108014
H	0.3908158275303975 0.4432964216190311 0.5098706198847787	0.121556
H	0.2838045232614981 0.5510154204695207 0.5086213031000225	0.106147
H	0.2217093454936938 0.6094851626130897 0.5083594774871921	0.114641
H	0.0521042401954832 0.7761163407046477 0.4980185408951739	0.102859
H	0.1126732935239937 0.7154410927119710 0.5094539782062695	0.126976
H	0.0510838058347463 0.1206824450397640 -0.0020030359238185	0.102658
H	0.1091743727102499 0.0571936560195347 0.0097475382442172	0.121650
H	0.2157159485003340 0.9492927053232151 0.0086579985862086	0.105980
H	0.2778214452339013 0.8908360676143185 0.0083153368940517	0.115421
H	0.4473106144995097 0.7247132284579159 -0.0006428054604392	0.106898
H	0.3872922476959745 0.7850649460965030 0.0096183802977392	0.126871
H	0.5493787759964744 0.6189272658134243 -0.0019608398746331	0.103758
H	0.6086195436150760 0.5566123425294911 0.0097189342086739	0.122710
H	0.7159080585420671 0.4495246719196962 0.0086324252042397	0.106721
H	0.7777553159283294 0.3907640026209787 0.0083356874880548	0.115263
H	0.9488814850892316 0.2263580457466765 -0.0006580558294891	0.107058
H	0.8875148893156044 0.2853137214003512 0.0095903300136188	0.127033
Cu	0.4999033591420971 0.6729687954460940 0.7500006372262464	0.716498
Cu	-0.0002201691022833 0.1728804179201449 0.7500033061788440	0.716022
Cu	0.4998792043496287 0.3274532279135232 0.2500003630631965	0.715460
Cu	-0.0002398219303451 0.8273922658452987 0.2500025085068368	0.715430
Fe	0.4997861001462967 0.6724517250513602 0.2499974796642075	1.493918
Fe	0.0006875435436241 0.1728794965570530 0.2499984077975370	1.494352
Fe	0.4998392145073967 0.3263351324071571 0.7499908935417556	1.495045
Fe	0.0006907183259264 0.8273629210966698 0.7500009061868249	1.493627
F	0.4995523892711399 0.6073518821396160 0.2500089830050347	-0.599493
F	0.9699310009544344 0.2298789589198880 0.2500017922936846	-0.594510
F	0.9706082841729117 0.1154741918981594 0.2499692631150706	-0.591099
F	0.4996920497882534 0.2612039018971252 0.7499436581216150	-0.603475
F	0.9700225428474144 0.7703165796868668 0.7499888537436125	-0.594315
F	0.9704456691996821 0.8846701901067345 0.7500020588831109	-0.591288
F	0.5552248346702086 0.7037455504755751 0.2499947533121791	-0.593982
F	0.0637132105359326 0.1730641969017651 0.2500160782111301	-0.603380
F	0.4445392758808001 0.3579396871354108 0.7500138502373536	-0.594400
F	0.4445021716921757 0.7040292964027477 0.2499910352236084	-0.594035
F	0.5552869470874493 0.3576436939585069 0.7500099406166203	-0.593299
F	0.0636934991963829 0.8269815765576388 0.7500327781593848	-0.602878
F	0.4997589466993617 0.6730818613985032 0.4828463101161247	-0.593061
F	-0.0000836015490351 0.1730419203186415 0.4828275163689782	-0.593063
F	0.4997888117849869 0.3271960486001429 0.9828839921567477	-0.593073
F	-0.0000647922920672 0.8273660012419702 0.9828666715488668	-0.592746
F	0.4997622607506741 0.6730799230571023 0.0171495398186254	-0.593064
F	-0.0000728008985402 0.1730476462351060 0.0171653431061939	-0.593051
F	0.4997953424173702 0.3272125766668145 0.5171032457972042	-0.593083
F	-0.0000570785335657 0.8273709421628810 0.5171383268756161	-0.592740
N	0.5495012254606021 0.7229104587395212 0.7499998184578182	-0.221585
N	0.9514754385872746 0.1215937672603538 0.7500028523875808	-0.220389
N	0.0495454183693446 0.2228143644376127 0.7499993501658400	-0.218733
N	0.4515971225229897 0.6214792988588462 0.7499990860228841	-0.217492
N	0.4508477218053078 0.2767589823836707 0.2500022996319360	-0.217357
N	0.0488328870478039 0.8780966166922781 0.2500009435478737	-0.217578
N	0.9507479182559342 0.7768456202112832 0.2500040801918103	-0.220600
N	0.5487741675240290 0.3781594878084182 0.2500018910280514	-0.220300
N	0.4503019161549580 0.7230209358811001 0.7499971537306724	-0.220258
N	0.0487358665895680 0.1221309987061377 0.7500021694745628	-0.218331
N	0.9506492784666012 0.2233692477669986 0.7499996480601542	-0.221231
N	0.5482339972588061 0.6216307479077847 0.7499997367114640	-0.217738
N	0.5489353128200416 0.2768810629367213 0.2500022721520889	-0.218696
N	0.9513750231590359 0.8786390159547270 0.2500026733954914	-0.220160
N	0.0494467346543203 0.7774163883436629 0.2500015293829418	-0.217499
N	0.4510185969235680 0.3782737450522903 0.2499993963869336	-0.219032
	  	
