#======================================================================

# CRYSTAL DATA

#----------------------------------------------------------------------

data_VESTA_phase_1


_pd_phase_name                         GaFFIVE_4_Cu_i
_cell_length_a                         23.38569
_cell_length_b                         20.34927
_cell_length_c                         9.61639
_cell_angle_alpha                      90.00075
_cell_angle_beta                       90.00005
_cell_angle_gamma                      90.00691
_symmetry_space_group_name_H-M         P 1
_symmetry_Int_Tables_number            1

loop_
_symmetry_equiv_pos_as_xyz
   x, y, z

loop_
   _atom_site_label
   _atom_site_fract_x
   _atom_site_fract_y
   _atom_site_fract_z
   _atom_site_charge
C	0.4176805112453266 0.5977672267557149 0.6301028263910148	0.101278
C	0.3738912685226972 0.5517709545666012 0.6282398688050296	-0.164803
C	0.2778887538701559 0.4488427073086225 0.6279200837915390	-0.117356
C	0.2315530082915859 0.4062440044730327 0.6267699384425661	-0.111984
C	0.1298112425402817 0.3192274180246771 0.6254804019255585	-0.165954
C	0.0830238672141844 0.2772976247025472 0.6287196582709397	0.093594
C	0.9177216487352655 0.0977226571477880 0.6301059924734876	0.101727
C	0.8739143794684315 0.0517450080128465 0.6282420678834167	-0.165160
C	0.7778796030281158 0.9488457907768983 0.6279231791818005	-0.117593
C	0.7315433488444787 0.9062470713947148 0.6267739821832222	-0.111747
C	0.6297821273676468 0.8192592450614424 0.6254802363162809	-0.165991
C	0.5829895682213484 0.7773304492521602 0.6287181292620457	0.093740
C	0.5824578261226261 0.4017758458495050 0.1301921893419977	0.101183
C	0.6261723230620541 0.4478852909090814 0.1282188083447968	-0.169900
C	0.7222587693999338 0.5507050555401446 0.1279581402933928	-0.114537
C	0.7684837907821158 0.5934370733815151 0.1267499355914282	-0.111661
C	0.8699913760200046 0.6807128683866214 0.1254777396637623	-0.164173
C	0.9167801712485928 0.7226475764535718 0.1286099182925059	0.091236
C	0.0824198035890290 0.9018241915089039 0.1301974352724895	0.101557
C	0.1261473576003437 0.9479167788573607 0.1282221318809637	-0.169978
C	0.2222683299712022 0.0506945360889534 0.1279602653618558	-0.114757
C	0.2684925749389616 0.0934275437912508 0.1267539169447084	-0.111474
C	0.3700152184056480 0.1806709508843292 0.1254774191948571	-0.163475
C	0.4168063857695312 0.2225992206669170 0.1286036998592576	0.090879
C	0.5824900910123236 0.5979873535008904 0.8698618870227997	0.102832
C	0.6261527649528574 0.5518206925861198 0.8718024844944483	-0.169971
C	0.7222013521434084 0.4488940644330875 0.8720439618706033	-0.116507
C	0.7684754545749422 0.4062436817403783 0.8732241874488318	-0.110556
C	0.8704461276691358 0.3196604757132697 0.8745371576925824	-0.162268
C	0.9173117305872069 0.2778497026956526 0.8713709406073524	0.092578
C	0.0824995139011567 0.0979954279122959 0.8698521737218740	0.102819
C	0.1261622160659508 0.0518322052439774 0.8718024458037281	-0.169554
C	0.2221830000275053 0.9488810091591336 0.8720483349113770	-0.116632
C	0.2684580372680025 0.9062331044773898 0.8732232873261503	-0.110282
C	0.3704459566595099 0.8196773121814981 0.8745274436351440	-0.162432
C	0.4173158857776931 0.7778776827807383 0.8713663315423653	0.092837
C	0.4180641722153500 0.4024270712499946 0.3698729008786782	0.098970
C	0.3741858563350225 0.4483058655212794 0.3717485191559126	-0.166393
C	0.2777543683249663 0.5505940821267146 0.3720547599254374	-0.117380
C	0.2315447974704853 0.5933551363700454 0.3732405923455162	-0.113429
C	0.1304065950051722 0.6812052071113597 0.3745252453740393	-0.164599
C	0.0835448232904677 0.7230153342882301 0.3713342023910021	0.091383
C	0.9180494629018411 0.9024141829251221 0.3698684405559600	0.098951
C	0.8741717023321458 0.9482869981246131 0.3717456448152286	-0.166042
C	0.7777630356845299 0.0505950241860107 0.3720541416522100	-0.117336
C	0.7315553608360925 0.0933583911169693 0.3732418160485114	-0.113687
C	0.6304180529922148 0.1812140999398749 0.3745245494808768	-0.164714
C	0.5835523898206227 0.2230181784004032 0.3713256955761104	0.091552
C	0.5824558906971470 0.4017776245972626 0.3698060595123293	0.101200
C	0.6261709258909943 0.4478867787866683 0.3717825906365790	-0.169991
C	0.7222588935443791 0.5507052819477418 0.3720409739276593	-0.114568
C	0.7684836571497711 0.5934374357760570 0.3732508904411875	-0.111655
C	0.8699894686675800 0.6807109452067847 0.3745266350188666	-0.164111
C	0.9167785055653628 0.7226459751178074 0.3714017159049811	0.091104
C	0.0824226226602268 0.9018255505185856 0.3698106444584454	0.101651
C	0.1261497513741472 0.9479188245048533 0.3717832623119565	-0.169965
C	0.2222678790514457 0.0506948897417649 0.3720459620625851	-0.114851
C	0.2684920295927338 0.0934284373171387 0.3732554686128908	-0.111443
C	0.3700164308411209 0.1806723986431936 0.3745310033793762	-0.163640
C	0.4168076347590676 0.2226007993108330 0.3714030645027648	0.091051
C	0.4176802120495321 0.5977674786923305 0.8699036180273629	0.101354
C	0.3738918359283407 0.5517702698194016 0.8717608091668174	-0.164793
C	0.2778892979571548 0.4488447400601382 0.8720842346204090	-0.117461
C	0.2315532533054026 0.4062458757352805 0.8732351081292241	-0.112000
C	0.1298116055539712 0.3192272155864785 0.8745278578899105	-0.165957
C	0.0830241474478122 0.2772969601091057 0.8712852479913618	0.093633
C	0.9177222307809630 0.0977235317136732 0.8699014633544637	0.101654
C	0.8739138448419987 0.0517450604141742 0.8717661679504558	-0.165069
C	0.7778790111602055 0.9488458497759849 0.8720867853487516	-0.117554
C	0.7315426793351546 0.9062474365804263 0.8732317156465624	-0.111822
C	0.6297825386081518 0.8192585688195859 0.8745209152183280	-0.166017
C	0.5829898157256960 0.7773303740225955 0.8712780084607786	0.093727
C	0.4180633112977898 0.4024276348496556 0.1301318687333907	0.098987
C	0.3741859102947462 0.4483050101303968 0.1282587215239339	-0.166368
C	0.2777550282942288 0.5505935476643146 0.1279530617709029	-0.117406
C	0.2315453974747215 0.5933543859671139 0.1267657642251461	-0.113400
C	0.1304046185336221 0.6812059687122435 0.1254831786544752	-0.164593
C	0.0835429284173541 0.7230157900564083 0.1286793185026604	0.091436
C	0.9180514844194810 0.9024118333067410 0.1301352596717864	0.099172
C	0.8741731205322211 0.9482850379474341 0.1282547671341218	-0.166189
C	0.7777622774981631 0.0505960561662889 0.1279511537967402	-0.117251
C	0.7315550096167781 0.0933585208339171 0.1267668542478339	-0.113549
C	0.6304192471220764 0.1812119765493657 0.1254809783047204	-0.164700
C	0.5835538853742649 0.2230172785504473 0.1286781513486698	0.091675
C	0.5824888739473796 0.5979857314011390 0.6301513343513143	0.102952
C	0.6261520442847015 0.5518205542165284 0.6282075078337874	-0.170137
C	0.7222005992819823 0.4488933516617762 0.6279641021932345	-0.116288
C	0.7684753742103748 0.4062432331090263 0.6267828491022017	-0.110518
C	0.8704466852051774 0.3196590463253124 0.6254696852004921	-0.162428
C	0.9173115774259228 0.2778495975045710 0.6286331468332969	0.092677
C	0.0825008066492423 0.0979962488296171 0.6301547060579775	0.102981
C	0.1261632964277188 0.0518325757179150 0.6282062681214280	-0.169624
C	0.2221830068116667 0.9488810022868639 0.6279595190342330	-0.116548
C	0.2684580326087538 0.9062326897166807 0.6267842958220924	-0.110311
C	0.3704460084289555 0.8196757732158152 0.6254748731796247	-0.162485
C	0.4173159483567849 0.7778756196210802 0.6286386558342678	0.092771
C	0.3497286818880960 0.5249458554180712 0.7499985230240650	0.114273
C	0.3025336715872788 0.4746406460098592 0.7500009058098969	0.070334
C	0.2057104214161385 0.3845324462048056 0.7500031616215003	0.063574
C	0.1551195836708296 0.3410109091350146 0.7500036091086756	0.105034
C	0.8497349168133412 0.0249363361013231 0.7500046432443683	0.113870
C	0.8025246529909957 0.9746456779628317 0.7500050080084149	0.070144
C	0.7056985611733990 0.8845379740471545 0.7500028409497771	0.063665
C	0.6550987409715111 0.8410305057603965 0.7500032714720806	0.105073
C	0.6503674180057104 0.4747341190224427 0.2500021341222057	0.116153
C	0.6975684677679023 0.5249472654946580 0.2500002033725713	0.069004
C	0.7942238163693628 0.6152704485284977 0.2500002475340389	0.067815
C	0.8447200009200626 0.6588967387780809 0.2500009753153584	0.100921
C	0.1503603849424099 0.9747453246431690 0.2500021419962402	0.115300
C	0.1975733029147821 0.0249416945623869 0.2500022501509843	0.068972
C	0.2942331143393812 0.1152599817959379 0.2500051690943747	0.067774
C	0.3447332596918613 0.1588741987293033 0.2500047459854808	0.100417
C	0.6502963675860634 0.5249187274352088 0.7500036692227291	0.112622
C	0.6975172213079069 0.4746603579269816 0.7500048721984534	0.066478
C	0.7943053771323859 0.3845268795172867 0.7500035356901106	0.067401
C	0.8449990775886250 0.3411876939188856 0.7500030166957657	0.100525
C	0.1502979207521684 0.0249253727064974 0.7500035368267325	0.112217
C	0.1975039073667384 0.9746533898752582 0.7500040286145770	0.066404
C	0.2942944152566547 0.8845268587503557 0.7500044123534556	0.067025
C	0.3449955772695662 0.8412035455500912 0.7500023629117748	0.100628
C	0.3498628285378322 0.4749215785559193 0.2500032604518205	0.118836
C	0.3025027213273042 0.5249306949496111 0.2500034480379658	0.072218
C	0.2058918624425808 0.6153476162830572 0.2500033324215253	0.065124
C	0.1555592610019928 0.6592005937753991 0.2500029378996722	0.101892
C	0.8498564711617793 0.9749060178078918 0.2500000513503111	0.118731
C	0.8025050899130793 0.0249279181443725 0.2500008053087285	0.072212
C	0.7059024832126359 0.1153538983238898 0.2500044048241866	0.065284
C	0.6555733992934222 0.1592120454904251 0.2500043834903566	0.101912
H	0.4359987960989906 0.6173850304559281 0.5337849104594921	0.111919
H	0.3604058653165651 0.5388363793087784 0.5250116855505061	0.105589
H	0.2942707748301649 0.4608197324578907 0.5267448594518320	0.086262
H	0.2157667306750494 0.3901485539153426 0.5258398784180924	0.103472
H	0.1462379648491239 0.3339937672249192 0.5243509745703152	0.119860
H	0.0624878405738654 0.2582082718476200 0.5346407726548849	0.112420
H	0.9360666709731436 0.1173160070030243 0.5337884824691914	0.112110
H	0.8604236472239446 0.0388078069538192 0.5250144081264553	0.105657
H	0.7942598343904057 0.9608233689019673 0.5267474064975847	0.086361
H	0.7157605931049723 0.8901472816028372 0.5258440307413926	0.103403
H	0.6462004865183770 0.8340416269901599 0.5243480438944323	0.119768
H	0.5624307868201081 0.7582737666586896 0.5346430681387992	0.112429
H	0.5639157177711384 0.3816405210716762 0.0345729396266209	0.112810
H	0.6397913633830129 0.4610248914265276 0.0251818808921717	0.103821
H	0.7059992897834441 0.5385868243781958 0.0267442426432353	0.085607
H	0.7842930875132383 0.6094613663376156 0.0257707174388537	0.104699
H	0.8536758750730331 0.6661019600478044 0.0241075331382239	0.121712
H	0.9368997643696770 0.7414591493357149 0.0336863097513868	0.113000
H	0.0638299951501673 0.8817177444084493 0.0346000753178623	0.112434
H	0.1397449737442294 0.9610783951460024 0.0251829105058209	0.104006
H	0.2060173982912812 0.0385613800980035 0.0267455889618909	0.085655
H	0.2842972403476254 0.1094561376968535 0.0257764794270170	0.104779
H	0.3537098379704879 0.1660477667275508 0.0241107297906396	0.121441
H	0.4369445053339147 0.2413738838230792 0.0336680709279231	0.113211
H	0.5644346104752423 0.6182430382415022 -0.0341003727839109	0.112986
H	0.6397803332777857 0.5388916346960008 -0.0250544734029618	0.105433
H	0.7060352473727635 0.4610952819410198 -0.0267109585483277	0.085730
H	0.7842753729070209 0.3902017582876858 -0.0258169744144886	0.104327
H	0.8542746891082762 0.3346317950096700 -0.0242283792095008	0.119814
H	0.9379935878168527 0.2595035505195354 -0.0340339980336926	0.113426
H	0.0644382985569179 0.1182726317608333 -0.0341430873917146	0.112911
H	0.1398113383245392 0.0389119808037675 -0.0250746716068103	0.105308
H	0.2060037517387455 0.9610702887901746 -0.0267142169263821	0.085734
H	0.2842557236691787 0.8901850779830703 -0.0258192031228958	0.104328
H	0.3542718758169043 0.8346586575806738 -0.0242399871273546	0.119753
H	0.4380084786349056 0.7595260567514172 -0.0340704276294929	0.113180
H	0.4368615109413581 0.3829773740547113 0.4658098560338722	0.113097
H	0.3607917176842980 0.4615463546064227 0.4748857260309794	0.104595
H	0.2939951584306788 0.5383902033256102 0.4732425156950560	0.086516
H	0.2157119788098772 0.6093127760059108 0.4742355840033844	0.104261
H	0.1469757946956413 0.6668315593055378 0.4757918284456778	0.120874
H	0.0634992659157149 0.7422799600685237 0.4658980887291951	0.112536
H	0.9368698113342708 0.8829445404678253 0.4657605760191901	0.113057
H	0.8607680141956373 0.9615320059824408 0.4748740241680767	0.104347
H	0.7940045966047355 0.0383889259844801 0.4732404056242115	0.086507
H	0.7157244741650242 0.1093203720748705 0.4742345803072303	0.104244
H	0.6469917137902477 0.1668338922656630 0.4757823964045104	0.120812
H	0.5634823361102008 0.2422861635577018 0.4658546896381087	0.112582
H	0.5639136011193009 0.3816425845288424 0.4654262842562586	0.112745
H	0.6397884869022512 0.4610261598023188 0.4748215268557121	0.103897
H	0.7059989994732326 0.5385859671419226 0.4732532862189081	0.085588
H	0.7842927456940231 0.6094616737234695 0.4742317036065218	0.104711
H	0.8536738930762019 0.6661009300015767 0.4758934155396918	0.121714
H	0.9368948967480243 0.7414574379475761 0.4663320262464974	0.113028
H	0.0638332153552814 0.8817208404443007 0.4654074604137536	0.112410
H	0.1397464986823689 0.9610807511941704 0.4748198447860489	0.103948
H	0.2060167140610799 0.0385626675612862 0.4732603135125575	0.085764
H	0.2842961020993654 0.1094582433379958 0.4742339191311993	0.104770
H	0.3537108511064921 0.1660493697963566 0.4758969493802968	0.121506
H	0.4369465905623406 0.2413761912126948 0.4663386764889932	0.113151
H	0.4359971639535409 0.6173862676810069 -0.0337800309209290	0.111922
H	0.3604052854613307 0.5388354674018720 -0.0250125208492995	0.105593
H	0.2942706315361531 0.4608223903938116 -0.0267408411341283	0.086383
H	0.2157669513383829 0.3901513503102182 -0.0258358279269550	0.103447
H	0.1462384362380045 0.3339933785107537 -0.0243406474519714	0.119815
H	0.0624884318021501 0.2582072112317414 -0.0346396837779893	0.112385
H	0.9360671700120533 0.1173164728788619 -0.0337793167649278	0.112177
H	0.8604242815133336 0.0388085242185961 -0.0250066692347190	0.105583
H	0.7942589340665768 0.9608237636408141 -0.0267355614889503	0.086292
H	0.7157593936035405 0.8901483678865452 -0.0258376528165227	0.103513
H	0.6462005701460517 0.8340405938496521 -0.0243455445350390	0.119800
H	0.5624300210878087 0.7582733523043187 -0.0346460209770079	0.112400
H	0.4368622773513187 0.3829783686485659 0.0341943442273353	0.113110
H	0.3607918123432057 0.4615457339467619 0.0251199958262721	0.104630
H	0.2939955188359981 0.5383900850367696 0.0267652696757075	0.086548
H	0.2157118052087256 0.6093124141048197 0.0257723928915019	0.104227
H	0.1469733692833223 0.6668317335640523 0.0242153547040194	0.120816
H	0.0634930734635244 0.7422803484993798 0.0341182810409611	0.112493
H	0.9368706524499910 0.8829421363076650 0.0342424854787978	0.112984
H	0.8607697115076540 0.9615315620748611 0.0251275038558625	0.104373
H	0.7940042304897041 0.0383911952246871 0.0267616839355078	0.086499
H	0.7157240430607131 0.1093215346866013 0.0257746184682689	0.104093
H	0.6469944668476871 0.1668336485227438 0.0242228762204560	0.120791
H	0.5634853313920647 0.2422871048733868 0.0341515820215407	0.112496
H	0.5644319522897582 0.6182418094530165 0.5341146380633416	0.112948
H	0.6397805988375870 0.5388904237237778 0.5250642705087608	0.105480
H	0.7060337102468279 0.4610948729037706 0.5267219367652194	0.085581
H	0.7842745771602259 0.3902020519651514 0.5258247747908203	0.104357
H	0.8542742887986891 0.3346297360234183 0.5242343340134386	0.119915
H	0.9379932803431216 0.2595027048831129 0.5340371638502924	0.113356
H	0.0644401274628917 0.1182745254791249 0.5341490546008157	0.112797
H	0.1398120154567508 0.0389136291516967 0.5250826230700375	0.105354
H	0.2060038287016046 0.9610695746808152 0.5267231247041624	0.085704
H	0.2842552823872473 0.8901842474383267 0.5258277184686878	0.104378
H	0.3542712242838988 0.8346574894427552 0.5242441342446649	0.119793
H	0.4380071885961809 0.7595262144978789 0.5340711346173874	0.113249
Cu	0.4999258127874422 0.6887343204478735 0.7500232237958391	0.662968
Cu	-0.0000627884022931 0.1887320073827058 0.7500043004024751	0.663206
Cu	0.4999503336080700 0.3110121537036367 0.2499816453356672	0.662545
Cu	-0.0000426106207577 0.8110236721507423 0.2500311681230271	0.662534
F	0.4999441601300749 0.6864655302054605 0.4604397635348258	-0.622067
F	-0.0000655502774797 0.1865470050858689 0.4604124777753223	-0.622297
F	0.4994390081563091 0.3137173653908998 0.9605468894858561	-0.621527
F	-0.0004408878455840 0.8138992672635773 0.9604675622919562	-0.621297
F	0.4999053530691455 0.6864790401402242 0.0394430563073430	-0.622078
F	-0.0000497154007795 0.1865562076327947 0.0395590865051767	-0.622300
F	0.4994343506249045 0.3137080284057872 0.5395631839081346	-0.621574
F	-0.0004743326963742 0.8139272017236305 0.5393296036807640	-0.621160
F	0.4759456620858035 0.7711043149004011 0.2500006103018440	-0.613270
F	0.5746201728536031 0.6614148492442917 0.2498549878630015	-0.607657
F	0.9742061492703724 0.2706068703988174 0.2500069262166814	-0.613214
F	0.0752717724138592 0.1638848617719100 0.2500738274807255	-0.608871
F	0.5744315475448386 0.2925977399034034 0.7499981447312613	-0.612569
F	0.4761256064835176 0.4010492217234533 0.7500934124011264	-0.604321
F	0.0739958718514376 0.7899555507118271 0.7498246474273287	-0.611784
F	0.9786746682041849 0.9019287799926414 0.7499465292450870	-0.603976
F	0.4442114269496245 0.6204031599867746 0.2499270729881200	-0.601526
F	0.9455190112210421 0.1191497665822051 0.2499243276879216	-0.602988
F	0.4424776621554923 0.2514988323874071 0.7500462189708476	-0.611650
F	0.9411070580223521 0.7534587856789968 0.7498969783658888	-0.611363
N	0.4395561396196855 0.6203313593446529 0.7500037819237367	-0.212900
N	0.5605990301681140 0.7566385923857450 0.7499984540279578	-0.218615
N	0.9395936696734306 0.1202965457567734 0.7500033836538575	-0.213064
N	0.0606250090383027 0.2566178209228182 0.7500016096788885	-0.218630
N	0.5605578109528306 0.3792268074956186 0.2499975796920114	-0.212390
N	0.4392400659969661 0.2432540060954102 0.2500025631220121	-0.220113
N	0.0605377376689165 0.8792627850184249 0.2500046622840891	-0.212282
N	0.9392231297157505 0.7432904969510589 0.2500083047269046	-0.220112
N	0.5605647577985244 0.6204978673082152 0.7500062926079571	-0.212117
N	0.4395737705088742 0.7570048766862574 0.7500028010287303	-0.220122
N	0.0605703041551815 0.1204964847571516 0.7500030365832937	-0.211675
N	0.9395718808009170 0.2569816275460221 0.7500008571401522	-0.220733
N	0.4398668636910207 0.3797747833400821 0.2500004578123083	-0.212442
N	0.5609200292334801 0.2433783085591995 0.2500013294651210	-0.218600
N	0.9398543680537897 0.8797663744807160 0.2500037982968449	-0.211928
N	0.0609119957073827 0.7433806229062403 0.2500081848437116	-0.218714
Ga	0.4989387509006591 0.6850371864490653 0.2499511617087772	1.465892
Ga	-0.0009834748802637 0.1852398860883397 0.2499943244176883	1.468351
Ga	0.4983799615245449 0.3146658596904886 0.7500438245410690	1.469546
Ga	-0.0014112511617919 0.8148029044612720 0.7499195713139492	1.467631
	  	
