#======================================================================

# CRYSTAL DATA

#----------------------------------------------------------------------

data_VESTA_phase_1


_pd_phase_name                         GaFFIVE_2_Cd
_cell_length_a                         14.35851
_cell_length_b                         14.35796
_cell_length_c                         8.33594
_cell_angle_alpha                      91.31731
_cell_angle_beta                       88.66120
_cell_angle_gamma                      88.93311
_symmetry_space_group_name_H-M         P 1
_symmetry_Int_Tables_number            1

loop_
_symmetry_equiv_pos_as_xyz
   x, y, z

loop_
   _atom_site_label
   _atom_site_fract_x
   _atom_site_fract_y
   _atom_site_fract_z
   _atom_site_charge
C	0.5052099350272353 0.7151588850497269 0.1434333120081484	0.094718
C	0.5060251008026513 0.8119013224686693 0.1487717041177517	-0.166996
C	0.4753487761362215 0.2928795443438554 0.1376621000511892	0.098880
C	0.4734938335046548 0.1962454691730517 0.1427951104743629	-0.165365
C	0.2877345513845823 0.5216919486237533 0.1313649110441446	0.098026
C	0.1909965413342252 0.5219708120591455 0.1367271430568519	-0.167636
C	0.7120939661009951 0.4888642378473665 0.1339266380676014	0.093347
C	0.8088004403654626 0.4880709661396108 0.1384649343093870	-0.165046
C	0.4888505258177336 0.7120936045933868 0.8660836061402426	0.093395
C	0.4880332802424226 0.8087989480082086 0.8615343380295323	-0.164752
C	0.5217168407173880 0.2877231053767959 0.8685605716279420	0.098783
C	0.5219825509474999 0.1909843559714994 0.8632645078662906	-0.167949
C	0.7151822369919385 0.5051868824315707 0.8565623948483305	0.094324
C	0.8119235645636242 0.5060018672392642 0.8511806277076162	-0.166717
C	0.2928898323852887 0.4753492361825453 0.8622813576855363	0.098342
C	0.1962494780906899 0.4735310008060024 0.8572069234730955	-0.165203
C	0.4976557065208024 0.1430354698655221 0.0033651151554110	0.170372
C	0.4974591841706362 0.0444241789638360 0.0039730340099599	-0.097777
C	0.4972695488185801 0.8609093631479348 0.0052191102556706	0.167098
C	0.4974270250971758 0.9594853453965819 0.0051600337132837	-0.092678
C	0.8609209778700678 0.4972845335535322 -0.0052641660314163	0.167185
C	0.9595063859449109 0.4974491232878420 -0.0052039463157509	-0.092880
C	0.1430361890524319 0.4976780848938601 -0.0033356415988982	0.170046
C	0.0444223436139003 0.4974947160058993 -0.0039219353845798	-0.097565
H	0.5096476269077291 0.6749219702907676 0.2528899053299329	0.101813
H	0.5133363302072813 0.8492246015230959 0.2627710706231337	0.125352
H	0.4574480157452325 0.3363755085037511 0.2436718302500789	0.100821
H	0.4535533988008210 0.1620166686290271 0.2531971176529261	0.126570
H	0.3278124205596993 0.5390059184705781 0.2372795133406999	0.098429
H	0.1528041241235491 0.5406608642348187 0.2474663332704231	0.125595
H	0.6699887805662379 0.4824452870620078 0.2441143009550111	0.104485
H	0.8435845399878643 0.4800128183836558 0.2520946183472852	0.126777
H	0.4824365602954801 0.6699898586106398 0.7559229325604574	0.104398
H	0.4799614636966215 0.8435988630729544 0.7479101720642798	0.126684
H	0.5390328758711233 0.3278174526570354 0.7626298910164206	0.098172
H	0.5406878573424316 0.1527811502757908 0.7525696335860004	0.125647
H	0.6749649771105767 0.5096338341965728 0.7471141836393816	0.101932
H	0.8492582032541212 0.5132755843605926 0.7371568395164426	0.125284
H	0.3363513877903035 0.4574185784048270 0.7562254018902852	0.100943
H	0.1620035786576762 0.4536176253086562 0.7468351265868225	0.126568
Cd	0.5022831938405283 0.5022437302787770 0.0000199939001162	0.824530
Ga	0.5014526705438537 0.5014583445353964 0.5000557820785035	1.464135
F	0.5078319727393714 0.4956132000934583 0.7314022174408166	-0.565233
F	0.4954992213330300 0.5076364002322431 0.2687002522333250	-0.565340
F	0.4680662727359808 0.6256462947535474 0.5152046254995074	-0.585665
F	0.4116953687650617 0.4118619135727402 0.5003508340228986	-0.594896
F	0.6256874592229599 0.4682173351018352 0.4846710491035133	-0.585672
N	0.4993395965486683 0.3376981403350232 0.0030825097605453	-0.235629
N	0.4974044221654054 0.6662412928028536 0.0045045996768150	-0.237466
N	0.6662620345794958 0.4973943595309446 -0.0044793880802481	-0.237282
N	0.3377068971077596 0.4993094343489358 -0.0031730405770653	-0.234906
	  	
