#======================================================================

# CRYSTAL DATA

#----------------------------------------------------------------------

data_VESTA_phase_1


_pd_phase_name                         GaFFIVE_14_Fe_i
_cell_length_a                         13.41092
_cell_length_b                         13.40203
_cell_length_c                         7.99362
_cell_angle_alpha                      87.68378
_cell_angle_beta                       87.61385
_cell_angle_gamma                      90.11957
_symmetry_space_group_name_H-M         P 1
_symmetry_Int_Tables_number            1

loop_
_symmetry_equiv_pos_as_xyz
   x, y, z

loop_
   _atom_site_label
   _atom_site_fract_x
   _atom_site_fract_y
   _atom_site_fract_z
   _atom_site_charge
C	0.5716793539623914 0.2664942874880398 0.3667160890315601	-0.183466
C	0.4682171555406502 0.2702546606697919 0.3702091796834486	0.110700
C	0.9376715916510864 0.2887980733775324 0.4168971858501064	-0.177134
C	0.0407240832443746 0.2818665356282472 0.4007755808564470	0.111438
C	0.2651481484100488 0.5716990088722851 0.3685830735178076	-0.183939
C	0.2686008694511019 0.4681132518415853 0.3725099546062595	0.110287
C	0.2968155275098360 0.9377659249653887 0.4122428503890049	-0.177118
C	0.2890036009418381 0.0408584820420350 0.3972895350985977	0.108372
C	0.9299359709313578 0.2343034611709913 0.1335269588149088	-0.185320
C	0.0334240376827179 0.2305937715048481 0.1277046909021546	0.108881
C	0.5655030668633874 0.2084624356158559 0.0854096282499915	-0.171858
C	0.4624173120550874 0.2169965864867352 0.0980367468958152	0.101120
C	0.2098311385857916 0.5653830958975644 0.0857777669554257	-0.177057
C	0.2183528574434179 0.4622876342305501 0.0986720883753746	0.101999
C	0.2309708366403797 0.9296617060934445 0.1365236914663819	-0.185454
C	0.2270783577935286 0.0332060844411837 0.1311954765846059	0.108374
C	0.4301110598820698 0.7358992130871936 0.6339970462498993	-0.184638
C	0.5335387905853385 0.7326974802120374 0.6276686254916036	0.108100
C	0.0657189998642084 0.7288620658899084 0.5750281399045820	-0.169224
C	0.9624720616333328 0.7332809311212967 0.5904722676271920	0.099974
C	0.7361261434757325 0.4299329028018111 0.6333483051431712	-0.183929
C	0.7332968726887222 0.5334459039347664 0.6270267082580941	0.109288
C	0.7165084973802098 0.0652551317191934 0.5801860617854113	-0.169411
C	0.7228721307806415 0.9620178630589901 0.5941860088169558	0.101143
C	0.0712993086387048 0.7607265957358516 0.8695221540642394	-0.183390
C	0.9678018366521410 0.7623706911015067 0.8744385240221272	0.108465
C	0.4378480757275369 0.7792710553170267 0.9234461147663997	-0.169907
C	0.5409968992724991 0.7747298148437993 0.9057342372484321	0.110706
C	0.7800061540309458 0.4376216153101141 0.9224757117890431	-0.173348
C	0.7752366821853788 0.5407906378810451 0.9051018380545145	0.111063
C	0.7647967867551015 0.0712512414771781 0.8671251637765381	-0.181088
C	0.7677049706442257 0.9677401621443021 0.8711445961041940	0.110762
C	0.6220628767412516 0.2356358192286233 0.2200361840814068	0.192103
C	0.8803343304975491 0.2631587198056618 0.2822391675964825	0.191660
C	0.2357131817608305 0.6219772253426904 0.2211841336357739	0.193845
C	0.2658628308541303 0.8803102337017343 0.2810633059522643	0.192348
C	0.3805147560273008 0.7591564156905229 0.7860794466730080	0.189946
C	0.1220231218402608 0.7438858745228027 0.7156570247181380	0.191481
C	0.7594281287356192 0.3803029367038491 0.7851838396469778	0.190697
C	0.7390944096934493 0.1217553050736621 0.7173963171939591	0.190058
H	0.6125253229865704 0.2827170952061827 0.4773802477462001	0.107895
H	0.4262834503335036 0.2896759332624516 0.4837239520854673	0.091834
H	0.9017576759267317 0.3129818062788296 0.5327628400007813	0.124347
H	0.0875875195424733 0.3004143929940957 0.5032245256886257	0.090431
H	0.2803475666658490 0.6128946896412886 0.4794038737979815	0.110183
H	0.2864750902154014 0.4263620586654242 0.4869801919825683	0.092828
H	0.3259079827433126 0.9019273853900249 0.5245012456357806	0.124642
H	0.3116037312536931 0.0879325751510944 0.4972433754782709	0.092805
H	0.8881674233760838 0.2190772030573348 0.0234209927419032	0.107574
H	0.0744343268011836 0.2093244885520975 0.0138899667503911	0.092671
H	0.6019418195503585 0.1818641287955078 0.9717642415081188	0.123324
H	0.4171367100959815 0.1992009562312009 0.9929807485490475	0.099839
H	0.1845989223266489 0.6017470085595218 0.9712026052743152	0.124811
H	0.2019905833817613 0.4169737731918636 0.9928616331843729	0.099157
H	0.2114196235770624 0.8876723920248117 0.0288128572222383	0.110447
H	0.2017537565173633 0.0742335225602683 0.0201894559454863	0.092715
H	0.3886305337669970 0.7234651654448755 0.5222811861227736	0.103665
H	0.5745759953901547 0.7144688013153585 0.5123015682138214	0.092993
H	0.1023796586151424 0.7144586572185254 0.4547174919005774	0.121857
H	0.9175729402584888 0.7226207835263916 0.4820559816004810	0.097466
H	0.7239233970262392 0.3882348977579775 0.5217290194448969	0.104291
H	0.7154170237381166 0.5745393550384611 0.5116274218158023	0.092872
H	0.6946996786948534 0.1018033183846512 0.4635852537276183	0.122858
H	0.7075079937323426 0.9169249436530301 0.4877155493846160	0.098129
H	0.1117830189519272 0.7689517992190795 0.9836821910223198	0.103149
H	0.9259527273655493 0.7714708882756761 0.9924570510468719	0.093885
H	0.4018874251867102 0.7978717450114644 0.0424930706367229	0.122641
H	0.5876940725817333 0.7902453381547746 0.0097842193175619	0.089187
H	0.7989087026526404 0.4016091323220151 0.0412494933326595	0.124499
H	0.7905861897792463 0.5874810218188670 0.0093524294487160	0.088870
H	0.7784000321656133 0.1119419531550157 0.9792897405442222	0.104565
H	0.7837529624043164 0.9258500509725788 0.9863126821122727	0.093392
N	0.7760801352510471 0.2736501595648915 0.3024379630710942	-0.118325
N	0.2777871254759720 0.7759784299599299 0.2987301437590701	-0.119456
N	0.7263268898518545 0.2248737004450928 0.2010901522795315	-0.113701
N	0.2243416214776894 0.7262373549580573 0.2041142422985071	-0.113406
N	0.2262921408144839 0.7371264902480674 0.6911864581591235	-0.111277
N	0.7302829480131673 0.2260869525838721 0.6950693201493316	-0.111225
N	0.2761929273574323 0.7667481980404416 0.8114338325502749	-0.116070
N	0.7678941045472647 0.2759478912129156 0.8088150626558080	-0.116789
N	0.4137833351632385 0.2476110806697749 0.2381578340709677	-0.250986
N	0.0886500909087600 0.2529942850320191 0.2589970631347641	-0.248984
N	0.2473098748697594 0.4136417218100453 0.2397717584819339	-0.251908
N	0.2545188444828409 0.0885114311194390 0.2594300588142516	-0.247387
N	0.5888487034968970 0.7515900891513938 0.7607378918858839	-0.248245
N	0.9134862998617437 0.7498320225669624 0.7377332304694270	-0.251638
N	0.7522279632625487 0.5887123718220493 0.7601819088088497	-0.249328
N	0.7481931057592860 0.9132921730879596 0.7372996893383222	-0.251932
F	0.3730321787309550 0.1982863604954070 0.7390529680485215	-0.558101
F	0.2077311487147698 0.3742227419934768 0.7393377977412590	-0.557480
F	0.1462982320984355 0.1514334931212279 0.7695830519938798	-0.564696
F	0.7022245423511326 0.8742846176045754 0.2397851950119887	-0.552238
F	0.8734569292209664 0.7040285968563813 0.2403025188892114	-0.547841
F	0.6491429352027352 0.6491532911512767 0.2663686524750935	-0.560991
F	0.2503403135373348 0.2491328503162479 0.4998089396185642	-0.533363
F	0.2505552293297960 0.2492938328925655 -0.0030341847877375	-0.532408
F	0.7490439081778562 0.7498771841885200 0.4966670741110806	-0.530534
F	0.7506225204495963 0.7508230656860432 -0.0002296982979878	-0.531520
Ga	0.2454438153485915 0.2439453933496117 0.7491616966134097	1.454378
Ga	0.7444317216046142 0.7455297778385956 0.2494203834635007	1.449956
Fe	0.2511481596911248 0.2509039437533030 0.2480981231373972	0.869688
Fe	0.7511059832898804 0.7509422526174390 0.7481322759129037	0.879459
	  	
