#======================================================================

# CRYSTAL DATA

#----------------------------------------------------------------------

data_VESTA_phase_1


_pd_phase_name                         GaFFIVE_16_Zn_i
_cell_length_a                         25.16026
_cell_length_b                         25.16027
_cell_length_c                         7.82877
_cell_angle_alpha                      89.99804
_cell_angle_beta                       90.00153
_cell_angle_gamma                      90.01273
_symmetry_space_group_name_H-M         P 1
_symmetry_Int_Tables_number            1

loop_
_symmetry_equiv_pos_as_xyz
   x, y, z

loop_
   _atom_site_label
   _atom_site_fract_x
   _atom_site_fract_y
   _atom_site_fract_z
   _atom_site_charge
C	0.4781168822617656 0.3868853244359325 0.3696496615301420	0.098441
C	0.4772101969343606 0.3316891522719547 0.3649755786048965	-0.171822
C	0.9550661293929480 0.6130369719784882 0.9434882148316608	-0.125668
C	0.9552196800371977 0.5578303810175523 0.9442138245910925	-0.124048
C	0.5218505422477435 0.6134513506238928 0.3683721942830465	0.104455
C	0.5229715316454503 0.6685938029830854 0.3636626095318902	-0.173252
C	0.0449432705526648 0.3871135664507612 0.9434287203600867	-0.126725
C	0.0447740013328897 0.4423067439071763 0.9441278384517227	-0.123920
C	0.6133593608759944 0.4781153694063546 0.3706057835162059	0.097683
C	0.6685177471835005 0.4770953754469658 0.3658913732968007	-0.172222
C	0.3870875262587133 0.9550556041544260 0.9434729046917022	-0.126159
C	0.4422808012745572 0.9552204507415644 0.9442201866026061	-0.123775
C	0.3869059948264437 0.5218572883624194 0.3692727730632143	0.101631
C	0.3317342879650548 0.5228301155188280 0.3640216666904914	-0.174244
C	0.6130448966267650 0.0449471188452635 0.9434443340453110	-0.125884
C	0.5578384513870485 0.0447714011181206 0.9441889645538417	-0.124213
C	0.5218573745023656 0.3869059347671316 0.6307290946103516	0.101650
C	0.5228308096696065 0.3317350354900699 0.6359787773153412	-0.174172
C	0.0449468351709678 0.6130448146699704 0.0565541907651466	-0.125892
C	0.0447712643575429 0.5578383432538910 0.0558097318206444	-0.124252
C	0.4781156258598336 0.6133598839950256 0.6293984059160370	0.097844
C	0.4770949831419539 0.6685182705500402 0.6341098920565049	-0.172253
C	0.9550555741597259 0.3870868121133793 0.0565267904589252	-0.126130
C	0.9552204610735837 0.4422801516193632 0.0557795331270604	-0.123822
C	0.3868847779852931 0.4781159081708726 0.6303526488810165	0.098405
C	0.3316884012209383 0.4772093997272372 0.6350260218281386	-0.171846
C	0.6130367281991941 0.9550656996533163 0.0565110023195681	-0.125678
C	0.5578302280111530 0.9552193000311243 0.0557853932609007	-0.124042
C	0.6134515816295154 0.5218507086870452 0.6316325219180290	0.104425
C	0.6685939110512896 0.5229712730125075 0.6363362747545628	-0.173204
C	0.3871141298111708 0.0449430586549215 0.0565705213363223	-0.126726
C	0.4423072475491450 0.0447737539988593 0.0558717194335684	-0.123907
C	0.5449385498508517 0.8871099382837067 0.5565623819294516	-0.126302
C	0.5447817318039081 0.9423051159557156 0.5558838157409629	-0.124175
C	0.0218565112352291 0.1134450456939586 0.1316118572326298	0.104619
C	0.0229513774661634 0.1685922329620820 0.1363881044103654	-0.173286
C	0.4550725866816201 0.1130424344866927 0.5565065282176681	-0.125899
C	0.4552129735153993 0.0578332814648812 0.5557924672573612	-0.124143
C	0.9781148105832596 0.8868935390830824 0.1303801629292327	0.098610
C	0.9772056140133308 0.8316880174135376 0.1350749536079510	-0.171916
C	0.1130511002788567 0.5449392496952159 0.5565435478130636	-0.125938
C	0.0578432813294722 0.5447783880586278 0.5558170417045525	-0.124213
C	0.8869088658095338 0.0218584273711858 0.1307688728949721	0.101769
C	0.8317314430446051 0.0228293037450336 0.1359950594803723	-0.174327
C	0.8870845634311170 0.4550607401778953 0.5565212540410687	-0.125976
C	0.9422795419305304 0.4552150420518656 0.5557824930275721	-0.123837
C	0.1133523001418083 0.9781061623335673 0.1294200718159027	0.097573
C	0.1685141924342219 0.9771050050279032 0.1342066182134890	-0.172265
C	0.4550611576597874 0.8870847335787412 0.4434780854122633	-0.125961
C	0.4552152305234700 0.9422796401855316 0.4442173527926600	-0.123844
C	0.9781068852027616 0.1133521383158438 0.8705787329880718	0.097538
C	0.9771052828135434 0.1685139561920575 0.8657918455780121	-0.172182
C	0.5449393868800726 0.1130512933623219 0.4434555526324737	-0.125926
C	0.5447784918029518 0.0578433094351970 0.4441819009718722	-0.124223
C	0.0218584692277900 0.8869091507221670 0.8692320148643616	0.101799
C	0.0228291339675332 0.8317322646996766 0.8640058059867181	-0.174307
C	0.8871098651189867 0.5449382131979817 0.4434365003592262	-0.126263
C	0.9423050458273420 0.5447816593124329 0.4441156855324408	-0.124150
C	0.1134456997950545 0.0218563739093416 0.8683869317031382	0.104476
C	0.1685925340584899 0.0229515967175203 0.8636099142554816	-0.173131
C	0.1130427573060933 0.4550727761671796 0.4434934658083889	-0.125880
C	0.0578335921687447 0.4552133672665866 0.4442072025927802	-0.124136
C	0.8868940534971330 0.9781146577055669 0.8696225180397018	0.098498
C	0.8316885023058427 0.9772058578306320 0.8649273904187208	-0.171849
C	0.4999830306848448 0.3028272714721774 0.5006212264794149	0.174864
C	0.4999983064087439 0.2464507875805747 0.5005428969393637	-0.116154
C	0.5000286148294121 0.1979697529342420 0.5002306871478157	-0.095919
C	0.5000153247240153 0.1416029601361359 0.5000222910506943	0.125112
C	0.4999959395749369 0.0293035959820285 0.5000056621369380	0.066473
C	-0.0000219933575502 0.8028134470341532 -0.0005907888040784	0.174933
C	0.0000005488281530 0.7464217670265703 -0.0005551838844776	-0.117126
C	0.0000293263849400 0.6979394454118204 -0.0002198382639276	-0.094968
C	0.0000146928860257 0.6415802584711912 -0.0000176040455324	0.124703
C	-0.0000041483142330 0.5292970184132273 -0.0000051150851959	0.066345
C	0.4999812108492413 0.6974190917038275 0.4988116056457343	0.173627
C	0.5000124074774570 0.7537750772712257 0.4991829257888946	-0.114766
C	0.5000265483266596 0.8022496580827585 0.4996426383292746	-0.096767
C	0.5000110446595104 0.8585769490856239 0.4999558455266775	0.125254
C	0.4999955992565374 0.9708131541648920 0.5000397893794764	0.065875
C	-0.0000195708668268 0.1974272921055539 0.0011432531222730	0.173493
C	0.0000136760381510 0.2537992780346602 0.0008164979131298	-0.114464
C	0.0000277501874194 0.3022682050825523 0.0003437428268899	-0.097133
C	0.0000100412295966 0.3585924276052629 0.0000379407702777	0.125678
C	-0.0000047579789773 0.4708176535991600 -0.0000353892266382	0.065946
C	0.6974190412541040 0.4999813151127790 0.5011876735055922	0.173603
C	0.7537749913396232 0.5000122177556904 0.5008141284995720	-0.114724
C	0.8022502825269943 0.5000264592075736 0.5003543019590797	-0.096797
C	0.8585769331817256 0.5000105466741794 0.5000423079051662	0.125260
C	0.9708131888986627 0.4999955491996331 0.4999599688301896	0.065894
C	0.1974277499037259 -0.0000193441715686 -0.0011456039522611	0.173470
C	0.2538002505816846 0.0000137835281421 -0.0008184934548789	-0.114471
C	0.3022685862908198 0.0000278512580609 -0.0003454049543079	-0.097141
C	0.3585932241058614 0.0000100444819897 -0.0000387170998440	0.125752
C	0.4708182387467885 -0.0000049595925906 0.0000348132994671	0.065945
C	0.3028271959154297 0.4999820979444264 0.4993795817829372	0.174946
C	0.2464510295428315 0.4999975964320598 0.4994569826737586	-0.116221
C	0.1979697299973328 0.5000283998211192 0.4997693040386071	-0.095836
C	0.1416029589204036 0.5000154545462741 0.4999772989387047	0.125047
C	0.0293037752632201 0.4999958864867263 0.4999938352968956	0.066396
C	0.8028132734245125 -0.0000218310369649 0.0005920510141741	0.174845
C	0.7464212712054381 0.0000005925443159 0.0005556811111601	-0.116923
C	0.6979395470079178 0.0000292634103117 0.0002196672579434	-0.095033
C	0.6415802063460827 0.0000145812311549 0.0000163584990077	0.124687
C	0.5292972634343954 -0.0000042556270040 0.0000039850314354	0.066286
H	0.4616165127314054 0.4104551042510806 0.2650860683270251	0.102428
H	0.4592300925089214 0.3111512713745386 0.2570238471025017	0.124548
H	0.9203599844268259 0.6347900619748590 0.8979465079065911	0.111448
H	0.9206072648132361 0.5363213308733873 0.8965790916971098	0.105882
H	0.5381942672853656 0.5897910883764036 0.2643054380049744	0.097038
H	0.5409971401491844 0.6891843045306976 0.2559081660072390	0.123906
H	0.0796345992216503 0.3653269473511212 0.8979441916254010	0.111178
H	0.0793879439475820 0.4638177209011906 0.8965722014211168	0.105779
H	0.5898193298703011 0.4622726153990588 0.2652134549581216	0.104418
H	0.6889804995150592 0.4592615263123315 0.2575262680347427	0.124936
H	0.3652808189204989 0.9203717619331885 0.8979603366793295	0.111536
H	0.4637699628116819 0.9206100193192177 0.8966134092639859	0.105850
H	0.4107312213261745 0.5388075515162809 0.2661457468090019	0.096273
H	0.3112040075605991 0.5409152545358912 0.2563117853963887	0.124400
H	0.6347992542202328 0.0796644844864055 0.8979154483681796	0.111095
H	0.5363291561532892 0.0793800912878599 0.8965820161290050	0.105660
H	0.5388071166124031 0.4107302198756106 0.7338561587905572	0.096253
H	0.5409156020973250 0.3112030434675656 0.7436882148506803	0.124392
H	0.0796640319071952 0.6347988365166178 0.1020835998278925	0.111121
H	0.0793798530760685 0.5363290594155998 0.1034170617222759	0.105667
H	0.4622714404281507 0.5898198486983750 0.7347915370701844	0.104394
H	0.4592601395070899 0.6889812009078579 0.7424728560701417	0.124916
H	0.9203715929504563 0.3652801889899515 0.1020392638262744	0.111586
H	0.9206099119429881 0.4637691850257679 0.1033862912637661	0.105847
H	0.4104544243171727 0.4616149058946690 0.7349148788003068	0.102466
H	0.3111501200227995 0.4592286320087279 0.7429766233339726	0.124561
H	0.6347900154974373 0.9203595238141046 0.1020529851597779	0.111427
H	0.5363209409217570 0.9206067957942631 0.1034200850222763	0.105886
H	0.5897920335728533 0.5381930359769616 0.7356988156686960	0.097029
H	0.6891846203528372 0.5409972827365547 0.7440915878888995	0.123881
H	0.3653272224125803 0.0796343051684513 0.1020550191693654	0.111209
H	0.4638181966658438 0.0793874851319428 0.1034271256307004	0.105765
H	0.5796288957904620 0.8653335038447204 0.6020472931749695	0.111117
H	0.5793934541180020 0.9638280755931804 0.6034388517294297	0.105807
H	0.0381588653542401 0.0897635583676459 0.2357083458435005	0.096873
H	0.0409998092750810 0.1891847924439658 0.2441069928402484	0.123863
H	0.4203686137907499 0.1347826000525664 0.6020429511939170	0.111444
H	0.4206005696245641 0.0363094184118875 0.6034300365233879	0.105947
H	0.9616138452805197 0.9104825702269028 0.2349625871565138	0.102331
H	0.9592315715350676 0.8111333336732697 0.2430344968340830	0.124500
H	0.1347934309925345 0.5796544969504798 0.6020695124805917	0.111026
H	0.0363200239372730 0.5793867955165536 0.6034250888929127	0.105726
H	0.9107565531727059 0.0387944555968362 0.2338912548326339	0.096035
H	0.8111974949725367 0.0409124168951351 0.2437291923100947	0.124386
H	0.8652890230264875 0.4203792596879828 0.6020300726976623	0.111512
H	0.9637803741101030 0.4206063750238019 0.6033926797389473	0.105922
H	0.0897938410954864 0.9622939302707464 0.2348660223782177	0.104485
H	0.1890022245109457 0.9592632796691241 0.2425249406055395	0.124837
H	0.4203795657387980 0.8652890981090692 0.3979703935735993	0.111528
H	0.4206065026500377 0.9637805157762214 0.3966076281873915	0.105942
H	0.9622943144499132 0.0897937668677687 0.7651331669868225	0.104491
H	0.9592637734982764 0.1890020755014612 0.7574730367890623	0.124825
H	0.5796548009202906 0.1347936784146443 0.3979297553122625	0.111007
H	0.5793869771116393 0.0363200140251119 0.3965741881906793	0.105723
H	0.0387940561766133 0.9107573557253237 0.7661100035828653	0.096026
H	0.0409122130679497 0.8111984670090725 0.7562699868990658	0.124393
H	0.8653337232575985 0.5796286647274554 0.3979512005753357	0.111084
H	0.9638280173334901 0.5793934805342904 0.3965599536043206	0.105796
H	0.0897641244907576 0.0381591847386791 0.7642903493983819	0.096868
H	0.1891854229647755 0.0410004279044744 0.7558903972759046	0.123840
H	0.1347828206071860 0.4203691306531198 0.3979574537869272	0.111492
H	0.0363099567679294 0.4206010173401307 0.3965698482747199	0.105945
H	0.9104832214979135 0.9616138455348914 0.7650411236660213	0.102354
H	0.8111340871443227 0.9592316851717818 0.7569669000186924	0.124486
Zn	0.5002027369700943 0.5002029930589108 0.5000031465943757	0.736894
Zn	0.0001974083067011 0.0001974271733856 0.0000021647027466	0.737382
Ga	0.4989654473376374 0.4989679204406551 0.0000038907869218	1.466211
Ga	-0.0010581173899375 -0.0010569110338988 0.4999971759548547	1.465453
F	0.5017771236839579 0.4981822233489334 0.2435808198483690	-0.543297
F	-0.0018429759327638 0.0017322845567009 0.7439279327495784	-0.543391
F	0.4981911853716255 0.5017767713730370 0.7564297040476229	-0.543300
F	0.0017393237201407 -0.0018348660949559 0.2560647364545811	-0.543391
F	0.4472399768254313 0.4472128261790274 -0.0000019718225178	-0.591593
F	0.9472330605300538 0.9472340601741612 0.4999855653954097	-0.590843
F	0.4785798519573968 0.5692317838036955 0.0074259910840196	-0.593906
F	0.9785738141100125 0.0691743343511677 0.4925800345035349	-0.593191
F	0.5692425073797208 0.4786361536926571 0.9926001569994308	-0.593894
F	0.0691738628480180 0.9785767858268198 0.5074022036873876	-0.593197
N	0.4999625830700200 0.4140371223863112 0.5003522487703537	-0.224679
N	-0.0000347983559261 0.9140344684277506 -0.0003622219668630	-0.224718
N	0.4999458713288737 0.5862426830006832 0.4986269822229084	-0.228274
N	-0.0000462579690134 0.0862425928729318 0.0013496174067743	-0.228345
N	0.5862424829894279 0.4999450910496884 0.5013776576628832	-0.228158
N	0.0862427582111341 -0.0000468178343350 -0.0013515134231606	-0.228297
N	0.4140369127869370 0.4999624664500371 0.4996501753434481	-0.224662
N	0.9140345385917675 -0.0000350497733880 0.0003656511869792	-0.224614
	  	
