#======================================================================

# CRYSTAL DATA

#----------------------------------------------------------------------

data_VESTA_phase_1


_pd_phase_name                         GaFFIVE_7_Cd
_cell_length_a                         19.87118
_cell_length_b                         19.86693
_cell_length_c                         8.31907
_cell_angle_alpha                      88.75239
_cell_angle_beta                       91.24580
_cell_angle_gamma                      90.02513
_symmetry_space_group_name_H-M         P 1
_symmetry_Int_Tables_number            1

loop_
_symmetry_equiv_pos_as_xyz
   x, y, z

loop_
   _atom_site_label
   _atom_site_fract_x
   _atom_site_fract_y
   _atom_site_fract_z
   _atom_site_charge
C	0.6549248934994790 0.8690699887752659 0.7040304497711832	0.096368
C	0.6048012185066604 0.9180020419366395 0.7055551774944457	-0.175848
C	0.5839764808459950 0.8993626266001006 0.4247371552874243	-0.172998
C	0.6349273014689517 0.8516327475649856 0.4319995856922560	0.093539
C	0.8497177701997873 0.6295540487583838 0.6978808575743730	0.098332
C	0.8990638753237653 0.5798965809834064 0.7008049928692753	-0.180535
C	0.9161022861626427 0.6038758754817946 0.4206812404001148	-0.171551
C	0.8660492475534398 0.6524847388353567 0.4267413098748202	0.095176
C	0.6332049915252862 0.6481757792522379 0.7030634929589896	0.094197
C	0.5837967839112309 0.5984622224401568 0.7047236039467982	-0.176531
C	0.5981077204091368 0.5867671983158980 0.4210929857055503	-0.171972
C	0.6464591286659183 0.6371268008452521 0.4279227618006331	0.090676
C	0.8729861094971239 0.8425222507436119 0.6979578676225091	0.101435
C	0.9222132285454244 0.8923083969752020 0.7009534481040807	-0.178035
C	0.8932462061479916 0.9192454355207368 0.4253864555879744	-0.173759
C	0.8450795445734620 0.8686864320393209 0.4318615272048212	0.099056
C	0.3425193945742047 0.3729892844245568 0.3020071718775592	0.101983
C	0.3923082045040991 0.4222152008180202 0.2989858469368826	-0.178306
C	0.4192476526437742 0.3932439695436916 0.5745545143693378	-0.173233
C	0.3686868701132418 0.3450802605156985 0.5681063732461457	0.098740
C	0.1482023452485893 0.1332097911486989 0.2969647585932868	0.094570
C	0.0984764191918782 0.0838150225505229 0.2952612912623516	-0.176834
C	0.0867658987068352 0.0981060924585000 0.5788927436358092	-0.171395
C	0.1371351522333915 0.1464452548557786 0.5721054858997486	0.090545
C	0.3690592404146841 0.1549376866220211 0.2959954407508831	0.097140
C	0.4179842206633410 0.1048085060011093 0.2944338754515783	-0.175904
C	0.3993556464274413 0.0839502594921616 0.5752606893178555	-0.172622
C	0.3516288475338157 0.1349035694681274 0.5680165918360554	0.093741
C	0.1295804369619392 0.3497384203213156 0.3020834350270052	0.098122
C	0.0799141879932123 0.3990788370544633 0.2991632822353549	-0.180485
C	0.1038625952690209 0.4161215611675230 0.5792723813532286	-0.171186
C	0.1524713406356034 0.3660681183875557 0.5732234969387385	0.095032
C	0.4346651521043491 0.0680233083342044 0.4362278084491029	0.137660
C	0.4865657858416650 0.0162174871309529 0.4343898728362157	-0.118857
C	0.0654675604411408 0.4335686191138792 0.4402660701429502	0.139819
C	0.0132036405293252 0.4851866460333011 0.4354409104539681	-0.118987
C	0.4318636470292325 0.4340264486407240 0.4379574860161088	0.141380
C	0.4832863918474632 0.4864550948659457 0.4346775608220698	-0.121774
C	0.0663955345790952 0.0647948959210853 0.4383272354062479	0.136226
C	0.0143872418525666 0.0130041386027244 0.4350432409099589	-0.116624
C	0.5647876489562925 0.5663922101693661 0.5616339258835781	0.136579
C	0.5129967442373995 0.5143849351469149 0.5648937907853432	-0.116231
C	0.9340287849456647 0.9318628339501789 0.5619694707691736	0.141267
C	0.9864543218709907 0.9832879174632227 0.5652420455093878	-0.121045
C	0.5680315265137849 0.9346776384447362 0.5637566133042851	0.137803
C	0.5162198174644675 0.9865727567772125 0.5655795856167884	-0.118434
C	0.9335513523960091 0.5654725883505373 0.5596908659325656	0.140054
C	0.9851746678504962 0.5132116733028187 0.5645008547532624	-0.119446
H	0.6839547802486260 0.8554747321966868 0.8133840870050943	0.103653
H	0.5947452861159426 0.9433470796629269 0.8176318652689125	0.114470
H	0.5566878009584205 0.9082712776577517 0.3112507660238397	0.114425
H	0.6496662285988577 0.8245790172663843 0.3255396703278570	0.096974
H	0.8228457371315463 0.6424909378328941 0.8061165122331840	0.096945
H	0.9106664732209331 0.5522379155553403 0.8127528894520395	0.113096
H	0.9417314817963580 0.5972480692526005 0.3075884318281159	0.116991
H	0.8517630475240417 0.6827392844657911 0.3199444302905908	0.101491
H	0.6494521663599236 0.6726979506620198 0.8138761904203365	0.102928
H	0.5601441716452824 0.5848439961520645 0.8180655421927989	0.114406
H	0.5874405004922342 0.5635575968969383 0.3058302661164666	0.116270
H	0.6719169326479614 0.6545227999501010 0.3195180784327519	0.102683
H	0.8628579131556816 0.8109008543498251 0.8038166963604274	0.097250
H	0.9517898725642518 0.9000687888364060 0.8110549882225598	0.114090
H	0.8979613619596755 0.9491891834613227 0.3148681810336807	0.115809
H	0.8128122008887797 0.8574141327299003 0.3279826108730078	0.096280
H	0.3108963355942003 0.3628617712242563 0.1961612278262042	0.097064
H	0.4000669789631962 0.4517936020910665 0.1888745427870365	0.114084
H	0.4491893198011465 0.3979547490464402 0.6850688228823423	0.115562
H	0.3574133282601269 0.3128095149815013 0.6719882119482052	0.096431
H	0.1727447249793967 0.1494546510266088 0.1861785076314649	0.103010
H	0.0848645183126996 0.0601700569429170 0.1818994816048480	0.114567
H	0.0635493903281576 0.0874309524814490 0.6941382656686339	0.116093
H	0.1545414421803283 0.1718853010804236 0.6805306597121605	0.102574
H	0.3554602965146856 0.1839948046144105 0.1866765837514717	0.103488
H	0.4433262696885281 0.0947642155673736 0.1823494165913595	0.114471
H	0.4082683730631813 0.0566526337323545 0.6887462886093089	0.114292
H	0.3245683898653674 0.1496284490448506 0.6744670141516923	0.096940
H	0.1425347151790382 0.3228753031366213 0.1938348380180787	0.096967
H	0.0522679690907789 0.4106789371518343 0.1872078556535584	0.113044
H	0.0972190348710436 0.4417492569892238 0.6923669562287205	0.116917
H	0.1827052868368522 0.3517760591915871 0.6800282021013269	0.101501
H	0.5030075473480646 0.0026178938602743 0.3146651921087855	0.099514
H	0.9952597370638588 0.5003636447767978 0.3146162052665774	0.099625
H	0.4964744683886970 0.5047527265955969 0.3143390194617723	0.100624
H	-0.0012768523916528 0.9968531473126955 0.3149295426816948	0.099193
H	0.4968377894614976 0.4987112667639641 0.6849929365021794	0.099064
H	0.0047466462762122 0.9964752242302262 0.6855846069682074	0.100329
H	0.5026127460266957 0.0030223752646219 0.6852975968752825	0.099455
H	0.0003559815840622 0.4952637477480878 0.6853293738159405	0.099712
Cd	0.2487714413880553 0.2493909992884834 0.4326973655825959	0.823788
Cd	0.7493906258917491 0.7487584339776332 0.5674569507232198	0.823712
Ga	0.2494753745348707 0.2504158293266907 0.9337469468171427	1.466857
Ga	0.7503895179341259 0.7494471613474771 0.0664092920131264	1.467166
F	0.2468082949992872 0.2535134027570689 0.1648868576232932	-0.565259
F	0.2518154300814941 0.2466852299841986 0.7017772024853413	-0.564506
F	0.7536072642446563 0.7467510182880344 0.8352177546781667	-0.565470
F	0.7465817204115137 0.7518240147308020 0.2984537361132430	-0.564359
F	0.1830912009472105 0.1857835836965145 0.9346181246762922	-0.588661
F	0.2264531421463041 0.3399950367235923 0.9215317957461014	-0.594892
F	0.3385514853847422 0.2253347347443203 0.9441863539775655	-0.594469
F	0.7249977054732524 0.8384234388692708 0.0558043834982545	-0.594432
F	0.8399905432591201 0.7266647123728407 0.0788378997965317	-0.594845
F	0.6860128029118383 0.6828150008863803 0.0655038045984630	-0.588532
N	0.3363995010690173 0.1696688128852377 0.4309790736210496	-0.237411
N	0.1650973039192657 0.3332802655086392 0.4367340154562154	-0.236387
N	0.3308604256530380 0.3350901293893458 0.4343885761354419	-0.234807
N	0.1672652615586890 0.1638872202163534 0.4333590763503921	-0.239429
N	0.6638943564442530 0.6672442612249936 0.5666964319460083	-0.239287
N	0.8350874023926930 0.8308598624909610 0.5655915374369566	-0.234674
N	0.6696702315555091 0.8364043742055390 0.5690628360702542	-0.236698
N	0.8332632497933465 0.6650840831556115 0.5632394075077521	-0.236533
	  	
