#======================================================================

# CRYSTAL DATA

#----------------------------------------------------------------------

data_VESTA_phase_1


_pd_phase_name                         GaFFIVE_18_Fe
_cell_length_a                         14.25590
_cell_length_b                         14.05757
_cell_length_c                         7.92572
_cell_angle_alpha                      90.25394
_cell_angle_beta                       95.53310
_cell_angle_gamma                      90.15885
_symmetry_space_group_name_H-M         P 1
_symmetry_Int_Tables_number            1

loop_
_symmetry_equiv_pos_as_xyz
   x, y, z

loop_
   _atom_site_label
   _atom_site_fract_x
   _atom_site_fract_y
   _atom_site_fract_z
   _atom_site_charge
F	0.4986832003315746 0.3469466212398150 0.5008719561998045	-0.559816
F	0.5199974595599665 0.4932373139762353 0.7425063357736484	-0.528762
F	0.3781035900824464 0.5234811585593301 0.5122387652454806	-0.533373
F	0.9989900504384325 0.8470304932036911 0.5017258168408809	-0.562498
F	0.0203553864043897 0.9934662502210644 0.7428502038201770	-0.528837
F	0.8785952268590909 0.0239491029167465 0.5127324305931942	-0.532889
F	0.6193010231001572 0.5256238858280712 0.4886868926834482	-0.533378
F	0.4786697055609850 0.4924366559084109 0.2585129055984274	-0.529455
F	0.1196098025640036 0.0253266209803591 0.4891694285895976	-0.533233
F	0.9785244951171675 -0.0079666652682244 0.2590175830771404	-0.529408
C	0.6804684606136046 0.1601653784709635 0.6563942069338354	-0.421267
C	0.7528340368816467 0.1543011307719531 0.8041598531215179	0.197298
C	0.7574441763381606 0.1982020121804208 0.9635074936720844	-0.153542
C	0.6880057217405863 0.2620571417329187 0.0263485720063449	-0.144635
C	0.6734870399280798 0.3595687792805100 0.9868678668420265	0.218523
C	0.7265688644608813 0.4202138771833717 0.8745643962467026	-0.426462
C	0.8849244942622058 0.1961299723442357 0.2231545653625864	-0.431271
C	0.8443279480495496 0.1687114244450996 0.0494658629611510	0.214678
C	0.6218392012516112 0.2396357885634263 0.1397958877741506	0.203178
C	0.5995771257564860 0.1475053680749056 0.2192583783866799	-0.425905
C	0.1803634568813624 0.6601564597058942 0.6563427117579884	-0.420162
C	0.2528395584501456 0.6543706175545438 0.8039860105998310	0.196893
C	0.2575338086930107 0.6983296179851700 0.9633018484608084	-0.153719
C	0.1881115737512111 0.7621397421669345 0.0263514723170684	-0.144874
C	0.1735843515607351 0.8597234390623033 0.9871747719968437	0.218211
C	0.2265164533564734 0.9204890044734222 0.8747784507415335	-0.425816
C	0.3848637407028540 0.6963713903422228 0.2230293638672944	-0.430682
C	0.3443977254195874 0.6688566231926837 0.0492470572307663	0.214812
C	0.1220562727742933 0.7397008327954022 0.1400622581633519	0.203289
C	0.0998082410818306 0.6475164599567361 0.2193606379643503	-0.425883
C	0.3206403513792342 0.1644816857230111 0.3442594097649725	-0.422233
C	0.2474700684356772 0.1566914048033881 0.1978817864963071	0.199225
C	0.2428809031953760 0.1982673080892769 0.0371958825763647	-0.153487
C	0.3129455570974249 0.2607239787595029 0.9725249345821048	-0.144999
C	0.3276141751922060 0.3585130732082545 0.0118154286980079	0.217842
C	0.2729192045653644 0.4191665974304300 0.1220033916717705	-0.428649
C	0.1141784029511789 0.1970604791143406 0.7807628343508937	-0.430421
C	0.1548732501799532 0.1695659750481220 0.9537418091843446	0.215736
C	0.3788978928142371 0.2377935437157498 0.8588916121370951	0.203016
C	0.4009906025540462 0.1460228916123949 0.7768742428031442	-0.426341
C	0.8208499064391002 0.6644228996440453 0.3441318866000845	-0.423090
C	0.7475529527566372 0.6565731075679480 0.1979156237830393	0.199393
C	0.7430039041321553 0.6981902709126874 0.0372552879663486	-0.154254
C	0.8130979439566051 0.7606579451734101 0.9727863636620080	-0.144602
C	0.8278339263597277 0.8584112082996765 0.0123275130835420	0.217927
C	0.7731359584261845 0.9190907791216726 0.1223780472716628	-0.429359
C	0.6143338328189903 0.6970932928399748 0.7808026948009326	-0.431083
C	0.6549853497579119 0.6695165724335530 0.9538191176834780	0.215823
C	0.8790432048771224 0.7377878121851124 0.8591143470952857	0.203667
C	0.9010009236020010 0.6461080968919735 0.7768273011352882	-0.426788
H	0.7120660242665449 0.1823644255338313 0.5417414372283099	0.144256
H	0.6265149109885241 0.2124609278606822 0.6815648337478039	0.137676
H	0.6456160379611655 0.0911217168523859 0.6284122670260893	0.133172
H	0.6801513240922530 0.4495474405771024 0.7690180456084925	0.142717
H	0.7817214424591372 0.3780388442223565 0.8225225268090423	0.132642
H	0.7598458815068024 0.4807579873542183 0.9457590234648180	0.131715
H	0.8539863914884915 0.0642910744023732 0.7008460069481418	0.275125
H	0.8729781806333485 0.1406254161117332 0.3158719206789435	0.138313
H	0.8518449813279655 0.2621239625271780 0.2619380954977275	0.129831
H	0.9613169901381066 0.2072293098007781 0.2261875477801588	0.138954
H	0.5667786154566501 0.1588251796434142 0.3373562129337791	0.140179
H	0.6636270781949225 0.1050289853345114 0.2468429576067413	0.149728
H	0.5503638809430179 0.1050465053930696 0.1334164591530597	0.132505
H	0.5256463135753413 0.3328420913674198 0.2475123756542575	0.268298
H	0.2118747963182105 0.6824741288444885 0.5416517625218976	0.144031
H	0.1263017846850012 0.7123506745108775 0.6814988762250064	0.137376
H	0.1456698179568982 0.5910440491852516 0.6283876954211778	0.132931
H	0.1799275669658268 0.9499069254183836 0.7696074501146456	0.142857
H	0.2814919021160867 0.8782392327911301 0.8223352328496921	0.132095
H	0.2598517960991942 0.9809923075404694 0.9459395072559057	0.131710
H	0.3537145692045853 0.5640290553683412 0.7008083988675817	0.275243
H	0.3730051258968111 0.6408878720570450 0.3159266290168971	0.137940
H	0.3517160146760304 0.7623988454733863 0.2617731750244774	0.129818
H	0.4612519429420262 0.7076048644701124 0.2262183906694627	0.138652
H	0.0669996209762827 0.6586320304677261 0.3374728183350489	0.140300
H	0.1639271897792347 0.6051459230952292 0.2469611600325472	0.149939
H	0.0505999577031134 0.6051306474694087 0.1334316039816805	0.132248
H	0.0256039540021264 0.8328306493536476 0.2473935271099986	0.268914
H	0.2889658971735484 0.1820329125536979 0.4613037855646804	0.144162
H	0.3711989553786029 0.2208322040817408 0.3216208476253771	0.139978
H	0.3596870289286261 0.0974963273151080 0.3659163200794704	0.132382
H	0.3186992684646543 0.4551429840253316 0.2220337804480388	0.144431
H	0.2217512938024181 0.3751213076739633 0.1814554909457356	0.133407
H	0.2340116418836385 0.4744290664516930 0.0464840800484593	0.131687
H	0.1455340105733796 0.0684833468155384 0.3040974642503004	0.276151
H	0.1265489330622694 0.1420074754319598 0.6867633625447095	0.138331
H	0.1472989174920636 0.2635196147807790 0.7441151866241273	0.130016
H	0.0377172400288107 0.2074214813301140 0.7773194549252718	0.139454
H	0.4367727510437018 0.1582114422420880 0.6623211750542006	0.139543
H	0.3366859927908357 0.1045052731872576 0.7418169425669361	0.149900
H	0.4475754969238991 0.1019280588205830 0.8633059898136797	0.133187
H	0.4743429406382734 0.3308604790590750 0.7495461347197625	0.268427
H	0.7892098103482998 0.6820660374726386 0.4611620977444171	0.144282
H	0.8715274579333884 0.7206793324924640 0.3214268110837745	0.140645
H	0.8597887679731434 0.5974065398320511 0.3657868353145031	0.132427
H	0.8188517380477776 0.9552780513256323 0.2222670902388816	0.144708
H	0.7220920924054214 0.8749562983431867 0.1819814750377826	0.133530
H	0.7342343059067906 0.9743025320893759 0.0467347048814250	0.131830
H	0.6455633543206025 0.5683890394288941 0.3042493541098668	0.276396
H	0.6267839587563548 0.6421079569828253 0.6867569686376971	0.138561
H	0.6473660259199937 0.7635982350761735 0.7442208120484319	0.130475
H	0.5378798823680179 0.7073216721364959 0.7772598850382372	0.139828
H	0.9367700622325547 0.6582349278346235 0.6622075925510496	0.139861
H	0.8365665203513204 0.6047770227735889 0.7418894141083148	0.149951
H	0.9476525974241846 0.6019652516774852 0.8630220888759995	0.133347
H	0.9746213263704742 0.8308795202785240 0.7501788719080315	0.269184
N	0.8321280008918867 0.1021948192288094 0.8022625043518791	-0.150493
N	0.6028375432538124 0.3940713697555860 0.0700053258364493	-0.265965
N	0.8887683910870048 0.1099759011438862 0.9491966332775958	-0.258208
N	0.5731728655777263 0.3203098197826229 0.1614497955834899	-0.146250
N	0.3321250681812980 0.6022386199555642 0.8020703864495037	-0.149766
N	0.1030110418634006 0.8942058366346419 0.0705874828133547	-0.265000
N	0.3888197016528090 0.6100848629891755 0.9489701682304620	-0.258576
N	0.0735075191929351 0.8204019576765249 0.1620752952036704	-0.147179
N	0.1673651566973966 0.1057975350959263 0.2024307546000454	-0.152030
N	0.3984244578833622 0.3927324830137514 0.9289219004737763	-0.263689
N	0.1099477390588526 0.1125762599404265 0.0561244731148806	-0.260687
N	0.4279398013569320 0.3185896663757464 0.8375824763970946	-0.147468
N	0.6674625347749978 0.6056275107671979 0.2024608671641455	-0.151296
N	0.8986420031117450 0.8926228711797284 0.9294915302598182	-0.264074
N	0.6100664056903160 0.6124840983984400 0.0561748414233167	-0.261087
N	0.9281139305042229 0.8185434859536014 0.8379972595450063	-0.147868
Ga	0.4989777433101820 0.4781344365184375 0.5004073882130922	1.452444
Ga	-0.0007331055408524 0.9783148527328356 0.5009715170079839	1.453026
Fe	0.5005404645761572 0.5068301089511928 0.0008444549530192	0.820423
Fe	0.0004901955154422 0.0066928479433315 0.0014520625734780	0.820157
	  	
