#======================================================================

# CRYSTAL DATA

#----------------------------------------------------------------------

data_VESTA_phase_1


_pd_phase_name                         GaFFIVE_1_Ni
_cell_length_a                         11.26411
_cell_length_b                         11.26409
_cell_length_c                         7.91346
_cell_angle_alpha                      89.95786
_cell_angle_beta                       90.04210
_cell_angle_gamma                      89.99783
_symmetry_space_group_name_H-M         P 1
_symmetry_Int_Tables_number            1

loop_
_symmetry_equiv_pos_as_xyz
   x, y, z

loop_
   _atom_site_label
   _atom_site_fract_x
   _atom_site_fract_y
   _atom_site_fract_z
   _atom_site_charge
C	0.2536458512405656 0.4571444302154006 0.3662808892577275	0.101319
C	0.1301931753892586 0.4566042690628203 0.3611250974962614	-0.174726
C	0.7473849380603227 0.5420452460777930 0.3661708211468252	0.107607
C	0.8707830628563274 0.5429684203450201 0.3609099341426880	-0.175455
C	0.5425066555878766 0.2536501868842172 0.3672035991467831	0.104317
C	0.5431998399108230 0.1302378312090135 0.3616564065452252	-0.174436
C	0.4578398995116048 0.7473176189692138 0.3667037643524242	0.099830
C	0.4570496353493444 0.8707365306133045 0.3614948750023110	-0.176337
C	0.7473187485264616 0.4578401151800174 0.6332938231213943	0.099784
C	0.8707368409204911 0.4570490533192130 0.6385001800598299	-0.176346
C	0.2536494811942541 0.5425055578547732 0.6327924536721429	0.104293
C	0.1302367348338682 0.5431996456388083 0.6383341681233015	-0.174359
C	0.4571449047452791 0.2536426867539879 0.6337146451873957	0.101389
C	0.4566039676107663 0.1301900293544528 0.6388661281954289	-0.174737
C	0.5420434080427431 0.7473860334458698 0.6338273245106021	0.107586
C	0.5429689875085199 0.8707838460218098 0.6390851164954209	-0.175478
C	0.0660056498423200 0.4998724857087203 0.4997085303992034	0.100214
C	0.9349445598833692 0.4999240239312802 0.4997391597232016	0.099588
C	0.4998744711637467 0.0660063374064811 0.5002818051821836	0.100293
C	0.4999252462833608 0.9349450019417931 0.5002546131737596	0.099576
H	0.3061511296781467 0.4234646337922485 0.2608258923821986	0.099781
H	0.0843331116796233 0.4205451380551566 0.2511017741360251	0.120870
H	0.6945769145658001 0.5735201224514599 0.2600192064482781	0.095011
H	0.9164334425112894 0.5787172082491483 0.2506613428317165	0.118599
H	0.5764945909111133 0.3068450571582870 0.2627500741032024	0.093561
H	0.5792153728810463 0.0843785858680298 0.2517820791421708	0.119141
H	0.4268150996765694 0.6951302117341290 0.2595413570890021	0.101476
H	0.4213721199328401 0.9162465715509496 0.2508893661053552	0.121022
H	0.6951317578509559 0.4268163240174125 0.7404550345669479	0.101486
H	0.9162483862696269 0.4213708816635198 0.7491038595302564	0.121036
H	0.3068427352682548 0.5764947553409032 0.7372461288950034	0.093549
H	0.0843762558191763 0.5792161607935774 0.7482071355967583	0.119146
H	0.4234650418983333 0.3061474361621102 0.7391705169728788	0.099750
H	0.4205452303193145 0.0843301200905342 0.7488888117225342	0.120871
H	0.5735203386857403 0.6945773278307240 0.7399788083621499	0.094977
H	0.5787184923683447 0.9164344226555521 0.7493330096206294	0.118630
Ni	0.5003144361309207 0.5003121940066640 0.5000055819228271	0.755774
Ga	0.4983259774254754 0.4983315097078449 0.0000060713288831	1.462674
F	0.5018620866340200 0.4986702648439125 0.7541139986740651	-0.555959
F	0.4986648921248721 0.5018360164870205 0.2459124406300464	-0.556013
F	0.3834584807206902 0.3834255214114860 0.0000214062481374	-0.577981
F	0.6547793235945338 0.4540804475284423 0.0049051001709900	-0.578508
F	0.4539952555541648 0.6547582170711798 0.9951389004403373	-0.578500
N	0.3144472184049181 0.4998693600657450 0.4996605140430482	-0.231790
N	0.6864343564280740 0.4999626024040403 0.4995661049389085	-0.235352
N	0.4998713965773491 0.3144458224060785 0.5003387159563254	-0.231821
N	0.4999605156274841 0.6864337977198440 0.5004335932072133	-0.235351
	  	
