#======================================================================

# CRYSTAL DATA

#----------------------------------------------------------------------

data_VESTA_phase_1


_pd_phase_name                         GaFFIVE_4_Zn_i
_cell_length_a                         23.78979
_cell_length_b                         20.65409
_cell_length_c                         9.40643
_cell_angle_alpha                      90.00033
_cell_angle_beta                       90.00009
_cell_angle_gamma                      90.00719
_symmetry_space_group_name_H-M         P 1
_symmetry_Int_Tables_number            1

loop_
_symmetry_equiv_pos_as_xyz
   x, y, z

loop_
   _atom_site_label
   _atom_site_fract_x
   _atom_site_fract_y
   _atom_site_fract_z
   _atom_site_charge
C	0.4147294794259093 0.5968845170501179 0.6279469393093671	0.105966
C	0.3712915011931325 0.5520042423343409 0.6257743886357658	-0.172224
C	0.2766136891657115 0.4495492293764033 0.6255420448854890	-0.120794
C	0.2314436814447123 0.4070558733501162 0.6242562069660427	-0.113648
C	0.1316156487367727 0.3208895918731029 0.6227425689274614	-0.170796
C	0.0854184474914058 0.2798562402380674 0.6264392757543331	0.099222
C	0.9147679936950439 0.0968332286708622 0.6279474946743657	0.106077
C	0.8713118258607089 0.0519777095413678 0.6257729263690951	-0.172501
C	0.7766098496284615 0.9495476577045455 0.6255437068618315	-0.121027
C	0.7314395808754481 0.9070530925042962 0.6242588323162334	-0.113648
C	0.6315871885543358 0.8209229569026235 0.6227416765126033	-0.170750
C	0.5853854696055374 0.7798930826939002 0.6264331506873518	0.099343
C	0.5854191223220743 0.4025001811882714 0.1280997813433049	0.103206
C	0.6287160308525229 0.4475586346550129 0.1257481767575976	-0.176248
C	0.7233340281861609 0.5499209047500766 0.1255531279056622	-0.118769
C	0.7684942252569821 0.5924378755566081 0.1242486035913833	-0.111391
C	0.8680658144378159 0.6789591132439715 0.1227325604405076	-0.169218
C	0.9141934674292347 0.7201523655322906 0.1262452670306278	0.096370
C	0.0853465495669774 0.9025634798094552 0.1281194278936154	0.103356
C	0.1286688807864182 0.9475939610509215 0.1257494899171549	-0.176042
C	0.2233407912399709 0.0499191154747817 0.1255572483917028	-0.118943
C	0.2684950510056085 0.0924469104254210 0.1242530246353167	-0.111178
C	0.3680868358626001 0.1789287108184669 0.1227285990797303	-0.169352
C	0.4142293837963391 0.2201004516207174 0.1262274933948123	0.096504
C	0.5855313057575646 0.5972887606481670 0.8719836764076097	0.105578
C	0.6286664267832619 0.5520249063613430 0.8742464867992149	-0.175710
C	0.7233324170048520 0.4495470142065923 0.8744504363308178	-0.120165
C	0.7684782285252882 0.4070327441986846 0.8757359816011491	-0.112339
C	0.8686028002358939 0.3213274492375958 0.8772424037467735	-0.170472
C	0.9149847041735354 0.2805342884261046 0.8736567045855260	0.098633
C	0.0855585914780279 0.0972947691721067 0.8719776263423105	0.105806
C	0.1286900697081955 0.0520311171471282 0.8742425746939236	-0.175518
C	0.2233175139790990 0.9495329391756825 0.8744587142205142	-0.120419
C	0.2684690079232614 0.9070271137930650 0.8757436550569193	-0.112592
C	0.3686134682898922 0.8213712838745589 0.8772382286598754	-0.170628
C	0.4149969865054713 0.7805845656243099 0.8736508754635851	0.098679
C	0.4152712323090272 0.4034962885469895 0.3719911698292649	0.104495
C	0.3715829948924778 0.4480240427964206 0.3742324713964121	-0.173130
C	0.2765017844086075 0.5497436182955444 0.3744707318613899	-0.120732
C	0.2313939757362310 0.5923264385258966 0.3757733065218298	-0.112661
C	0.1322602670459648 0.6795144299452134 0.3772479973390691	-0.170513
C	0.0861604074587649 0.7207253639258164 0.3736548766271204	0.097566
C	0.9152584699190091 0.9034859447392837 0.3719964948799662	0.104474
C	0.8715752686540074 0.9480178373153511 0.3742313484569706	-0.172804
C	0.7765133903676584 0.0497475772003324 0.3744717715934834	-0.120707
C	0.7314051966435521 0.0923319015830488 0.3757778914946134	-0.112576
C	0.6322570913038995 0.1795141478766031 0.3772432419772295	-0.170619
C	0.5861525565969882 0.2207218600129301 0.3736282275258028	0.097673
C	0.5854154329769053 0.4024994938762970 0.3718946074800779	0.103105
C	0.6287129912098993 0.4475589800256998 0.3742513840224775	-0.176109
C	0.7233345971523300 0.5499233559721134 0.3744453774541189	-0.118796
C	0.7684946405493903 0.5924401076453261 0.3757461863687840	-0.111337
C	0.8680589762402644 0.6789533943425853 0.3772710917792893	-0.169270
C	0.9141854465343874 0.7201431201735330 0.3737749561050868	0.096590
C	0.0853568868828848 0.9025744018659754 0.3719115489930045	0.103143
C	0.1286771458069488 0.9476019592648564 0.3742592473522195	-0.175941
C	0.2233406486223194 0.0499190687376677 0.3744413267520584	-0.118906
C	0.2684952288575087 0.0924466345446914 0.3757479383037321	-0.111110
C	0.3680895449450695 0.1789323169773183 0.3772662090189329	-0.169138
C	0.4142329035249723 0.2201044655362336 0.3737590141379738	0.096166
C	0.4147345841649060 0.5968903107561883 0.8720377870580879	0.106159
C	0.3712957024452184 0.5520084885091383 0.8742222243495336	-0.172507
C	0.2766144646795574 0.4495487534275878 0.8744595882292163	-0.120813
C	0.2314442956889473 0.4070558886709640 0.8757465361625000	-0.113749
C	0.1316127835468250 0.3208861752705863 0.8772556208431443	-0.170712
C	0.0854148131632134 0.2798511224210752 0.8735493843409846	0.099293
C	0.9147710420751335 0.0968391117121037 0.8720427743570062	0.106039
C	0.8713156081515953 0.0519820783204844 0.8742268716639757	-0.172613
C	0.7766103912341406 0.9495475121811388 0.8744624999425175	-0.120974
C	0.7314396723352586 0.9070531858127996 0.8757453068077274	-0.113660
C	0.6315832990369130 0.8209189657986372 0.8772534150291984	-0.170527
C	0.5853811967247405 0.7798880815183294 0.8735492196820170	0.099243
C	0.4152694144512553 0.4034995396023652 0.1280030333319068	0.104374
C	0.3715823808768837 0.4480270429774219 0.1257678527546439	-0.173053
C	0.2765031243522955 0.5497428689927246 0.1255262902943318	-0.120779
C	0.2313949598995117 0.5923256242573053 0.1242186853384665	-0.112743
C	0.1322525350498004 0.6795230253996704 0.1227548866473274	-0.170646
C	0.0861521677187112 0.7207378511865096 0.1263702351496444	0.097664
C	0.9152668724530751 0.9034747024463662 0.1280310762053381	0.104813
C	0.8715830938196650 0.9480108037785890 0.1257735562158739	-0.172995
C	0.7765129780925427 0.0497477731002346 0.1255246360782404	-0.120707
C	0.7314045093623651 0.0923317436974131 0.1242225808077243	-0.112672
C	0.6322592768124279 0.1795122359735874 0.1227550720763035	-0.170590
C	0.5861557937886482 0.2207190943658707 0.1263636126031201	0.097776
C	0.5855371445005970 0.5972845890806328 0.6280165936013486	0.105658
C	0.6286715041996493 0.5520225961241642 0.6257619085597317	-0.175827
C	0.7233329544292952 0.4495500636233978 0.6255549332735562	-0.120199
C	0.7684782274022729 0.4070344845240827 0.6242678285701968	-0.112410
C	0.8685999627834984 0.3213310659060788 0.6227517735739994	-0.170526
C	0.9149815448256917 0.2805394394497389 0.6263260193755072	0.098621
C	0.0855634575120004 0.0972904876878811 0.6280113969139849	0.105647
C	0.1286940926890530 0.0520284747772780 0.6257565025880342	-0.175312
C	0.2233179190600947 0.9495336490212744 0.6255429614942144	-0.120383
C	0.2684693813452013 0.9070277295937943 0.6242591614921250	-0.112589
C	0.3686104311288460 0.8213757851405858 0.6227550585815875	-0.170599
C	0.4149928278272161 0.7805909773489643 0.6263311495734738	0.098665
C	0.3472351029518682 0.5254618040686959 0.7500009702828553	0.112109
C	0.3008576288583987 0.4755888369665930 0.7500013359999798	0.068117
C	0.2060977495153503 0.3854009206650242 0.7500018511766070	0.067229
C	0.1565469576175509 0.3423419184366735 0.7500016055639819	0.102836
C	0.8472438870141193 0.0254490021802598 0.7500020875268568	0.111772
C	0.8008532588420372 0.9755845695563393 0.7500038619795973	0.067930
C	0.7060893367387747 0.8854008112095029 0.7500021738897439	0.067597
C	0.6565267168438633 0.8423607800494378 0.7499995296320964	0.102670
C	0.6527248021533656 0.4741803258566771 0.2500011917673108	0.113524
C	0.6991034639347921 0.5240342975283477 0.2499999485735278	0.067539
C	0.7937826961424076 0.6141569599153665 0.2499963710627049	0.068521
C	0.8432090158579202 0.6573882398088787 0.2499967463062317	0.100675
C	0.1527100431249006 0.9741955352369422 0.2499982372296602	0.112979
C	0.1991054968652947 0.0240303693344153 0.2499980476043604	0.067556
C	0.2937819408498498 0.1141711103741617 0.2500007371199343	0.068177
C	0.3432192399856467 0.1573868300849945 0.2499995253342575	0.100803
C	0.6526433185943749 0.5253431838791357 0.7500059421519991	0.110192
C	0.6990483253123718 0.4754722802430605 0.7500046252942901	0.065815
C	0.7938063862584179 0.3853490102561549 0.7500015034507322	0.069942
C	0.8434785161746748 0.3424909165306670 0.7499997559303787	0.101317
C	0.1526534800218706 0.0253393662600045 0.7500017708054086	0.109933
C	0.1990441939766741 0.9754580693530502 0.7500016423481868	0.066190
C	0.2938031030652246 0.8853585824194075 0.7500013772617091	0.070139
C	0.3434865527898961 0.8425246842864407 0.7500011794858603	0.101582
C	0.3473554088732086 0.4743071396268141 0.2500012870150946	0.115727
C	0.3007743584092555 0.5239030530002132 0.2500000841097992	0.069983
C	0.2062030049645487 0.6142070546188593 0.2499941313699448	0.065693
C	0.1569589687104683 0.6577130884082187 0.2499949230696246	0.102093
C	0.8473576988496621 0.9743022454757173 0.2499962052106271	0.115777
C	0.8007806238278042 0.0239042072063789 0.2499955328791920	0.069850
C	0.7062109974435715 0.1142105015514424 0.2500012892300230	0.065578
C	0.6569627471222296 0.1577103799395099 0.2500009545131099	0.102420
H	0.4327800241016171 0.6158393823562578 0.5293038135669674	0.106831
H	0.3581836545670732 0.5395041821585873 0.5200977358574840	0.105839
H	0.2923365864883640 0.4611443604497626 0.5217650679732877	0.088186
H	0.2162944531234568 0.3910182113531489 0.5208639381242400	0.103183
H	0.1475436384215962 0.3353173878785322 0.5189783991670011	0.117556
H	0.0653057517106519 0.2614449679399113 0.5298962890399901	0.104813
H	0.9328534997304389 0.1157556353771529 0.5293108673477751	0.107049
H	0.8582049618065160 0.0394793027813006 0.5200940751865899	0.105929
H	0.7923317726241909 0.9611392539365740 0.5217646496702201	0.088234
H	0.7162928313853633 0.8910096149506139 0.5208642092359802	0.103237
H	0.6475113067448983 0.8353643595167018 0.5189807266116998	0.117591
H	0.5652515448192997 0.7615087679050451 0.5298909484548796	0.104731
H	0.5673338475472802 0.3829114634286440 0.0301775409837217	0.107846
H	0.6419293740804450 0.4601315729092116 0.0201982379032476	0.104178
H	0.7076695896849288 0.5382407747076545 0.0218141292060376	0.087401
H	0.7836724541872486 0.6084715808547948 0.0207900362258087	0.104110
H	0.8522342279796509 0.6645937531545675 0.0188637980172862	0.118865
H	0.9338636826909325 0.7383591286405907 0.0289198175635294	0.106780
H	0.0672187713282267 0.8830330977233304 0.0301955386367348	0.107894
H	0.1418731684634816 0.9601744453028040 0.0201936447395972	0.104201
H	0.2076886454284981 0.0382285666047662 0.0218099616552130	0.087485
H	0.2836732225609727 0.1084789360964895 0.0207916884491187	0.104089
H	0.3522668074883522 0.1645477800343945 0.0188647125107522	0.118970
H	0.4339357177730495 0.2382492907992068 0.0288929069066609	0.106765
H	0.5678588635655216 0.6170464239203084 -0.0297040223692802	0.108335
H	0.6418316256972869 0.5394702928642420 -0.0201418437880053	0.105378
H	0.7078012446142912 0.4613636113662158 -0.0217328854255780	0.087874
H	0.7836810004503540 0.3910473152392687 -0.0208350336131489	0.103871
H	0.8528268671333191 0.3359053712043621 -0.0189716255798054	0.118290
H	0.9353185995784428 0.2629720715560049 -0.0293038967804574	0.107106
H	0.0678854846541159 0.1170672679034165 -0.0297311975358149	0.108153
H	0.1418668191016211 0.0394904779997978 -0.0201527770868109	0.105387
H	0.2077694132377551 0.9613353599396764 -0.0217335394802851	0.087819
H	0.2836727831872876 0.8910366939430906 -0.0208327162930227	0.104018
H	0.3528310973508617 0.8359526344726032 -0.0189722943992736	0.118230
H	0.4353388450645094 0.7630166729197345 -0.0293179321888966	0.107040
H	0.4338110055274808 0.3847906363402770 0.4702407006242884	0.107184
H	0.3584679754368822 0.4606241344044377 0.4798346313360812	0.104644
H	0.2921460304729935 0.5379966053193249 0.4781904120615851	0.087908
H	0.2161862678616057 0.6082804243976078 0.4792461752190488	0.103417
H	0.1482985500968957 0.6653697667814646 0.4811034765656894	0.118122
H	0.0666444123025716 0.7394996274848625 0.4706901395405810	0.105881
H	0.9338010977626224 0.8847551921050696 0.4702143789731409	0.107204
H	0.8584467470945807 0.9606136231305490 0.4798223690849654	0.104399
H	0.7921581631687704 0.0379998323346259 0.4781922801295481	0.087798
H	0.7161976533552036 0.1082849543547683 0.4792539566833021	0.103349
H	0.6483047729567868 0.1653708191113667 0.4810926442502297	0.117997
H	0.5666223861886623 0.2395069250881122 0.4706332198644024	0.105942
H	0.5673306732046881 0.3829132225896804 0.4698187963771461	0.107935
H	0.6419258650375245 0.4601341375183647 0.4798021042192099	0.104150
H	0.7076698304209308 0.5382442909303015 0.4781842599225385	0.087374
H	0.7836723483427982 0.6084744465696137 0.4792042217213819	0.104122
H	0.8522267417434936 0.6645883481482182 0.4811368358871101	0.118875
H	0.9338570883703329 0.7383503107474205 0.4711021412353805	0.106740
H	0.0672276889834163 0.8830420009126378 0.4698318679639462	0.107855
H	0.1418814959877204 0.9601827379542616 0.4798121692268926	0.104194
H	0.2076890276378315 0.0382293989745044 0.4781888839171494	0.087425
H	0.2836741787207899 0.1084786178540227 0.4792094857523814	0.104107
H	0.3522698615761269 0.1645523266366495 0.4811314935402367	0.118889
H	0.4339387674730013 0.2382535003356865 0.4710941847964113	0.106854
H	0.4327839530850623 0.6158448517057096 -0.0293182045011238	0.106846
H	0.3581883305256046 0.5395089035842906 -0.0200984473970442	0.105911
H	0.2923386445652513 0.4611436223049228 -0.0217643004342761	0.088169
H	0.2162954541037700 0.3910185460273472 -0.0208617781178035	0.103280
H	0.1475410529345609 0.3353145787446380 -0.0189784516432559	0.117475
H	0.0653032715646721 0.2614415680352288 -0.0299057345055841	0.104743
H	0.9328578804097384 0.1157640448455631 -0.0293259164527934	0.107102
H	0.8582086492612471 0.0394851280002490 -0.0200921359912746	0.105906
H	0.7923322049904966 0.9611393554893600 -0.0217593613353766	0.088178
H	0.7162923530297108 0.8910095982850957 -0.0208610318623858	0.103273
H	0.6475072828772608 0.8353599430667231 -0.0189826468544554	0.117405
H	0.5652479777818255 0.7615034528865562 -0.0299092367271658	0.104844
H	0.4338100740502183 0.3847921141835700 0.0297560820868775	0.107207
H	0.3584676032903170 0.4606267760949848 0.0201658345227818	0.104660
H	0.2921482263928601 0.5379952405945609 0.0218078464450438	0.087898
H	0.2161873021239026 0.6082793359940408 0.0207463253286161	0.103467
H	0.1482905270138703 0.6653786026365004 0.0188956145735757	0.118171
H	0.0666363601076653 0.7395090527052640 0.0293307972467280	0.105873
H	0.9338089686914645 0.8847430186645467 0.0298133300682524	0.107147
H	0.8584552636312325 0.9606072933719350 0.0201790338129009	0.104429
H	0.7921578015833415 0.0380008765602118 0.0218055087227389	0.087809
H	0.7161960914422297 0.1082851065031906 0.0207460446580704	0.103369
H	0.6483074254264946 0.1653688776695549 0.0189066791159831	0.117954
H	0.5666250911860478 0.2395057206541302 0.0293607523483832	0.105876
H	0.5678634692896313 0.6170439614659257 0.5297060279223990	0.108254
H	0.6418373461579390 0.5394693290793132 0.5201521839794051	0.105493
H	0.7078012434663848 0.4613672485883084 0.5217381977345336	0.087889
H	0.7836805303792040 0.3910493720465726 0.5208384444941061	0.103935
H	0.8528231565227613 0.3359104883633574 0.5189679195138712	0.118262
H	0.9353158964764893 0.2629799272275355 0.5292851243949378	0.107086
H	0.0678900294379188 0.1170645412802208 0.5297220205407089	0.108152
H	0.1418706762497285 0.0394884724068034 0.5201531908239463	0.105321
H	0.2077709718581528 0.9613368982697034 0.5217345294014312	0.087852
H	0.2836729534420520 0.8910376486228563 0.5208344448161464	0.103973
H	0.3528274337555851 0.8359578551983838 0.5189715474465203	0.118228
H	0.4353351276994839 0.7630241750318809 0.5292988720809952	0.107008
Zn	0.4998112572214219 0.6889270403100898 0.7496990278364581	0.737177
Zn	-0.0001715920914899 0.1888967723569945 0.7497395236254528	0.737583
Zn	0.4997510696912417 0.3106146380026045 0.2498145825077447	0.737328
Zn	-0.0002328111330108 0.8105747622967555 0.2505830270385430	0.737104
F	0.5000705671033792 0.6876045514609855 0.4710305737865944	-0.614616
F	0.0001232507598276 0.1875283341661953 0.4710119479802616	-0.614701
F	0.4995921645299183 0.3124327289984246 0.9710490125626240	-0.615049
F	-0.0004094319640765 0.8123901513829855 0.9706405122572113	-0.615082
F	0.5000733448135676 0.6876091130231504 0.0293021322574894	-0.614851
F	0.0001038208749492 0.1875237737835346 0.0292432267018433	-0.614783
F	0.4995954316969317 0.3124536659935860 0.5291473020123697	-0.615115
F	-0.0003757615100020 0.8123459308464518 0.5287001306450939	-0.614963
F	0.4766023104047669 0.7705596099069497 0.2501709979085633	-0.599435
F	0.5734367648379270 0.6639072554624631 0.2500845402730199	-0.595098
F	0.9754063544460498 0.2700293115092847 0.2500791099055043	-0.599716
F	0.0737951000973705 0.1650174641766164 0.2500396934912006	-0.595274
F	0.5728526663905923 0.2930313804208551 0.7500098575282467	-0.598050
F	0.4767667296821315 0.3982339840433062 0.7500223400289049	-0.592153
F	0.0723436714292633 0.7901377403635638 0.7498956865034133	-0.597683
F	0.9796166681915566 0.8989388667487904 0.7497708818119128	-0.592226
F	0.4460827956314931 0.6228403710680147 0.2500860297244262	-0.589739
F	0.9471590397178451 0.1216815097201420 0.2500576106534023	-0.590373
F	0.4435088155674329 0.2522054398780715 0.7500740636034046	-0.597239
F	0.9417726251808666 0.7542663895567209 0.7498343690199955	-0.597297
N	0.4368352939467459 0.6189969734169796 0.7499864129708785	-0.221334
N	0.5629319937561528 0.7595210626390012 0.7499848954711891	-0.229425
N	0.9368750680087404 0.1189389057556154 0.7499885270666141	-0.221117
N	0.0629547516335202 0.2594924996060321 0.7499890567679356	-0.229666
N	0.5633115935796464 0.3804137940518503 0.2499936357468430	-0.219329
N	0.4366790195446118 0.2405000089078651 0.2499896560583310	-0.230722
N	0.0632476052011627 0.8804828318388539 0.2500276184603736	-0.219065
N	0.9366395021336610 0.7405335899752061 0.2500205685648673	-0.231011
N	0.5634848064791570 0.6194594225460431 0.7499943626156346	-0.220641
N	0.4373722165264176 0.7601071078809224 0.7499843068330980	-0.231467
N	0.0635080597154698 0.1194554680942926 0.7499887073353726	-0.220576
N	0.9373617430807611 0.2600546684892891 0.7499857250692142	-0.231832
N	0.4374034780098688 0.3814452223336205 0.2499933885722549	-0.222525
N	0.5635362758600141 0.2408559169364950 0.2499917771300883	-0.230294
N	0.9373955888941808 0.8814280111726834 0.2500256160975607	-0.222318
N	0.0635429679909911 0.7408697987082852 0.2500253524649604	-0.230269
Ga	0.4993294153682142 0.6863694161987912 0.2499615933985432	1.463552
Ga	-0.0005768535006980 0.1862740068367772 0.2499520125770600	1.464643
Ga	0.4984209187696682 0.3137212818110648 0.7499591123026189	1.466144
Ga	-0.0014674362088504 0.8135773631830605 0.7501170899875819	1.465573
	  	
