#======================================================================

# CRYSTAL DATA

#----------------------------------------------------------------------

data_VESTA_phase_1


_pd_phase_name                         GaFFIVE_15_Cu_i
_cell_length_a                         29.62473
_cell_length_b                         28.62553
_cell_length_c                         8.34013
_cell_angle_alpha                      89.99947
_cell_angle_beta                       89.99989
_cell_angle_gamma                      89.99645
_symmetry_space_group_name_H-M         P 1
_symmetry_Int_Tables_number            1

loop_
_symmetry_equiv_pos_as_xyz
   x, y, z

loop_
   _atom_site_label
   _atom_site_fract_x
   _atom_site_fract_y
   _atom_site_fract_z
   _atom_site_charge
C	0.9355337985375006 0.1044962086512888 0.8896569724502549	0.094848
C	0.9028442430203577 0.0698083214802025 0.8947281044800787	-0.162734
C	0.7701890728232582 0.9363545076581478 0.8963053662967800	-0.115402
C	0.7356791633970867 0.9037071861577344 0.8960810455120807	-0.117265
C	0.5662248336154850 0.7394674724753690 0.8894537084221706	0.092481
C	0.6000212629286900 0.7730135981695891 0.8944020296947314	-0.166407
C	0.4357776837995621 0.6042871824650947 0.8895034295631397	0.101577
C	0.4030866516332333 0.5695942671410303 0.8948700006429425	-0.164031
C	0.2700932441147368 0.4364027415973898 0.8962240645074786	-0.114014
C	0.2356005132696466 0.4037180069748169 0.8959939886141950	-0.115677
C	0.0663095770683753 0.2391821240253610 0.8893732505215936	0.099030
C	0.1001224420260401 0.2726759848906178 0.8944570742739908	-0.165722
C	0.0647762882374644 0.8951094079220709 0.3895536115287984	0.103274
C	0.0971276492936698 0.9301369374410909 0.3948535221284061	-0.163821
C	0.2298114375524856 0.0636672453802279 0.3961695573934065	-0.113882
C	0.2643394869040063 0.0963157122937421 0.3959709522831339	-0.115498
C	0.4342096281206334 0.2602356213510919 0.3893958361371341	0.099295
C	0.4001286202449557 0.2270394564835689 0.3944613346675950	-0.166691
C	0.5646694355569373 0.3953793743183747 0.3896730833142478	0.094886
C	0.5969316826585993 0.4304946907323645 0.3947406856177403	-0.161792
C	0.7298409148007275 0.5636429476682080 0.3962564369269338	-0.115807
C	0.7643898355694435 0.5962400494395460 0.3960246304342709	-0.116183
C	0.9339478303168846 0.7603707362354094 0.3895150127155891	0.092935
C	0.8998198308428795 0.7271908426009679 0.3943900955777393	-0.167027
C	0.0646289855810762 0.1050519844694733 0.6104470433209053	0.102820
C	0.0969486336453461 0.0700157320619498 0.6051376212715487	-0.163252
C	0.2295497641481419 0.9365289384605368 0.6037413825447674	-0.114605
C	0.2641163065930279 0.9039340678178157 0.6039616114265469	-0.114953
C	0.4336292852718628 0.7395930819850882 0.6105435866452726	0.092218
C	0.3998296157709795 0.7731594348698659 0.6055791292843261	-0.166436
C	0.5640827603200190 0.6044416450891791 0.6104953448960170	0.100260
C	0.5967532547710527 0.5697332412765602 0.6051251391670345	-0.165258
C	0.7296918989059902 0.4366123926950236 0.6037608088611170	-0.114556
C	0.7641706829798511 0.4039191340865339 0.6039770808432643	-0.116426
C	0.9338492696140692 0.2397593629070881 0.6105084280795667	0.093308
C	0.8997156576123909 0.2729345277216224 0.6056348001545747	-0.167132
C	0.9353960080838729 0.8956720178254998 0.1103480702680398	0.094523
C	0.9026798788921115 0.9303589420732382 0.1052803642570146	-0.162061
C	0.7699201766555804 0.0638545531402338 0.1038308895308537	-0.115501
C	0.7354460620027833 0.0965560142285576 0.1040340648604830	-0.115645
C	0.5656172837588638 0.2603925919722644 0.1105731982650570	0.099239
C	0.5997008383817425 0.2272078354243061 0.1055646338833267	-0.166499
C	0.4352001698165845 0.3955179638505478 0.1103306811764161	0.094481
C	0.4029217405894542 0.4306284970345842 0.1053017657112512	-0.162278
C	0.2699308768870640 0.5638531845921113 0.1038256091731789	-0.116288
C	0.2353708704439350 0.5964511419637248 0.1040338660584401	-0.114509
C	0.0662024625418186 0.7609646392066760 0.1105999814520666	0.098868
C	0.0999947088093038 0.7274514973841421 0.1055149698589886	-0.167799
C	0.0647768485238598 0.8951095515448235 0.1104440461934289	0.103296
C	0.0971278813216102 0.9301371525985869 0.1051426600529723	-0.163769
C	0.2298117218923597 0.0636676354145652 0.1038312265222546	-0.113872
C	0.2643397214325655 0.0963161127482594 0.1040291834212704	-0.115491
C	0.4342111176739301 0.2602356957754480 0.1106015708746446	0.099267
C	0.4001298463515742 0.2270397144503730 0.1055359984182831	-0.166603
C	0.5646703916519207 0.3953799194409534 0.1103298292886788	0.094879
C	0.5969324706060192 0.4304951688353513 0.1052622806775723	-0.161584
C	0.7298407914259115 0.5636429738879817 0.1037432147315106	-0.115791
C	0.7643897718246290 0.5962402096468133 0.1039743914769597	-0.116180
C	0.9339478469570066 0.7603709923886067 0.1104823516979934	0.092915
C	0.8998198236074926 0.7271909892996857 0.1056089281075503	-0.166948
C	0.9355340011481845 0.1044966944617294 0.6103477752102802	0.094832
C	0.9028442362826962 0.0698090140074007 0.6052769020705374	-0.162711
C	0.7701893778545723 0.9363552130371668 0.6036925782423805	-0.115377
C	0.7356789424891454 0.9037080688212409 0.6039184210190024	-0.117194
C	0.5662254211667722 0.7394682908674414 0.6105400932849032	0.092439
C	0.6000216944506509 0.7730143761869173 0.6055913722323774	-0.166372
C	0.4357775017804672 0.6042874108182552 0.6104868824067220	0.101445
C	0.4030861707396529 0.5695944767398479 0.6051220445579336	-0.163863
C	0.2700934711902824 0.4364029687283396 0.6037755742648496	-0.114067
C	0.2356007303166034 0.4037182262421928 0.6040067928384583	-0.115616
C	0.0663095852820848 0.2391825269891350 0.6106290192483975	0.098991
C	0.1001226557391215 0.2726763598454329 0.6055433003536147	-0.165734
C	0.9353959742789307 0.8956716464416355 0.3896549281195397	0.094426
C	0.9026801442227336 0.9303587312843707 0.3947216151760467	-0.162017
C	0.7699202449478750 0.0638545631859333 0.3961742906303837	-0.115575
C	0.7354460677931554 0.0965559376902347 0.3959675909861797	-0.115543
C	0.5656181126864265 0.2603926221496551 0.3894272202832975	0.099177
C	0.5997011953154964 0.2272079530169826 0.3944369109490499	-0.166453
C	0.4352006420517331 0.3955178104406722 0.3896725021288737	0.094535
C	0.4029222970089036 0.4306283389475576 0.3947010790576064	-0.162401
C	0.2699311951985584 0.5638528658971395 0.3961747608380974	-0.116359
C	0.2353712069233548 0.5964508035088891 0.3959665404907629	-0.114538
C	0.0662024024015107 0.7609640855183252 0.3894031069764040	0.099021
C	0.0999944480784909 0.7274506997449404 0.3944893939185130	-0.167774
C	0.0646294352859551 0.1050519626888430 0.8895511595002460	0.102845
C	0.0969484284809977 0.0700151630104440 0.8948616255767368	-0.163306
C	0.2295498344326916 0.9365288711843573 0.8962573011957169	-0.114567
C	0.2641163571561893 0.9039341204738846 0.8960370741932658	-0.114961
C	0.4336300638468274 0.7395926262852336 0.8894461360248980	0.092389
C	0.3998309592719810 0.7731597246170724 0.8944115039815773	-0.166613
C	0.5640822621734186 0.6044414607701111 0.8895052661197130	0.100206
C	0.5967529709259616 0.5697332271220612 0.8948771218999827	-0.165191
C	0.7296924012090740 0.4366120550117103 0.8962394459701268	-0.114497
C	0.7641711673707486 0.4039187004470341 0.8960224117491770	-0.116493
C	0.9338492940768125 0.2397584322807027 0.8894875468997629	0.093293
C	0.8997161798871728 0.2729342363945884 0.8943618538193843	-0.167040
C	0.6524760475094347 0.8245304809943729 0.7500010247891892	-0.102498
C	0.8856262190956246 0.0517692487083192 0.7500012004495371	0.162612
C	0.8225246962025237 0.9870448942392221 0.7499997759069491	-0.101190
C	0.6178164215308971 0.7906876657034635 0.7499973024325074	0.167052
C	0.7878605963495849 0.9532476782843889 0.7499996442525326	0.128092
C	0.7177816402785097 0.8868466740224694 0.7499982214891989	0.139079
C	0.6826689654011779 0.8535239760924308 0.7500003975001317	-0.100715
C	0.8520122069455822 0.0168141893705264 0.7500035578871527	-0.102854
C	0.1524981213346076 0.3243240032031122 0.7500002438534596	-0.104542
C	0.3858168439216668 0.5516555574080757 0.7499964930374338	0.165099
C	0.3225060952867047 0.4871475480468602 0.7499991747177560	-0.097766
C	0.1178804131323153 0.2903871852304838 0.7500000606103414	0.168637
C	0.2877936068370541 0.4533616343771508 0.7499995720770192	0.129529
C	0.2176971641991659 0.3868325012002998 0.7500008355683794	0.137579
C	0.1826320858370337 0.3534177533392778 0.7500017316295708	-0.097962
C	0.3520933720981170 0.5168315001483419 0.7499971305443716	-0.105513
C	0.3472936265452105 0.1758959146882073 0.2499979619814121	-0.105060
C	0.1140417839084923 0.9484256927027540 0.2500001899983406	0.165228
C	0.1772008455544552 0.0131443759028385 0.2500001370720160	-0.098684
C	0.3820715738111595 0.2096620879618361 0.2499982839562829	0.170438
C	0.2120230595741351 0.0468168571949786 0.2500005176366236	0.128125
C	0.2821872763713891 0.1132635832988966 0.2499998354877105	0.139022
C	0.3172033874267158 0.1467441435279409 0.2499988302473473	-0.097766
C	0.1475543089047282 0.9835052285473365 0.2499992896829615	-0.107360
C	0.8471488356189383 0.6758905343174654 0.2500000853664255	-0.102889
C	0.6138645978232774 0.4487937964696495 0.2500019864982953	0.162139
C	0.6771713655636939 0.5133195070659182 0.2500025567823932	-0.103489
C	0.8818141539064598 0.7097573784213300 0.2499998552040640	0.168119
C	0.7120719168019022 0.5468713791796725 0.2500006862452001	0.128276
C	0.7822177312070011 0.6131489483193864 0.2499991358184140	0.139358
C	0.8171795077627354 0.6466516810622748 0.2499995529029009	-0.100150
C	0.6474178448517858 0.4838287805729468 0.2500027458127068	-0.104277
C	0.3473336732364690 0.8246842345585527 0.7499969556315659	-0.101835
C	0.1138702298943395 0.0517277904739292 0.7499997478394559	0.164135
C	0.1769966428807374 0.9870177513795325 0.7499976700572341	-0.094548
C	0.3820174348224952 0.7908338018932669 0.7499953642239369	0.168273
C	0.2117969789941205 0.9533656857164080 0.7499984418625688	0.124351
C	0.2820372105514293 0.8870536332387302 0.7499988195363891	0.140290
C	0.3171549061344545 0.8537107234163479 0.7500004692586105	-0.101796
C	0.1473811298888861 0.0166703924298317 0.7499993532445817	-0.110686
C	0.8470146367712783 0.3242746151488982 0.7499984176462092	-0.102530
C	0.6139845851463631 0.5517780694392777 0.7500019822273306	0.166454
C	0.6772519208561265 0.4872610510193613 0.7500012906784933	-0.093560
C	0.8816968282300287 0.2903990802793738 0.7499985546859812	0.168588
C	0.7119775054633812 0.4535198138438735 0.7500000939204347	0.126702
C	0.7820120832732949 0.3869942207129077 0.7499994343703361	0.140657
C	0.8169893481618415 0.3534791547432014 0.7499993809882773	-0.101423
C	0.6476553585522842 0.5169256728855449 0.7500026617668515	-0.108308
C	0.6524972733911206 0.1760425325991760 0.2499996127664865	-0.105956
C	0.8854755790517332 0.9483844639800612 0.2500005658308072	0.161250
C	0.8222991782764115 0.0131081626761990 0.2500025785472440	-0.100310
C	0.6177232857515190 0.2098241789981359 0.2499994629549470	0.171864
C	0.7876234919250741 0.0469432639499945 0.2500031502409222	0.128713
C	0.7176152919013976 0.1134766662058282 0.2500007581411424	0.136524
C	0.6826074706957929 0.1469467937885133 0.2500019399281844	-0.098058
C	0.8518277554847461 0.9833429606724930 0.2500011213784185	-0.100825
C	0.1523102051299127 0.6758402517190721 0.2500021019934073	-0.105225
C	0.3859635792490751 0.4489147810541683 0.2500013550848166	0.161584
C	0.3225763842003250 0.5134402924670386 0.2500007165882049	-0.103182
C	0.1177151821622530 0.7097693386917313 0.2500023017278447	0.172973
C	0.2876889795911051 0.5470312111672444 0.2500001606917458	0.129161
C	0.2174816637270549 0.6133233778252757 0.2500002954022465	0.137424
C	0.1824179500193799 0.6467290239168226 0.2500009633248637	-0.098695
C	0.3523405862408631 0.4839238087529749 0.2500010799715288	-0.103323
H	0.9499095684820756 0.1186926330660508 -0.0003237884356629	0.104953
H	0.8910495223196584 0.0567807633476533 0.0100986846738449	0.122016
H	0.7840416922735626 0.9492663437584035 0.0090473418077109	0.106203
H	0.7219723625857979 0.8906681658739046 0.0087085568376214	0.114924
H	0.5524312962165335 0.7247346471258260 -0.0004568821525064	0.104323
H	0.6125784976333523 0.7850514000782052 0.0098811387680291	0.126644
H	0.4504447709718749 0.6188429312744359 -0.0016379630831609	0.101558
H	0.3912304113929553 0.5565304571283162 0.0100906996732819	0.122205
H	0.2839619157305187 0.4492634251673694 0.0089783471353511	0.106715
H	0.2219564811987368 0.3906508672679709 0.0087028459021814	0.114601
H	0.0521623910710345 0.2241884082405199 -0.0016313938996496	0.100677
H	0.1127943154038068 0.2847770817978090 0.0096917049636003	0.126391
H	0.0511433891691060 0.8794904875855488 0.4984002092664772	0.101130
H	0.1092512333391861 0.9429610015420411 0.5100366218437836	0.122047
H	0.2160462221175798 0.0506954589703754 0.5089496016986150	0.106406
H	0.2780803761872577 0.1092418997848674 0.5086980130000071	0.114935
H	0.4493598980477690 0.2741968460691296 0.4983482489576414	0.100682
H	0.3877433736837324 0.2146270651298073 0.5096959125857630	0.126509
H	0.5514678672650316 0.3799407199689339 0.4996371273922059	0.105450
H	0.6089761689166125 0.4432726916214176 0.5101272791449737	0.121232
H	0.7160352752657816 0.5506899805537061 0.5090149201624358	0.106082
H	0.7781527581615368 0.6092107844937690 0.5086801668175076	0.115098
H	0.9488755433204343 0.7739085784124655 0.4996193332435072	0.104292
H	0.8874948970639899 0.7148422802092430 0.5098089289969859	0.126873
H	0.0509968854088633 0.1206640400453748 0.5016300301140331	0.101311
H	0.1090838858369308 0.0571632518787217 0.4899826607494240	0.121615
H	0.2157242448979774 0.9494399743432635 0.4909725843596619	0.105509
H	0.2778337759772196 0.8909463497582210 0.4913045129072324	0.115406
H	0.4474322834562766 0.7248849169145433 0.5004309408449462	0.104287
H	0.3872965812923496 0.7851959154144683 0.4900746835391064	0.126847
H	0.5494478837182432 0.6190352307329088 0.5016575875192225	0.101923
H	0.6086329644786738 0.5566641146816845 0.4899272623461530	0.122753
H	0.7158502550344522 0.4495179643911182 0.4910042800292755	0.106318
H	0.7778573902649202 0.3908872119104724 0.4912794963674380	0.115559
H	0.9487636559721739 0.2262238392090493 0.5003993925573202	0.104277
H	0.8873799720618442 0.2852614783152390 0.4901846845955936	0.126601
H	0.9497737754059040 0.8814646975942486 0.0002897129624432	0.105571
H	0.8908907023744719 0.9433453407253277 0.9898723873008993	0.122206
H	0.7837093202213721 0.0508905008692731 0.9910800066757444	0.106840
H	0.7217272275181311 0.1095365427665465 0.9912803283856603	0.114386
H	0.5504849760603737 0.2743757926558412 0.0016252480433452	0.100571
H	0.6121154190040384 0.2147894921144107 0.9903483161949863	0.126150
H	0.4484157475591847 0.3801048828716082 0.0003410205027974	0.106131
H	0.3909007938671451 0.4434081361652855 0.9898876952226348	0.121548
H	0.2837622487540579 0.5509497891845467 0.9910221990666381	0.106356
H	0.2216651653833229 0.6094624343249716 0.9913364526435671	0.114464
H	0.0520373811705536 0.7759630385179744 0.0015965466541193	0.100868
H	0.1126606228353714 0.7153361494565332 0.9903026319372796	0.126910
H	0.0511441790696934 0.8794909018037100 0.0015965047401858	0.101112
H	0.1092521289820004 0.9429618195370011 0.9899606163944050	0.122028
H	0.2160466980315979 0.0506960949740169 0.9910515120533134	0.106359
H	0.2780807803099898 0.1092425579580296 0.9913018699428466	0.114943
H	0.4493623309420818 0.2741957520511746 0.0016474153869062	0.100682
H	0.3877447225583244 0.2146276959056523 0.9903018809554321	0.126471
H	0.5514683546719421 0.3799419059942259 0.0003670124388939	0.105467
H	0.6089774885562661 0.4432734385355968 0.9898760482010496	0.121110
H	0.7160353586726035 0.5506901460043202 0.9909854500519871	0.106087
H	0.7781527021945792 0.6092111071679995 0.9913181908562133	0.115085
H	0.9488759907091270 0.7739087086637487 0.0003777993121839	0.104296
H	0.8874953017079108 0.7148425526511545 0.9901901129765344	0.126838
H	0.9499095333687140 0.1186936162521371 0.5003280265453394	0.105010
H	0.8910493862305888 0.0567815802684545 0.4899081324454904	0.121997
H	0.7840421816574954 0.9492668649886260 0.4909506707030418	0.106169
H	0.7219725131034699 0.8906683416654799 0.4912903520816773	0.114880
H	0.5524321355156097 0.7247365136859345 0.5004497818359066	0.104336
H	0.6125792064204071 0.7850527745367196 0.4901122296694491	0.126612
H	0.4504442157296968 0.6188434708162937 0.5016273159969301	0.101551
H	0.3912302011150851 0.5565307170596326 0.4899016529293302	0.122165
H	0.2839623783536612 0.4492638650575482 0.4910209507824368	0.106726
H	0.2219569207350377 0.3906512557384336 0.4912979568906134	0.114603
H	0.0521621832954946 0.2241892495292523 0.5016349840618379	0.100759
H	0.1127945041352294 0.2847777610070636 0.4903088141692986	0.126419
H	0.9497735528670020 0.8814644928906840 0.4997150155972006	0.105608
H	0.8908907878976874 0.9433452683324161 0.5101278815997806	0.122200
H	0.7837095536730502 0.0508904150928329 0.5089250612699995	0.106879
H	0.7217276826956001 0.1095362797584188 0.5087219686010873	0.114353
H	0.5504867649291296 0.2743765175824787 0.4983744624604291	0.100570
H	0.6121166421853604 0.2147887385983229 0.5096513765046236	0.126171
H	0.4484160802583421 0.3801043209838622 0.4996627903681545	0.106124
H	0.3909014804251508 0.4434082382227466 0.5101140211991025	0.121593
H	0.2837627425960828 0.5509493000861739 0.5089782918264577	0.106394
H	0.2216656507976399 0.6094618662769562 0.5086640940127072	0.114524
H	0.0520374460694353 0.7759620375868418 0.4984068856947775	0.100833
H	0.1126608434504640 0.7153353089758585 0.5097014064947449	0.126858
H	0.0509978366788161 0.1206640951903527 -0.0016319085381172	0.101276
H	0.1090845280533815 0.0571630638820740 0.0100165867415522	0.121653
H	0.2157243532510435 0.9494401919655989 0.0090239347235009	0.105482
H	0.2778336033144617 0.8909465076386085 0.0086954804918188	0.115398
H	0.4474331235483582 0.7248836184615499 -0.0004428141657402	0.104235
H	0.3872982850846151 0.7851952266107458 0.0099157365621358	0.126957
H	0.5494468092151200 0.6190353302590791 -0.0016592305191994	0.101931
H	0.6086324203788154 0.5566645591554962 0.0100764145245893	0.122736
H	0.7158511185812328 0.4495172844847978 0.0089963262042178	0.106326
H	0.7778582654470092 0.3908865165384544 0.0087195426493883	0.115537
H	0.9487642971679090 0.2262230685825184 -0.0004037623929661	0.104242
H	0.8873813372536187 0.2852610449147465 0.0098123517644760	0.126574
Cu	0.4999192336293015 0.6729972559681688 0.7499993826265350	0.715230
Cu	-0.0002101544684042 0.1729192832754834 0.7499994222837432	0.714423
Cu	0.4998884069980980 0.3273825070095136 0.2499987844747234	0.712933
Cu	-0.0002095917892078 0.8272907748345252 0.2499992486779232	0.714148
Ga	0.4998999390824088 0.6720334093520771 0.2500060260460347	1.447247
Ga	0.0012686807800385 0.1731552694133258 0.2499973386267604	1.446585
Ga	0.4998708001684617 0.3257364169419208 0.7500069429188972	1.447421
Ga	0.0012728967579382 0.8269485641727722 0.7500015388374127	1.446912
F	0.4997112035957895 0.6077695431192731 0.2500103532694625	-0.587763
F	0.9713373550253268 0.2296670286059820 0.2499945485110236	-0.580971
F	0.9716554877057141 0.1164951555747160 0.2499937515209293	-0.577389
F	0.4997400869736908 0.2615137621430448 0.7500526750405982	-0.591169
F	0.9714178079523731 0.7704270250612948 0.7500066252385371	-0.580617
F	0.9715642079682866 0.8835511970417216 0.7499989965728732	-0.577903
F	0.5545844973071229 0.7027591719706452 0.2499984022285008	-0.579266
F	0.0634017988719731 0.1730680754651703 0.2499993784875050	-0.590296
F	0.4451049550633855 0.3562871614974611 0.7500081352258287	-0.579826
F	0.4453343446318719 0.7030293771303561 0.2499942465935741	-0.580205
F	0.5547098534199600 0.3561320575126659 0.7499751781765813	-0.578964
F	0.0633921216330732 0.8269418331655805 0.7500006047120648	-0.590249
F	0.4998652065256225 0.6730240807261926 0.4813067916511578	-0.577905
F	0.0001009634955651 0.1731767472662387 0.4812973975700519	-0.577706
F	0.4998380884604833 0.3271785576552619 0.9813941901851646	-0.578200
F	0.0000876408685054 0.8271020265929012 0.9813127675331540	-0.577626
F	0.4998674689353673 0.6730201217392955 0.0186999146833742	-0.577865
F	0.0001041033157214 0.1731778841469808 0.0186970978635209	-0.577636
F	0.4998274477392153 0.3271589139423461 0.5186287507240610	-0.578234
F	0.0000877793731602 0.8271029589472282 0.5186961843729859	-0.577619
N	0.5494741801780426 0.7230214741418881 0.7499969623171182	-0.222357
N	0.9514428306497354 0.1216714208429175 0.7500017282567352	-0.221155
N	0.0494980830098428 0.2228348713144449 0.7500011075034628	-0.218543
N	0.4516227053693344 0.6215614729750422 0.7499947682673642	-0.217815
N	0.4508545907982808 0.2767848625225824 0.2499990594727106	-0.217253
N	0.0487724905031971 0.8780078157642922 0.2499990305993829	-0.218095
N	0.9506666458949274 0.7768387372131339 0.2499981850176474	-0.221279
N	0.5487453737163664 0.3781965579207444 0.2500019010874698	-0.220729
N	0.4503646830867520 0.7231049507013482 0.7499943708530094	-0.221334
N	0.0486718377857193 0.1221692208913799 0.7499988246323619	-0.218728
N	0.9505826237101319 0.2233176956468901 0.7499976634840033	-0.222195
N	0.5482229015824165 0.6216884567881026 0.7499998508974997	-0.216590
N	0.5489469077702595 0.2769023448051895 0.2500003469387594	-0.218394
N	0.9513617840697846 0.8784882265383063 0.2500011524924193	-0.220815
N	0.0493949376436952 0.7773520952076217 0.2500017953651502	-0.218487
N	0.4511069535619011 0.3783069603959019 0.2500016209237584	-0.218931
	  	
