#======================================================================

# CRYSTAL DATA

#----------------------------------------------------------------------

data_VESTA_phase_1


_pd_phase_name                         GaFFIVE_5_Co_i
_cell_length_a                         19.59683
_cell_length_b                         19.59903
_cell_length_c                         16.17749
_cell_angle_alpha                      89.99776
_cell_angle_beta                       89.99857
_cell_angle_gamma                      89.98479
_symmetry_space_group_name_H-M         P 1
_symmetry_Int_Tables_number            1

loop_
_symmetry_equiv_pos_as_xyz
   x, y, z

loop_
   _atom_site_label
   _atom_site_fract_x
   _atom_site_fract_y
   _atom_site_fract_z
   _atom_site_charge
F	0.2900845043201130 0.1636997674644294 0.3520555108547091	-0.594159
F	0.1586724831328424 0.2641288024396561 0.3508053546017553	-0.604697
F	0.3110098561222580 0.3230890969913672 0.3511968916567453	-0.599380
F	0.6768359921602141 0.6890498937954688 0.1486346133250165	-0.599539
F	0.7357412676823809 0.8413389752902143 0.1493182280476779	-0.604679
F	0.8362871484923475 0.7098808502990017 0.1478982414525044	-0.594341
F	0.6586414117021643 0.7640023800291924 0.6491660993917500	-0.604746
F	0.7900654667205432 0.6636261141814420 0.6479861706605581	-0.594301
F	0.8110081807735399 0.8231062799592358 0.6486662420805640	-0.599490
F	0.1769019895630291 0.1890064280844658 0.8514779377578729	-0.599473
F	0.3363128566197928 0.2099126624465341 0.8520630083017119	-0.594258
F	0.2358392819935615 0.3413173654698122 0.8507343598842704	-0.604641
F	0.2495577883559440 0.2494272444044488 0.4689704728486982	-0.554887
F	0.2501622901385908 0.2487087193939449 0.2336642363508482	-0.555558
F	0.7506132911280120 0.7504572470685249 0.0310482836260410	-0.554893
F	0.7512961282242354 0.7497337723851036 0.2663585372971434	-0.555611
F	0.7495706530654426 0.7494126138891943 0.5310150715707281	-0.554942
F	0.7502420740344246 0.7487903109506967 0.7663009751513488	-0.555578
F	0.2506607839118225 0.2504654134847557 0.9689834428468398	-0.554889
F	0.2512182474133313 0.2497034088160580 0.7336821875436322	-0.555654
N	0.3500380360420092 0.2478143981514985 0.6005805741265867	-0.187055
N	0.1500565928682018 0.2525828079889807 0.6020520545487646	-0.187075
N	0.2522469442837160 0.3500676876606033 0.6010812997077570	-0.187129
N	0.2474181118876830 0.1499507534377147 0.6021919127904503	-0.188128
N	0.6499511043905200 0.7477431835462404 0.8989403175610583	-0.186692
N	0.8500445018447547 0.7525658202750961 0.8977852724964531	-0.187993
N	0.7474254026709749 0.8499340079606850 0.8979410114306501	-0.187173
N	0.7521953367360245 0.6499673284584375 0.8994127854906081	-0.186880
N	0.6500990023398650 0.7525916171704489 0.3979399735886363	-0.187149
N	0.8500041221261123 0.7477999135791752 0.3994423205191091	-0.186936
N	0.7474071824686599 0.6498630468417947 0.3978122530131413	-0.187671
N	0.7522520687053288 0.8501507917503810 0.3989352041072999	-0.187526
N	0.3500708415416355 0.2525668981341584 0.1022292752364715	-0.188191
N	0.1499184062748375 0.2477362207858876 0.1010317045325478	-0.187030
N	0.2521918737936720 0.1499613698348899 0.1005694391693409	-0.186943
N	0.2474224523763244 0.3499324676362546 0.1020670998824378	-0.187103
C	0.3839164831803197 0.2190536752147463 0.6644106188318027	0.088514
C	0.4546462949985039 0.2174904880121964 0.6676766068119760	-0.176646
C	0.4932364515433220 0.2472625817398136 0.6042051908996731	0.100600
C	0.4570378398362022 0.2769809222308097 0.5384767089129086	-0.180259
C	0.3861755157744862 0.2760324668260093 0.5381484241833443	0.090261
C	0.5683090192902928 0.2479058408606484 0.6073931646259055	0.055701
C	0.6048251059221076 0.1912395178360361 0.6371786601922831	-0.130367
C	0.6757299198015335 0.1920067950938599 0.6399208375199867	-0.125074
C	0.7124792436775904 0.2498760716924341 0.6143990834507926	0.066987
C	0.6759027985117686 0.3069360265501653 0.5860411575140339	-0.120740
C	0.6050682281669021 0.3056865442124340 0.5817453441385448	-0.126753
C	0.1162434452145721 0.2813946028933784 0.6658420307984994	0.094405
C	0.0455220463691763 0.2828652612717164 0.6693022570340619	-0.177698
C	0.0068843369721818 0.2528834154571780 0.6058926425644791	0.103634
C	0.0430099193747911 0.2234673803365927 0.5400291658083624	-0.176191
C	0.1138046206838365 0.2246738393288977 0.5396672895092914	0.096717
C	0.9318142726469296 0.2521004161771999 0.6087060196218026	0.056067
C	0.8951914016621962 0.3088359916464776 0.6380049182765947	-0.130766
C	0.8242891846628020 0.3081658878938414 0.6401779853400266	-0.123925
C	0.7876334678145424 0.2502725239616949 0.6145434184619084	0.067331
C	0.8243031906079856 0.1932239225825841 0.5863324214858558	-0.120441
C	0.8951631613770071 0.1943596842400307 0.5826144762921345	-0.126336
C	0.2809260751727846 0.3839507376153271 0.6648512113218162	0.096339
C	0.2825632306499329 0.4546389300050697 0.6682003697555277	-0.174814
C	0.2528374248172571 0.4932442128508387 0.6046814905963162	0.102966
C	0.2231051436556893 0.4570683535993266 0.5389408606992040	-0.179021
C	0.2240768229684895 0.3862753413742189 0.5388087523298737	0.094329
C	0.2521810530532723 0.5683194564410167 0.6077230214708037	0.055949
C	0.3088796620859365 0.6048302903944499 0.6373648502171592	-0.130148
C	0.3080875247182278 0.6757094128437757 0.6399689715418518	-0.124877
C	0.2501812995516390 0.7123988630495059 0.6144409899662457	0.068177
C	0.1931278689030873 0.6758333519889479 0.5861000633164769	-0.119852
C	0.1943885178367962 0.6050162434207509 0.5819709703310310	-0.126852
C	0.2186278042348146 0.1161731159144377 0.6661493675420747	0.090787
C	0.2171410974942266 0.0454180965636925 0.6694456472068289	-0.178979
C	0.2470423248375346 0.0067568762279865 0.6059857404254522	0.100657
C	0.2764852780796142 0.0429033720845937 0.5401268417455058	-0.178115
C	0.2753421006720632 0.1137284686720799 0.5396947874320305	0.088577
C	0.2478264314888060 0.9316589048679408 0.6087523295906283	0.056789
C	0.1910880099277460 0.8950454990898219 0.6380409490247274	-0.130849
C	0.1917974536094005 0.8241600537487975 0.6401719088181724	-0.124575
C	0.2497145583569067 0.7875377755260705 0.6145455057100464	0.065880
C	0.3067710643026366 0.8241757929934944 0.5863284116009895	-0.120603
C	0.3055797948622599 0.8950200568383916 0.5826498246544877	-0.126257
C	0.6160599111005497 0.7190780684325133 0.8351541439696025	0.096082
C	0.5453620326097910 0.7174592540869095 0.8317951729424330	-0.174902
C	0.5067611532016054 0.7471781006792518 0.8953098151245323	0.102799
C	0.5429339863652766 0.7769032124381897 0.9610563329303288	-0.178825
C	0.6137329670551057 0.7759159437767972 0.9612097096544553	0.093511
C	0.4316888924936672 0.7478366866108616 0.8922644746218211	0.056207
C	0.3951950173728202 0.6911320472367982 0.8626145244783222	-0.130325
C	0.3243005216345433 0.6919240753577980 0.8600256547863830	-0.124796
C	0.2876046810813737 0.7498171950501820 0.8855592968442904	0.068136
C	0.3241741439116211 0.8068695204591187 0.9138986908479003	-0.119796
C	0.3950015405838671 0.8056257275294358 0.9180218106194579	-0.127132
C	0.8838270909368138 0.7813594651641665 0.8338288631476731	0.090580
C	0.9545929051479779 0.7828568985129994 0.8305522938443062	-0.179089
C	0.9932466164774697 0.7529674281032834 0.8940208124480770	0.100437
C	0.9571039308839722 0.7235193979318272 0.9598682056997292	-0.178016
C	0.8862694137368815 0.7246431018908074 0.9602912289189653	0.088535
C	0.0683440110160947 0.7521885021406107 0.8912595270464706	0.056772
C	0.1049458309933668 0.8089254948512304 0.8619573106131343	-0.130873
C	0.1758437955017329 0.8081993970287480 0.8598262480013446	-0.124514
C	0.2124689243761005 0.7502872113993710 0.8854568640962035	0.065825
C	0.1758231571303239 0.6932394936861194 0.9136772419064850	-0.120474
C	0.1049655728451290 0.6944292847403540 0.9173674170378139	-0.126207
C	0.7186092187555090 0.8837457166389313 0.8341510495218173	0.094329
C	0.7171302306790702 0.9544527547887580 0.8306934764861869	-0.177573
C	0.7471183847972953 0.9930951569514229 0.8941117186407538	0.103350
C	0.7765371078562737 0.9569585547219160 0.9599830520600589	-0.176402
C	0.7753314737914343 0.8861771081551320 0.9603302767053045	0.097008
C	0.7478989722478178 0.0681845078190150 0.8913015118414733	0.056138
C	0.6911679418770948 0.1048031438874730 0.8620037451830630	-0.130827
C	0.6918398358799667 0.1756983884735652 0.8598357775348996	-0.124072
C	0.7497322115149747 0.2123640062638358 0.8854664663998045	0.067355
C	0.8067733159345286 0.1756748208298594 0.9136742876286250	-0.120325
C	0.8056294051616675 0.1048261245396898 0.9173930104212282	-0.126166
C	0.7809489705503357 0.6160963680464678 0.8355735295929378	0.088292
C	0.7825056830137641 0.5453821568748013 0.8322974068692395	-0.176414
C	0.7527281931418712 0.5067872034899042 0.8957793014338280	0.100242
C	0.7230084779502800 0.5429937815325090 0.9615167941361380	-0.179929
C	0.7239691098100749 0.6138440989402366 0.9618512718494689	0.090245
C	0.7520841137613493 0.4317006651789168 0.8925974481227003	0.055210
C	0.8087455584107131 0.3951868060556856 0.8628139160679007	-0.130010
C	0.8079881170607460 0.3242969920960712 0.8600896682870193	-0.124962
C	0.7501243538083143 0.2875288477631950 0.8856125444447530	0.066695
C	0.6930692436325502 0.3241176694702180 0.9139686833165669	-0.120602
C	0.6943110448231270 0.3949407329426780 0.9182537622778664	-0.126448
C	0.6162933095144130 0.7814211723729948 0.3341559025313253	0.094082
C	0.5455762895855094 0.7828873759605669 0.3306943979665293	-0.177489
C	0.5069291742400106 0.7528869510965550 0.3941004754703276	0.103518
C	0.5430622578442710 0.7234644151690978 0.4599657073398782	-0.176045
C	0.6138495863196933 0.7246685422122149 0.4603201639658349	0.096850
C	0.4318488016066991 0.7521061257085221 0.3912867539478814	0.055868
C	0.3952183997839310 0.8088342656478599 0.3619926935589016	-0.130659
C	0.3243130022032238 0.8081650120859817 0.3598260587727678	-0.123821
C	0.2876450816149129 0.7502727915426788 0.3854606301011693	0.067207
C	0.3243317611828096 0.6932286965782370 0.4136729041826684	-0.120421
C	0.3951957475713648 0.6943702867409439 0.4173840484396801	-0.126105
C	0.8838836540230586 0.7190274699663627 0.3356220277894968	0.088381
C	0.9546060740788707 0.7174728905110942 0.3323343606376206	-0.176691
C	0.9932010131886639 0.7472645319770134 0.3957994280874779	0.100282
C	0.9569905102820112 0.7769894047706181 0.4615250837843030	-0.179809
C	0.8861375038720388 0.7760301644132047 0.4618647047031568	0.090168
C	0.0682797806465641 0.7479110238423367 0.3926082647343363	0.055250
C	0.1048024756806312 0.6912512003348921 0.3628187619848419	-0.130106
C	0.1757040259636230 0.6920158077060068 0.3600852227074037	-0.124937
C	0.2124704565338247 0.7498751707701068 0.3856066244100653	0.066850
C	0.1758806575717398 0.8069311685593633 0.4139673978741135	-0.120772
C	0.1050447445490883 0.8056853584839235 0.4182569471367141	-0.126447
C	0.7186276744128086 0.6160772269062638 0.3338533195078327	0.090445
C	0.7171357999611799 0.5453213558680339 0.3305515277457923	-0.178995
C	0.7470270252005135 0.5066492758378910 0.3940050286918821	0.100839
C	0.7764568765109228 0.5427871632502130 0.4598721065854345	-0.178119
C	0.7753231290053946 0.6136120114357493 0.4602918606284594	0.088086
C	0.7478159795099966 0.4315774002830381 0.3912301136765935	0.056651
C	0.6910642321421923 0.3949795239215736 0.3619449448627278	-0.130941
C	0.6917849785023005 0.3240979724152575 0.3597998462014749	-0.124448
C	0.7497149431220750 0.2875150000655186 0.3854217880146510	0.066769
C	0.8067798095393277 0.3241077511549781 0.4136457947423110	-0.121223
C	0.8055793075980824 0.3949520732083565 0.4173294281580782	-0.126025
C	0.7809191675293002 0.8840523806283191 0.3351671505617235	0.096964
C	0.7825602053664437 0.9547451348209630 0.3318047363654913	-0.174776
C	0.7528490480170223 0.9933464885791675 0.3953285678037813	0.102770
C	0.7231174707436188 0.9571727324930943 0.4610750399847607	-0.178729
C	0.7240880704430273 0.8863741600439434 0.4612053714909778	0.093988
C	0.7521828966867218 0.0683974204369812 0.3922745564139977	0.055389
C	0.8088942249721619 0.1048944310952343 0.3626311127913849	-0.130133
C	0.8080962542724124 0.1757673527099431 0.3600069110793584	-0.124727
C	0.7501790493436133 0.2124232283284622 0.3855329959598248	0.068159
C	0.6931107015962357 0.1758904336492846 0.4138769055758469	-0.120957
C	0.6943767214498475 0.1050807124107053 0.4180140518868528	-0.126037
C	0.3838549485841198 0.2813597592967756 0.1661755236880166	0.090656
C	0.4546227904575693 0.2828656528289758 0.1694472132381995	-0.179099
C	0.4932784292516946 0.2529811065031285 0.1059818624015542	0.100641
C	0.4571364272979960 0.2235378368983491 0.0401349665953458	-0.178420
C	0.3863043748135573 0.2246560099066884 0.0397284793195864	0.088828
C	0.5683708534511976 0.2521978244344208 0.1087453757623860	0.056687
C	0.6049745519306859 0.3089357481784167 0.1380379183305105	-0.130539
C	0.6758648661769441 0.3082040034716271 0.1401876515297101	-0.124538
C	0.7124692878392700 0.2502816492844471 0.1145611533720887	0.066325
C	0.6758438946675579 0.1932309692305887 0.0863362416990819	-0.120909
C	0.6049898041417655 0.1944314306589056 0.0826432437916653	-0.126454
C	0.1160294418916335 0.2190733799339927 0.1648103495929351	0.096376
C	0.0453336590014515 0.2174521309008178 0.1681931522558299	-0.174928
C	0.0067199483634870 0.2471722473024887 0.1046783435204428	0.102928
C	0.0428919729176436 0.2768940632643168 0.0389209507066470	-0.178883
C	0.1136945710933787 0.2759058364537469 0.0387655129849821	0.094253
C	0.9316600067041337 0.2478308745577242 0.1077422408200785	0.055839
C	0.8951647218150133 0.1911196444739039 0.1373882151221863	-0.130460
C	0.8242760390632422 0.1919094835852576 0.1399911917629486	-0.124487
C	0.7875945845192491 0.2498144001172397 0.1144592461226795	0.067965
C	0.8241439620629449 0.3068746428856137 0.0861176968533134	-0.120014
C	0.8949692373919697 0.3056290343395673 0.0819876142349580	-0.126924
C	0.2809518273118786 0.1160883563430417 0.1644044782643639	0.088515
C	0.2825083147077872 0.0453722550699184 0.1676822830289507	-0.176618
C	0.2527281191561339 0.0067816832332402 0.1042122193455578	0.100491
C	0.2230084657466468 0.0429854795218198 0.0384814545865156	-0.180077
C	0.2239645145180051 0.1138357661614763 0.0381416063003078	0.090360
C	0.2520838522843484 0.9317093612314881 0.1074028178804002	0.055175
C	0.3087451869624437 0.8951805550797791 0.1371825179643053	-0.129984
C	0.3079903514182050 0.8242828330289058 0.1399134028605333	-0.124951
C	0.2501276334335315 0.7875217616544603 0.1143937171013043	0.066869
C	0.1930685389728065 0.8241060738626566 0.0860394755027491	-0.120662
C	0.1943157051854590 0.8949341674938613 0.0817545132713516	-0.126588
C	0.2186020717127337 0.3837397163480264 0.1658549868978234	0.094256
C	0.2171255405055064 0.4544497944989570 0.1693066017308201	-0.177749
C	0.2471103527797924 0.4930930303778041 0.1058922226450542	0.103441
C	0.2765354153912954 0.4569645657499883 0.0400305571945366	-0.176223
C	0.2753331042927615 0.3861812272175792 0.0396798906585777	0.096857
C	0.2478924252112433 0.5681660908282310 0.1086998943366547	0.056281
C	0.1911661100781278 0.6048041848233272 0.1379962188610866	-0.130847
C	0.1918360094152694 0.6757002369592503 0.1401686928315971	-0.123950
C	0.2497325664790042 0.7123619418910451 0.1145388547027062	0.067349
C	0.3067764335010083 0.6756795813448244 0.0863317184122663	-0.120365
C	0.3056290695606259 0.6048262466736578 0.0826125285853677	-0.126338
H	0.3532261133098468 0.1993662531068978 0.7152850400689730	0.108924
H	0.4791940666859140 0.1949169624325442 0.7215737487758557	0.117511
H	0.4838625184193252 0.2998376594444765 0.4863507494956566	0.115376
H	0.3568697760766186 0.2973091587680676 0.4868500003305220	0.105932
H	0.5771244241142478 0.1457897902646792 0.6569598603651846	0.100391
H	0.7032741470017708 0.1476977266407479 0.6634424480588716	0.101244
H	0.7035567305327263 0.3519405492760842 0.5648318582508413	0.102512
H	0.5775925731374464 0.3504240100244482 0.5593951483266136	0.103000
H	0.1477797419174695 0.3022635193389561 0.7152101125166784	0.102710
H	0.0207012349627083 0.3055754353938521 0.7229235372293406	0.115000
H	0.0162294387186737 0.2009932239257201 0.4876559054482811	0.116530
H	0.1431839186876972 0.2049250721604257 0.4878364538006515	0.104951
H	0.9228487698246869 0.3543514991853478 0.6576407835192184	0.099886
H	0.7967017176439208 0.3526112241849024 0.6631910988061692	0.102512
H	0.7967055020890315 0.1483092444415790 0.5647136566314711	0.102476
H	0.9226696349960127 0.1496100954429227 0.5603493026894667	0.103421
H	0.3004896232337309 0.3527218486716115 0.7151149267484666	0.105291
H	0.3049404340604676 0.4793293996364973 0.7221001404202954	0.116844
H	0.2003854657126838 0.4839798307989183 0.4867976577592535	0.114833
H	0.2028707151499889 0.3565481089488609 0.4880415544090848	0.103310
H	0.3543454777364990 0.5771247366268810 0.6570672489104055	0.099405
H	0.3524089715255200 0.7032900423766160 0.6633421497565367	0.102117
H	0.1481571147795430 0.7034771922672300 0.5648124766921111	0.102294
H	0.1496530106831807 0.5775161239897072 0.5597199609847865	0.103073
H	0.1979170336128293 0.1471833812667842 0.7162566122891814	0.106008
H	0.1943343708875560 0.0206807931561859 0.7231009525414736	0.115947
H	0.2991137714165756 0.0161899467619773 0.4877652765352962	0.116604
H	0.2953468831694155 0.1426095300328597 0.4873829968985894	0.108610
H	0.1456046203899470 0.9227057321680099 0.6577646172722127	0.100252
H	0.1473991263961260 0.7965243868571690 0.6632047915832134	0.101830
H	0.3516626980995710 0.7965376498847454 0.5647175065677086	0.102379
H	0.3502917262670994 0.9225324882752393 0.5603289768365468	0.103768
H	0.6473128403804701 0.6995223882983023 0.7849296135398521	0.105352
H	0.5207128223219518 0.6950712721991998 0.7778680179384241	0.117014
H	0.5160493130969035 0.7996350745390121 0.0132165024788629	0.114923
H	0.6434808765659943 0.7970964161596060 0.0119628704561875	0.103622
H	0.4228958069050248 0.6456571606887604 0.8429118360547693	0.099500
H	0.2967298432764247 0.6475878183563638 0.8366546498890188	0.102061
H	0.2965297511066172 0.8518460801381642 0.9352049150930980	0.102334
H	0.4224908784887174 0.8503751960278351 0.9402822218184527	0.103257
H	0.8528018109889597 0.8020482362613264 0.7837371422441791	0.106122
H	0.9793019006107162 0.8056788800879546 0.7768861733643330	0.116073
H	0.9837838866925481 0.7008808009682095 0.0122521735952862	0.116660
H	0.8573616778965815 0.7046415535475881 0.0125679272770395	0.108590
H	0.0772931210301698 0.8544183705167103 0.8422344125204931	0.100324
H	0.2034755496499799 0.8526086437018482 0.8367797902382640	0.101782
H	0.2034520198199926 0.6483328074882767 0.9352893226700228	0.102322
H	0.0774594563489432 0.6497106909448616 0.9396919060939738	0.103739
H	0.6977546398028993 0.8522169154692654 0.7847832283704836	0.102917
H	0.6944141083387764 0.9792938791524395 0.7770883490503059	0.115013
H	0.7990084490305256 0.9837455701732666 0.0123532080330071	0.116527
H	0.7950824855715969 0.8567914791037242 0.0121421230781672	0.104788
H	0.6456618735857358 0.0771487579714842 0.8423610431749967	0.099965
H	0.6473928243304593 0.2032832962661601 0.8368203715221912	0.102515
H	0.8516936703752075 0.2032680244908809 0.9352863906928216	0.102343
H	0.8503751895201443 0.0773166209674684 0.9396532119427824	0.103365
H	0.8006352238897715 0.6467853752905737 0.7847060710679461	0.108928
H	0.8050758141539516 0.5208178714965461 0.7784106721587433	0.117550
H	0.7001518242468924 0.5161527929672024 0.0136289596663091	0.115335
H	0.7026998814150058 0.6431453051613832 0.0131372751971711	0.105994
H	0.8541832839509121 0.4228946582638899 0.8430304144442365	0.100436
H	0.8523023429074417 0.2967539064310886 0.8365785556926898	0.101174
H	0.6480655491666814 0.2964672206095179 0.9351801651392142	0.102430
H	0.6495842630223736 0.4224198729574707 0.9405970890336610	0.102852
H	0.6478198907409591 0.8023080533474275 0.2847819834729298	0.103073
H	0.5207407353663914 0.8056043177977995 0.2770918376050394	0.114919
H	0.5162690926675986 0.7009897369038216 0.5123275867077071	0.116354
H	0.6432196409176815 0.7048956070156224 0.5121525236728603	0.104990
H	0.4228748713255553 0.8543489010403644 0.3423463594757388	0.099705
H	0.2967366975150256 0.8526151864471383 0.3368110965914460	0.102470
H	0.2967499826477439 0.6483049619004149 0.4352875710210001	0.102449
H	0.4227005317738741 0.6496206052498473 0.4396479511448771	0.103438
H	0.8531979389599330 0.6993098685628222 0.2847550211249229	0.108852
H	0.9791700175559706 0.6948928832356813 0.2784604515387885	0.117716
H	0.9838350293954000 0.7998477233432248 0.5136291289132103	0.115252
H	0.8568422529007989 0.7973230486813072 0.5131676567298541	0.105978
H	0.0770983722303872 0.6458086814446639 0.3430337911232143	0.100455
H	0.2032389068153197 0.6477002236068513 0.3365666288483429	0.101148
H	0.2035180057885126 0.8519365738891981 0.4351704124149394	0.102508
H	0.0775665521496740 0.8504173483765537 0.4406000086643684	0.102852
H	0.6979168422004896 0.6471149920240761 0.2837727211530085	0.105952
H	0.6943304647785472 0.5206205271758519 0.2768735375445341	0.116097
H	0.7990990850020825 0.5160857064555133 0.5122372825651276	0.116531
H	0.7953296812342708 0.6425073457613550 0.5125927480809662	0.108625
H	0.6455689667739318 0.4226377606720232 0.3422473548310849	0.100389
H	0.6474027635803667 0.2964332094927520 0.3367692098071527	0.101640
H	0.8516582193931186 0.2964411337995957 0.4352620679154178	0.102575
H	0.8502926021001689 0.4224602200610901 0.4396488806368019	0.103721
H	0.8004837915739391 0.8528089268059816 0.2849217949737488	0.105210
H	0.8049456125114121 0.9794192699813115 0.2778865677773688	0.116672
H	0.7003936997076610 0.9840677424249380 0.5132216459404976	0.114829
H	0.7028811660291330 0.8566372773382828 0.5119662924208906	0.103307
H	0.8543703092068569 0.0771888575073932 0.3429533471785511	0.099493
H	0.8524035160230897 0.2033812877042262 0.3366317599749992	0.102111
H	0.6481509944099255 0.2035736894121427 0.4351739335303359	0.102601
H	0.6496390754907070 0.0775790451063440 0.4402707908908676	0.103196
H	0.3528391317211896 0.3020646802368892 0.2162878494967985	0.106041
H	0.4793394562519807 0.3056780622435091 0.2231071451506513	0.116006
H	0.4838293422345346 0.2009125385887729 0.9877541845918242	0.116716
H	0.3574075487977584 0.2046435906318482 0.9874347580804077	0.108544
H	0.5773192679255177 0.3544339536015752 0.1577569344676771	0.100235
H	0.7035097728410109 0.3525923488755806 0.1632308448080067	0.101652
H	0.7034809906167879 0.1483361698253469 0.0647279826454934	0.102523
H	0.5774751398551859 0.1497189807726441 0.0603193639497952	0.103903
H	0.1472797868267031 0.1995064292513180 0.2150517034933794	0.105297
H	0.0206714443282009 0.1950698043999395 0.2221170938777915	0.116850
H	0.0159872594842404 0.2996155800987154 0.9867730209352847	0.114788
H	0.1434226434318228 0.2971019385462920 0.9879862905677401	0.103208
H	0.9228700304050226 0.1456433195501933 0.1570800244193488	0.099576
H	0.7966926260395041 0.1475851877504868 0.1633568594509755	0.102072
H	0.7964878761378801 0.3518402688995518 0.0648157391762772	0.102314
H	0.9224612978534436 0.3503758692692354 0.0597289025134097	0.103321
H	0.3006542414609760 0.1467715598741005 0.2152824858621362	0.108839
H	0.3050743447130264 0.0207990175331362 0.2215595425044343	0.117511
H	0.2001533518340025 0.0161356621649092 0.9863831501874665	0.115356
H	0.2026781256719112 0.1431261200595828 0.9868270753532076	0.105929
H	0.3541830303404908 0.9228859549326222 0.1569662631670368	0.100398
H	0.3523014741239556 0.7967409975990333 0.1634260581043437	0.101101
H	0.1480693537916704 0.7964568880280832 0.0648341973433866	0.102399
H	0.1495866267631014 0.9224139308223753 0.0594088006251465	0.102891
H	0.1977339588918581 0.3522149066349938 0.2152439080870377	0.103109
H	0.1944157809582493 0.4792934350119559 0.2229060898211455	0.114995
H	0.2990035821926166 0.4837615155962188 0.9876705206350839	0.116479
H	0.2950987817530838 0.3568077001283297 0.9878477592738472	0.104851
H	0.1456558801264187 0.5771475866171106 0.1576393181767480	0.099837
H	0.1473922807945624 0.7032874814361290 0.1631825992911677	0.102474
H	0.3516971805430926 0.7032715163984744 0.0647214911221567	0.102371
H	0.3503732303085551 0.5773161400331297 0.0603512004600361	0.103396
Co	0.2500060531185335 0.2500386291010080 0.6008460983693149	0.583718
Co	0.7499787054972240 0.7499787373243577 0.8991496827120483	0.583570
Co	0.7500077004594933 0.7500345191581937 0.3991669523376614	0.583949
Co	0.2499752731454200 0.2499772288766557 0.1008438277689000	0.583689
Ga	0.2518622481082585 0.2499317422444925 0.3514254325494842	1.459078
Ga	0.7500443731592906 0.7481558423116371 0.1485902977561378	1.459219
Ga	0.7518735466985936 0.7499031462258144 0.6485346534005406	1.459266
Ga	0.2500726062699266 0.2481373046462041 0.8514598911918980	1.459275
	  	
