#======================================================================

# CRYSTAL DATA

#----------------------------------------------------------------------

data_VESTA_phase_1


_pd_phase_name                         GaFFIVE_4_Cd_i
_cell_length_a                         24.35979
_cell_length_b                         21.31470
_cell_length_c                         9.34197
_cell_angle_alpha                      90.00011
_cell_angle_beta                       90.00034
_cell_angle_gamma                      89.98308
_symmetry_space_group_name_H-M         P 1
_symmetry_Int_Tables_number            1

loop_
_symmetry_equiv_pos_as_xyz
   x, y, z

loop_
   _atom_site_label
   _atom_site_fract_x
   _atom_site_fract_y
   _atom_site_fract_z
   _atom_site_charge
C	0.4108255197214415 0.5933614643953022 0.6273490763005284	0.102907
C	0.3685538431059398 0.5496309465007384 0.6251385038078724	-0.174123
C	0.2759767770148113 0.4499423485091037 0.6246828193498416	-0.120231
C	0.2318481755330052 0.4086931121531417 0.6234974547332294	-0.114182
C	0.1349386083669988 0.3241182236838205 0.6219741531017844	-0.171008
C	0.0899405714199691 0.2841572797945269 0.6258931454966369	0.098285
C	0.9108741866856880 0.0932914771697959 0.6273348706040015	0.103883
C	0.8685806299492417 0.0495855602076790 0.6251155982046979	-0.174218
C	0.7759630661255128 0.9499431976735830 0.6246770743018750	-0.120303
C	0.7318294780353303 0.9087005006294718 0.6234936963473843	-0.114341
C	0.6349019995413040 0.8241626123364094 0.6219605089671491	-0.170730
C	0.5898982133433452 0.7842118743905715 0.6258735812404487	0.098229
C	0.5895010041444384 0.4060832599209817 0.1276088670527570	0.103897
C	0.6315417395905097 0.4500879578950823 0.1250570258025402	-0.178204
C	0.7243382291767494 0.5495736969626427 0.1246904325502492	-0.118244
C	0.7682546957640932 0.5910448921029274 0.1234436553812803	-0.114812
C	0.8647092082735803 0.6762186952085731 0.1218523963443802	-0.169290
C	0.9096439298501698 0.7162529635832138 0.1255361116745945	0.095697
C	0.0894180354147085 0.9062306881667261 0.1276108896408064	0.104000
C	0.1315064840706190 0.9501689397285268 0.1250665568560178	-0.178183
C	0.2243623139701529 0.0495596388469761 0.1247004412027032	-0.117368
C	0.2682804723235520 0.0910291593041057 0.1234545417744830	-0.115303
C	0.3647600177319075 0.1761402584659215 0.1218468312715592	-0.169357
C	0.4097081811868119 0.2161523044943739 0.1255261719699914	0.096518
C	0.5900346755833469 0.5943448041066284 0.8725820820594409	0.104757
C	0.6318395613753969 0.5499916096486206 0.8749456816894930	-0.177525
C	0.7242769042140221 0.4499806462292034 0.8753113364813506	-0.118660
C	0.7683729317594427 0.4087115183147151 0.8765162256092088	-0.114791
C	0.8656266063786758 0.3246559162278435 0.8781069919103975	-0.168929
C	0.9108059939030951 0.2849405351037550 0.8743546582146179	0.098726
C	0.0900497626569303 0.0943537224874374 0.8725850077232113	0.105242
C	0.1318628694496843 0.0500122137389478 0.8749458107499679	-0.177650
C	0.2242596712346716 0.9499682930837652 0.8753133008604550	-0.118916
C	0.2683547810494371 0.9086985834667937 0.8765152095129951	-0.114766
C	0.3656262940446836 0.8246875448469652 0.8780972772167397	-0.168790
C	0.4108194626283204 0.7849926856060321 0.8743423420582137	0.098001
C	0.4116887288937559 0.4074733829038913 0.3725848741328436	0.103560
C	0.3690808045012576 0.4507911136667822 0.3749027335425055	-0.173630
C	0.2757975761677081 0.5496096287481665 0.3753108705635027	-0.119961
C	0.2318457569128088 0.5911066873214597 0.3765285837302741	-0.115357
C	0.1357524823457144 0.6768954820135334 0.3780727137106665	-0.171147
C	0.0908885107265861 0.7170712960256074 0.3743173329700044	0.097712
C	0.9116869393086304 0.9074427791469113 0.3725583520771437	0.103991
C	0.8690746540224192 0.9507549838182358 0.3748984510267725	-0.173893
C	0.7758095454682389 0.0496057318801828 0.3753103666146768	-0.119448
C	0.7318577327338509 0.0911078527473961 0.3765242494182660	-0.115670
C	0.6357586652696012 0.1768815155043471 0.3780625185273710	-0.171451
C	0.5908837220608922 0.2170470169211608 0.3743002412064663	0.097952
C	0.5895040190331702 0.4060867002188012 0.3723862837817055	0.103948
C	0.6315440441253672 0.4500907572079038 0.3749286103873928	-0.177935
C	0.7243371780970975 0.5495725905747444 0.3752969967733593	-0.118016
C	0.7682541148056758 0.5910444226218907 0.3765465274176515	-0.114943
C	0.8647092070680017 0.6762184665341016 0.3781483804013978	-0.169183
C	0.9096444095486446 0.7162530513754838 0.3744652537096771	0.095497
C	0.0894166190442100 0.9062329155369049 0.3723926630799569	0.103930
C	0.1315040928558607 0.9501715352846152 0.3749387539553841	-0.178092
C	0.2243618403960276 0.0495618885254154 0.3753031572818155	-0.117446
C	0.2682809510883095 0.0910308217585165 0.3765478498163217	-0.115272
C	0.3647593459984268 0.1761389205148783 0.3781528998712905	-0.169437
C	0.4097065929743597 0.2161495185021799 0.3744818748461376	0.096616
C	0.4108286650847751 0.5933613740973971 0.8726747440141689	0.102759
C	0.3685556589056582 0.5496301525253199 0.8748878313967021	-0.173968
C	0.2759753344705206 0.4499408045181013 0.8753321100482450	-0.120163
C	0.2318478264217789 0.4086927156011214 0.8765110765248021	-0.114018
C	0.1349412019213755 0.3241184148306125 0.8780295343416767	-0.171242
C	0.0899431249484639 0.2841581679185192 0.8741146108035120	0.098622
C	0.9108732247899014 0.0932919722331042 0.8726723484378769	0.103922
C	0.8685791600561062 0.0495866071475353 0.8748865168716019	-0.174259
C	0.7759633903628800 0.9499450616099017 0.8753209782587539	-0.120328
C	0.7318299247040823 0.9087017175815930 0.8765065464938568	-0.114308
C	0.6349014231291580 0.8241634578975210 0.8780388169847166	-0.170829
C	0.5898981080519806 0.7842126953133739 0.8741278869565460	0.098344
C	0.4116906384349372 0.4074692031511590 0.1274305191256270	0.103601
C	0.3690825332482295 0.4507874438159593 0.1250992235958756	-0.173584
C	0.2757967264978354 0.5496108877567397 0.1246830813222323	-0.120013
C	0.2318446203907410 0.5911075515675102 0.1234698914611388	-0.115268
C	0.1357521389688131 0.6768962556695783 0.1219241555619214	-0.171220
C	0.0908878139317038 0.7170718826632064 0.1256822900112066	0.097726
C	0.9116863843270109 0.9074432754638826 0.1274462914808319	0.103938
C	0.8690739582296466 0.9507558664541220 0.1251066530638487	-0.173820
C	0.7758092088159213 0.0496066568328362 0.1246928905360050	-0.119680
C	0.7318573318542585 0.0911078651391502 0.1234765232819858	-0.115524
C	0.6357562253347772 0.1768855258937308 0.1219440416495260	-0.171555
C	0.5908800317596964 0.2170504970079387 0.1257157022798843	0.098066
C	0.5900362215402413 0.5943451671301390 0.6274064042146209	0.104803
C	0.6318408769936041 0.5499926762360897 0.6250471260862408	-0.177558
C	0.7242770873442255 0.4499806701940138 0.6246892839493102	-0.118669
C	0.7683729514067211 0.4087117771984829 0.6234847683700178	-0.114735
C	0.8656281128435724 0.3246544773158230 0.6219061919940748	-0.169203
C	0.9108074988951642 0.2849392169641095 0.6256635856637125	0.098746
C	0.0900496561167177 0.0943571106324924 0.6274187241118507	0.105255
C	0.1318628841835816 0.0500154977353012 0.6250535726252372	-0.177666
C	0.2242597323512950 0.9499703825732917 0.6246854367956709	-0.118920
C	0.2683539014612920 0.9086993706998366 0.6234836556456989	-0.114768
C	0.3656265040910485 0.8246887555164841 0.6218979447067901	-0.168822
C	0.4108192135873815 0.7849933126370322 0.6256530316099943	0.098085
C	0.3451376480290403 0.5236010917306015 0.7500118078175450	0.111457
C	0.2998310080885613 0.4750564301919104 0.7500094360132381	0.067426
C	0.2072118242641168 0.3874186515328015 0.7500025393204131	0.064489
C	0.1590957550458020 0.3452305567136136 0.7500016636374807	0.105543
C	0.8451480376115892 0.0235799733033026 0.7500011473095206	0.110765
C	0.7998217754876150 0.9750552537050057 0.7499998921877129	0.067109
C	0.7071908427689473 0.8874314598222276 0.7500005280005929	0.064706
C	0.6590633416422522 0.8452551738133856 0.7500002437942760	0.105609
C	0.6550514071531091 0.4761060778470826 0.2499919058977845	0.112917
C	0.7004407652241140 0.5245619566307975 0.2499916369051350	0.066399
C	0.7926925325583534 0.6125341673985409 0.2499957133976639	0.069286
C	0.8406669444207386 0.6550615826150845 0.2499995357824255	0.100100
C	0.1550412050231680 0.9761525032620201 0.2500036421423562	0.112836
C	0.2004590139894890 0.0245548710045134 0.2500033941579285	0.065754
C	0.2927265438357216 0.1125089294792631 0.2499982168428733	0.069646
C	0.3407135331070440 0.1550060747959401 0.2499994595833940	0.100147
C	0.6551729070323166 0.5237974647592359 0.7499974138078895	0.108328
C	0.7004095171064884 0.4750847917173245 0.7500003088043689	0.063718
C	0.7930109008947234 0.3874772582391469 0.7500020533623534	0.069149
C	0.8413312381116914 0.3454852563147940 0.7500039930186209	0.101919
C	0.1551824286742355 0.0238124495229953 0.7499989203385719	0.108616
C	0.2004035093667360 0.9750839950198126 0.7499983092447182	0.063495
C	0.2929944747503337 0.8874724403589292 0.7499994490776057	0.068896
C	0.3413239227006799 0.8455022386220680 0.7499971933310486	0.102024
C	0.3453769261592800 0.4765085971292856 0.2499976626501773	0.112357
C	0.2997464971596647 0.5246509812511259 0.2499962700903146	0.069576
C	0.2074422801346957 0.6127090035244129 0.2499988106928182	0.066796
C	0.1596761545401428 0.6554841420059643 0.2499979997116476	0.102747
C	0.8453721262640885 0.9764795528020568 0.2500038643303782	0.112668
C	0.7997561612978122 0.0246324396347707 0.2500025727718854	0.069537
C	0.7074476843300832 0.1127091770688662 0.2500012105014942	0.066751
C	0.6596836612277600 0.1554733090267783 0.2500010212933063	0.103293
H	0.4281476861377616 0.6117570340503610 0.5276950207213266	0.107491
H	0.3556722378779862 0.5378199649328589 0.5187460571199993	0.105745
H	0.2910217778989067 0.4614964333588762 0.5199750483873823	0.088439
H	0.2167179147062525 0.3934491990370747 0.5194425539794210	0.102926
H	0.1506382591408235 0.3380514231850972 0.5177000581151922	0.115856
H	0.0705529299905794 0.2664250956002178 0.5283287184510654	0.103628
H	0.9282226208424504 0.1116643555903874 0.5276825316630708	0.107295
H	0.8557014966691352 0.0377731128119413 0.5187184630472277	0.105630
H	0.7910055489322046 0.9614962474222130 0.5199641530826838	0.088485
H	0.7166938850971896 0.8934594326113081 0.5194394609059985	0.103070
H	0.6505996425600045 0.8381120185052072 0.5176975473219756	0.115584
H	0.5704922735183039 0.7664934441548880 0.5283192012810496	0.103659
H	0.5721322108385636 0.3872671083744623 0.0285605123390604	0.106240
H	0.6443325854758888 0.4623289483687711 0.0188214302983917	0.103518
H	0.7095507656655040 0.5377165245471214 0.0200132060133808	0.087774
H	0.7834356078004864 0.6062926568292680 0.0195229411421562	0.104342
H	0.8491452619031010 0.6623015502386136 0.0174325568721880	0.117793
H	0.9288122925373710 0.7337630137872745 0.0273653644986217	0.106464
H	0.0719907802105541 0.8874513130358803 0.0285947027316761	0.105885
H	0.1443101236578374 0.9623935782721220 0.0188401460446343	0.103596
H	0.2095766385464715 0.0377036273755950 0.0200111723103316	0.087650
H	0.2834628904284204 0.1062804674275958 0.0195318922081948	0.104269
H	0.3491944720716963 0.1622219204771775 0.0174355113018516	0.117745
H	0.4289036611685494 0.2336515386691354 0.0273768309097155	0.106419
H	0.5730254297501317 0.6133395758174863 -0.0279902305993026	0.107945
H	0.6446009598940616 0.5378547990389727 -0.0187229581395259	0.105064
H	0.7093953524155543 0.4616949818562307 -0.0199764393326369	0.088142
H	0.7835586290272681 0.3934889664557039 -0.0195139390885677	0.104097
H	0.8500466013893736 0.3386990844492198 -0.0175673455090749	0.116467
H	0.9303811527114779 0.2677860866072018 -0.0277026204748321	0.105824
H	0.0730344952451441 0.1133420658997647 -0.0279888397673198	0.107750
H	0.1446343523706019 0.0378941619914196 -0.0187253986447537	0.104981
H	0.2093678753274484 0.9616754072545171 -0.0199750514785702	0.088081
H	0.2835369474740207 0.8934672264387967 -0.0195107666404270	0.104234
H	0.3500409163382659 0.8387229916371109 -0.0175757779987622	0.116541
H	0.4304062658740770 0.7678505274588590 -0.0277213254317919	0.106132
H	0.4294622545445971 0.3893718525458051 0.4719521995435609	0.106843
H	0.3562264042432907 0.4627785789925316 0.4812135652997691	0.104100
H	0.2906319754342717 0.5377583788831009 0.4800136423169937	0.088265
H	0.2166878846491207 0.6063458900246748 0.4805415362669808	0.103379
H	0.1514626490215694 0.6631116658110996 0.4824393424299350	0.117379
H	0.0719117633842270 0.7351031485264147 0.4722218681696494	0.105346
H	0.9294848928877446 0.8893557153839502 0.4719101067505604	0.106735
H	0.8562115116545209 0.9627386286305478 0.4812033946238816	0.103995
H	0.7906537451177587 0.0377668571935728 0.4800190063789120	0.088090
H	0.7167101114569963 0.1063517304805624 0.4805490422384874	0.103386
H	0.6514788354000988 0.1631013359072461 0.4824201541394557	0.117389
H	0.5718936530777537 0.2350769669429599 0.4721929145388104	0.105036
H	0.5721372643230961 0.3872724926365473 0.4714363086500020	0.106198
H	0.6443364882364352 0.4623368196308733 0.4811587036733957	0.103303
H	0.7095508678126426 0.5377153582357370 0.4799770261771636	0.087677
H	0.7834351312067152 0.6062908821654178 0.4804726571303558	0.104341
H	0.8491465226601768 0.6623002279644389 0.4825675011629481	0.117799
H	0.9288145891996787 0.7337629423529292 0.4726316932654541	0.106520
H	0.0719890111941218 0.8874545231105624 0.4714087469212953	0.105882
H	0.1443083608832884 0.9623990221482869 0.4811642233175761	0.103554
H	0.2095764125849857 0.0377092261612521 0.4799935250574597	0.087618
H	0.2834634974122783 0.1062837901333936 0.4804690123360670	0.104274
H	0.3491932197754995 0.1622199073620232 0.4825637063051705	0.117766
H	0.4288997875378688 0.2336507854596994 0.4726355785935459	0.106376
H	0.4281505889117276 0.6117540341058167 -0.0276677415326759	0.107565
H	0.3556757151977759 0.5378186670559986 -0.0187193630526209	0.105697
H	0.2910192162569360 0.4614944315942098 -0.0199564018144308	0.088446
H	0.2167166024493392 0.3934475847225219 -0.0194366685569439	0.102851
H	0.1506417305840124 0.3380519498952339 -0.0176943471822861	0.115892
H	0.0705570956080967 0.2664268615729858 -0.0283159094440680	0.103568
H	0.9282228690764135 0.1116653794871291 -0.0276774334927154	0.107307
H	0.8556972016882357 0.0377758992794626 -0.0187187887079347	0.105603
H	0.7910058946384702 0.9615000753037630 -0.0199644711377293	0.088502
H	0.7166952629972565 0.8934625743108296 -0.0194390424183199	0.103052
H	0.6506005770576920 0.8381134370486408 -0.0176968451138875	0.115610
H	0.5704930201848810 0.7664935346682475 -0.0283176016806913	0.103647
H	0.4294617857109787 0.3893684329741585 0.0280633064624784	0.106756
H	0.3562290653436809 0.4627706952181600 0.0187856517116652	0.104068
H	0.2906305139807043 0.5377617742019817 0.0199796108949776	0.088278
H	0.2166847453551305 0.6063467363734986 0.0194585035551171	0.103326
H	0.1514618185611675 0.6631134662896071 0.0175580571526308	0.117406
H	0.0719103647571835 0.7351036944846026 0.0277775064859440	0.105384
H	0.9294834921247168 0.8893564842015632 0.0280910177891482	0.106737
H	0.8562116222006184 0.9627399763845281 0.0188030524109800	0.103973
H	0.7906520496007080 0.0377669404330087 0.0199848618240498	0.088146
H	0.7167093611194002 0.1063526130555928 0.0194531279137662	0.103380
H	0.6514750320831318 0.1631066358636496 0.0175849194429776	0.117337
H	0.5718854567895871 0.2350811058092444 0.0278345348853201	0.105015
H	0.5730283733785257 0.6133394675204361 0.5279762173523430	0.108020
H	0.6446034261100433 0.5378567472783363 0.5187173820252643	0.105087
H	0.7093945759172446 0.4616954826548904 0.5199777608209272	0.088172
H	0.7835582554966544 0.3934895511863463 0.5195146068285167	0.104094
H	0.8500483106429928 0.3386968078116334 0.5175794252667029	0.116574
H	0.9303839976527917 0.2677850785712272 0.5277250995193711	0.105840
H	0.0730349044451660 0.1133491330823535 0.5279947048503384	0.107754
H	0.1446346997569440 0.0378994062195529 0.5187231412625957	0.105018
H	0.2093679011199829 0.9616793873566694 0.5199742190977003	0.088142
H	0.2835356672323371 0.8934697619868784 0.5195081337510018	0.104229
H	0.3500411074811919 0.8387252162768015 0.5175712481423730	0.116550
H	0.4304058509455503 0.7678498573019674 0.5277187004754840	0.106101
Cd	0.4997174920302478 0.6893640866501154 0.7499829642140515	0.812413
Cd	-0.0002816806979715 0.1893193283737708 0.7500084759824497	0.812802
Cd	0.4995923978723602 0.3098557400315451 0.2502057742188312	0.812742
Cd	-0.0003104673480460 0.8098498211166861 0.2500348458244901	0.812738
F	0.4988592185364477 0.6864081034149958 0.4728788369957760	-0.625017
F	-0.0011365936155700 0.1862365920835358 0.4729116796655570	-0.624980
F	0.4985189680541000 0.3113549124258707 0.9726380244418109	-0.624677
F	-0.0012050958783677 0.8114615531492975 0.9727955970809901	-0.624645
F	0.4988867558711876 0.6864086842829658 0.0271276789365904	-0.625108
F	-0.0011501461078692 0.1861971490176870 0.0271015899665044	-0.625070
F	0.4984649062824690 0.3114357669163605 0.5271420806340759	-0.624755
F	-0.0012093001371919 0.8114503766276842 0.5270990537728937	-0.624678
F	0.4767292023814343 0.7664627331259874 0.2499926959845858	-0.601914
F	0.5686322357961671 0.6586908508719096 0.2501007425606759	-0.597637
F	0.9761649999746492 0.2660783007142841 0.2499884786502305	-0.601317
F	0.0688861128576336 0.1592423910597065 0.2500225012634061	-0.597917
F	0.5701085205364760 0.2930406469927501 0.7497376081823174	-0.601287
F	0.4725079945598886 0.3922189813600309 0.7499820616761211	-0.594971
F	0.0697563780704683 0.7898788096782318 0.7499805892930202	-0.600828
F	0.9749187134727916 0.8929356161256741 0.7499775812075058	-0.594383
F	0.4435786325742680 0.6248083094941852 0.2499609456985893	-0.592411
F	0.9440375761034756 0.1241216664488124 0.2500353174053868	-0.592061
F	0.4458772056207844 0.2492607448485167 0.7499403240132573	-0.599728
F	0.9448616362574374 0.7505601910695932 0.7499647182348335	-0.599738
N	0.4323279993467823 0.6148839713867627 0.7500132541404225	-0.225735
N	0.5678692616223910 0.7645156534101079 0.7500002301172709	-0.235894
N	0.9323715866141606 0.1148016952813629 0.7500047737548986	-0.226477
N	0.0679039666838203 0.2644622563435671 0.7500047721943744	-0.236444
N	0.5680911709547392 0.3843644840018150 0.2499996153292971	-0.227174
N	0.4316241105692703 0.2357612174183323 0.2500064855747753	-0.237129
N	0.0679981716624973 0.8845320066356527 0.2500015631003750	-0.226547
N	0.9315592183656574 0.7358715013813788 0.2500002267961895	-0.235964
N	0.5687418229298128 0.6161526727985084 0.7499933319302977	-0.227916
N	0.4327690170239751 0.7653032477845817 0.7499981005055311	-0.237957
N	0.0687503308362268 0.1161531230628187 0.7500029691980866	-0.227979
N	0.9327539810914702 0.2652435986548885 0.7500104075870564	-0.238587
N	0.4332792744436277 0.3860281272891676 0.2500103086773560	-0.228800
N	0.5687963328566077 0.2365961570544950 0.2500106354508774	-0.237881
N	0.9332823151492401 0.8859943550194169 0.2500009355348798	-0.229076
N	0.0688231433840490 0.7366173958224622 0.2499992924872522	-0.237901
Ga	0.4972970037309766 0.6843461598514722 0.2500054921254526	1.474983
Ga	-0.0027221056203011 0.1842087054655804 0.2500214257657776	1.474376
Ga	0.4970806210727982 0.3115851874130578 0.7500360804707639	1.476080
Ga	-0.0026138469543268 0.8114849105058592 0.7499979926404526	1.474966
	  	
