#======================================================================

# CRYSTAL DATA

#----------------------------------------------------------------------

data_VESTA_phase_1


_pd_phase_name                         GaFFIVE_3_Cd
_cell_length_a                         15.07158
_cell_length_b                         15.07187
_cell_length_c                         8.21525
_cell_angle_alpha                      90.00429
_cell_angle_beta                       89.99799
_cell_angle_gamma                      90.66246
_symmetry_space_group_name_H-M         P 1
_symmetry_Int_Tables_number            1

loop_
_symmetry_equiv_pos_as_xyz
   x, y, z

loop_
   _atom_site_label
   _atom_site_fract_x
   _atom_site_fract_y
   _atom_site_fract_z
   _atom_site_charge
C	0.2546313386562281 0.4550846343618268 0.6321211296848317	0.056127
C	0.2368501800503932 0.0484956975878917 0.6465240562128373	0.062223
C	0.2377276453395852 0.4558718683567583 0.3520130348902845	0.050889
C	0.2547643524672026 0.0474865736109924 0.3672385587142855	0.059397
C	0.0475065638481979 0.2547796418112992 0.3671832152618690	0.059311
C	0.4558717601924003 0.2377248012159387 0.3519893595377382	0.051134
C	0.4550860264815029 0.2546305857014347 0.6320983995305157	0.056261
C	0.0485038987653027 0.2368562714610965 0.6464633600704637	0.062197
C	0.9558787287215574 0.2377283391351759 0.6479827282518323	0.050896
C	0.5475022847986724 0.2547671510626156 0.6327667058198316	0.059610
C	0.5484982512667345 0.2368516023931694 0.3534813892035687	0.062186
C	0.9550900131386050 0.2546466008167123 0.3678855997709042	0.056177
C	0.7368642501032930 0.0484910976175113 0.3534904352219342	0.062316
C	0.7546407057042309 0.4550924682906279 0.3679067175019879	0.055867
C	0.7547682486262681 0.0475142499431060 0.6327771830465594	0.059552
C	0.7377252760174129 0.4558799841557953 0.6480091555845712	0.051075
C	0.4558748447687357 0.7377215928734346 0.6480173398233053	0.051127
C	0.0475047698584991 0.7547617890397474 0.6327764571296026	0.059659
C	0.0485011275960144 0.7368468232750708 0.3534980087799918	0.062099
C	0.4550965844233037 0.7546377721768860 0.3679073528128530	0.055885
C	0.2368576856677962 0.5484985534217334 0.3535308004735906	0.062323
C	0.2546277422357628 0.9550682881225110 0.3679242464592694	0.056022
C	0.2547688692620878 0.5475040115877390 0.6328135180504605	0.059443
C	0.2377194144974380 0.9558659735910671 0.6480378184416508	0.051149
C	0.7546301357597514 0.9550948179876994 0.6321047927694128	0.056046
C	0.7368539022284385 0.5485042096490290 0.6465102768242766	0.062082
C	0.7377259598759573 0.9558603312494672 0.3519960033178438	0.051136
C	0.7547746176264025 0.5475066519874309 0.3672310276186105	0.059541
C	0.5475100560761196 0.7547800520615522 0.3672189752811915	0.059632
C	0.9558725011943834 0.7377184898880511 0.3520028329842905	0.051264
C	0.9550852950060887 0.7546283855864772 0.6321073487430756	0.056166
C	0.5484994634871372 0.7368536081883651 0.6465030053720947	0.062071
H	0.2597077757511345 0.4168391056039034 0.7444859432048725	0.116093
H	0.2275825668747321 0.0865852066553290 0.7584428011148977	0.112970
H	0.2311110551865525 0.4189865256747083 0.2376718131231014	0.118196
H	0.2608696891158514 0.0854834593944638 0.2547530801473959	0.111979
H	0.0855037875243997 0.2608902341166536 0.2546957869996555	0.112077
H	0.4189879264846881 0.2311139262791012 0.2376452048650375	0.118213
H	0.4168430698254357 0.2597115049807085 0.7444753135312829	0.115931
H	0.0865926411887852 0.2275935722283805 0.7583713401408378	0.112883
H	0.9189964976556675 0.2311084414460933 0.7623234142862881	0.118240
H	0.5855032343569211 0.2608870540328950 0.7452525274402892	0.111902
H	0.5865905607237547 0.2275899043373160 0.2415679645943980	0.112978
H	0.9168394559892914 0.2597333171142940 0.2555298105689431	0.115998
H	0.7276032842605946 0.0865755090471155 0.2415809209686390	0.112879
H	0.7597227299387517 0.4168333573984220 0.2555479433547274	0.116105
H	0.7608726859761255 0.0855255109047203 0.7452561513457601	0.111917
H	0.7310941607361912 0.4189929005476079 0.7623458283647117	0.118212
H	0.4189851703388358 0.7310910545106470 0.7623518504973127	0.118236
H	0.0855033496964718 0.7608755110609946 0.7452584778615454	0.111854
H	0.0865885357696683 0.7275899216024383 0.2415780215644998	0.112861
H	0.4168437117793227 0.7597140270903316 0.2555472981675203	0.116128
H	0.2276045922059625 0.5865866409063401 0.2416285383092690	0.112822
H	0.2597081641440973 0.9168166219759223 0.2555587617571966	0.116003
H	0.2608795230145556 0.5855035144432805 0.7453022711245486	0.112030
H	0.2311059119117097 0.9189894912823350 0.7623861758446187	0.118179
H	0.7597113514052737 0.9168524678490462 0.7444708490359769	0.116066
H	0.7275787757973355 0.5865924149103248 0.7584292766699785	0.112975
H	0.7310989549876734 0.9189664225856682 0.2376654514501375	0.118186
H	0.7608823391316735 0.5855034234386459 0.2547431155180555	0.111876
H	0.5855141397029366 0.7608966320067335 0.2547381496949796	0.111817
H	0.9189887419501003 0.7311049539027454 0.2376631132152604	0.118233
H	0.9168400120099524 0.7597185087245730 0.7444761764398258	0.115980
H	0.5865901890477652 0.7275848133923478 0.7584107467482448	0.112946
Cd	0.2514637211677583 0.2514631341611463 0.4957007005445529	0.822943
Cd	0.7514594165927894 0.2514719090504145 0.5042884316553866	0.822926
Cd	0.2514765346988012 0.7514614435085611 0.5042493376826492	0.822750
Cd	0.7514662941172308 0.7514784105890520 0.4957658749593357	0.822875
Ga	0.2538778730100674 0.2538599731851521 -0.0060374853901231	1.453386
Ga	0.7538632846113973 0.2538558153132521 0.0060872355601189	1.453638
Ga	0.2538433215067573 0.7538133177866906 0.0060548326848808	1.453440
Ga	0.7538529022006285 0.7538921975457100 -0.0060710763273843	1.453326
F	0.2691255212691898 0.2692421538491306 0.7616099209164179	-0.561025
F	0.2386769290106620 0.2386212252408771 0.2266133247610229	-0.564944
F	0.1689374428556189 0.1687971838705436 -0.0460686976971351	-0.571689
F	0.2226364290300453 0.3705987160985985 0.0102778080063560	-0.570269
F	0.3706778698678362 0.2227950338384367 0.0101254386013097	-0.570356
F	0.7386769924106106 0.2385797884079484 0.7734447495878840	-0.564980
F	0.7692054936090833 0.2693580655921416 0.2383745658995227	-0.560931
F	0.6689146726165022 0.1688088954759614 0.0463192162729567	-0.571699
F	0.7224931556465993 0.3705519761492181 -0.0103980810304928	-0.570479
F	0.8706586397985310 0.2228004805120389 -0.0102034604107478	-0.570397
F	0.2386171615813888 0.7386944669559857 0.7733893627775890	-0.564944
F	0.2692457972982970 0.7690423730080909 0.2383409354908966	-0.561027
F	0.1687758189055037 0.6688419978444440 0.0458994614825468	-0.571812
F	0.2227857612439915 0.8706081566666127 -0.0100559059971654	-0.570383
F	0.3705585969447412 0.7224637269517219 -0.0103603754498900	-0.570381
F	0.7692365908362513 0.7693656350104480 0.7616086891751055	-0.560972
F	0.7386161663669122 0.7385899901219509 0.2265344678252010	-0.565027
F	0.6689196050729993 0.6688565269307334 -0.0464596434933061	-0.571491
F	0.7224910974719243 0.8706073676574468 0.0103524488489516	-0.570305
F	0.8706201882525988 0.7227506073477006 0.0102815524221933	-0.570281
N	0.4099283822302627 0.2470433251938914 0.4912720905298951	-0.202864
N	0.0936170037568607 0.2463464821149929 0.5062882705101514	-0.203966
N	0.2470512478422969 0.4099334252191157 0.4912903417944110	-0.202834
N	0.2463401544923674 0.0936031171595081 0.5063437508937279	-0.204233
N	0.9099354952439729 0.2470586382742681 0.5087039482709944	-0.202751
N	0.5936139787506088 0.2463401733405882 0.4936621431665277	-0.204278
N	0.7470534625742172 0.4099352079032823 0.5087253908832019	-0.202674
N	0.7463485208789490 0.0936124976880177 0.4936637297590954	-0.204377
N	0.4099387470724822 0.7470518998833153 0.5087271047072686	-0.202645
N	0.0936174923538769 0.7463421074665267 0.4936720211119008	-0.204089
N	0.2470412626574797 0.9099207370699999 0.5087514801543651	-0.202715
N	0.2463440521939047 0.5936103147948903 0.4937121579777204	-0.203996
N	0.9099287121570220 0.7470384666120473 0.4912824796651075	-0.203064
N	0.5936164553597484 0.7463497623475258 0.5063309530246293	-0.204069
N	0.7470482713716737 0.9099323322549152 0.4912860514865888	-0.202861
N	0.7463467978459053 0.5936224183548622 0.5063396335705285	-0.204102
	  	
