#======================================================================

# CRYSTAL DATA

#----------------------------------------------------------------------

data_VESTA_phase_1


_pd_phase_name                         GaFFIVE_14_Cd_i
_cell_length_a                         13.73084
_cell_length_b                         13.71894
_cell_length_c                         8.31698
_cell_angle_alpha                      89.05923
_cell_angle_beta                       88.94720
_cell_angle_gamma                      90.34753
_symmetry_space_group_name_H-M         P 1
_symmetry_Int_Tables_number            1

loop_
_symmetry_equiv_pos_as_xyz
   x, y, z

loop_
   _atom_site_label
   _atom_site_fract_x
   _atom_site_fract_y
   _atom_site_fract_z
   _atom_site_charge
C	0.5769013159558534 0.2605713808014949 0.3639202596643935	-0.181295
C	0.4757794486139996 0.2637123137677099 0.3660985223920314	0.107216
C	0.9343791319892253 0.2842812545244522 0.4163986694799056	-0.173409
C	0.0351032609475470 0.2763117369310828 0.4023478620042356	0.113630
C	0.2590191552855988 0.5770007080254191 0.3662760020398259	-0.182957
C	0.2619078194670434 0.4757488745776876 0.3689290536531092	0.109846
C	0.2927676761944369 0.9346938860901550 0.4125600343657209	-0.172363
C	0.2842869798377095 0.0354796240396049 0.3995365740967179	0.112510
C	0.9243630340245400 0.2386925877503334 0.1371239787144055	-0.185375
C	0.0254761182828261 0.2345895262042677 0.1329461225763152	0.109007
C	0.5690212110476802 0.2119218900602496 0.0859327060957574	-0.170279
C	0.4681648705538408 0.2199124454449253 0.0969127193620625	0.102065
C	0.2134960033939165 0.5687689113805021 0.0869741194902225	-0.170491
C	0.2213833493423637 0.4678824761792840 0.0983871563719207	0.102574
C	0.2358455844277379 0.9243058761107028 0.1394701240233356	-0.183614
C	0.2316397901823856 0.0254945776312835 0.1358736355988834	0.108353
C	0.4245141099242227 0.7394421787661586 0.6387850403087676	-0.183341
C	0.5256139496803931 0.7360793365639111 0.6337710207515591	0.108072
C	0.0690973541366175 0.7309233120450669 0.5784218322511918	-0.165192
C	0.9680749762884138 0.7350588746028587 0.5915952135058320	0.100838
C	0.7395689885908220 0.4242599162501106 0.6381077477043051	-0.182676
C	0.7360987140197851 0.5254406915229011 0.6334016883572442	0.108234
C	0.7197412091660601 0.0687714385123583 0.5816535111700042	-0.165651
C	0.7264538053406134 0.9677577827686100 0.5930055765481724	0.100361
C	0.0765191357647846 0.7565612152607539 0.8651633107654904	-0.180672
C	0.9753310073001271 0.7575437993794228 0.8684562248584500	0.107315
C	0.4349495264391985 0.7752176933292798 0.9220685024266180	-0.166232
C	0.5357771217933048 0.7688338416989852 0.9066311330515086	0.114503
C	0.7753103129122623 0.4346609240445855 0.9214054150668924	-0.169847
C	0.7684438473321089 0.5355023384398366 0.9064179295982367	0.113790
C	0.7597988530969899 0.0763308755700926 0.8634293207853627	-0.180284
C	0.7622677664788293 0.9751085002645644 0.8655419150647686	0.107831
C	0.6244830465676057 0.2348877794375507 0.2198180617659671	0.190309
C	0.8779037086172004 0.2632882967774177 0.2827205583502924	0.191359
C	0.2350288172407960 0.6244093301950425 0.2214603634756626	0.189003
C	0.2662826541981855 0.8780177866238522 0.2817176845968066	0.189702
C	0.3782693822270217 0.7594697370536294 0.7866627332428181	0.188752
C	0.1243713394987916 0.7430232679181495 0.7164374979845071	0.189095
C	0.7594967224420328 0.3780020739604990 0.7858071502185686	0.190278
C	0.7382914186554236 0.1241089750676857 0.7176921063362338	0.187281
H	0.6179668561116372 0.2742021505533735 0.4722075857901946	0.105779
H	0.4342995429779757 0.2796062038586574 0.4756703078033533	0.103893
H	0.8997929588448128 0.3053678267887773 0.5291750997670793	0.125578
H	0.0822833587190056 0.2893953834827297 0.5038564971622714	0.098035
H	0.2713739930441677 0.6185504840362118 0.4746505464605113	0.108576
H	0.2764301106848125 0.4345250130126921 0.4792284925393522	0.103526
H	0.3186442701038920 0.9001842672146347 0.5223570865093610	0.125555
H	0.3019313557506063 0.0829852305429754 0.4989142225069113	0.097213
H	0.8822113630481557 0.2263230128366194 0.0295101495779725	0.106394
H	0.0660199641110427 0.2174471799816982 0.0229396331225646	0.103094
H	0.6043927642214479 0.1891993463936946 0.9747781863307738	0.124804
H	0.4226138802375780 0.2057765651748676 0.9931706805308645	0.107718
H	0.1923100480897602 0.6039540592455103 0.9748954853988472	0.124301
H	0.2086563827113903 0.4222007227615827 0.9941394540375311	0.106589
H	0.2193556424532173 0.8818717121910455 0.0336817399638763	0.108205
H	0.2104649834659579 0.0659442325531995 0.0280470142896946	0.102797
H	0.3826414764809455 0.7291720894766661 0.5302115554851223	0.102301
H	0.5661231098125756 0.7220611898173783 0.5223359673597270	0.102570
H	0.1046884305525088 0.7190191991307658 0.4626248313375026	0.123448
H	0.9228098680413723 0.7270158706375107 0.4857207022180168	0.106111
H	0.7300315244416862 0.3821631775037986 0.5294515726058352	0.103062
H	0.7223652246774624 0.5660165211227070 0.5221179943918617	0.102851
H	0.7010355256840974 0.1043523486115183 0.4687252700568061	0.123878
H	0.7148732417813968 0.9224321495070968 0.4879997900751439	0.106560
H	0.1171335888717902 0.7634748193971985 0.9758169548550301	0.103233
H	0.9338348273976749 0.7648893861477901 0.9809610240723978	0.104698
H	0.4004379646164858 0.7914544554592892 0.0371541909170706	0.124098
H	0.5830964222396249 0.7783585484259856 0.0089964610216027	0.096826
H	0.7918358486540904 0.4001374574145645 0.0362241508484897	0.124946
H	0.7776325866544813 0.5828714315979494 0.0090040000013961	0.096874
H	0.7710537759879270 0.1170589905190459 0.9729855613191396	0.104843
H	0.7750723217142266 0.9334987579374884 0.9761368186260502	0.103986
N	0.7756186375516789 0.2727689919668723 0.3021619315326151	-0.106734
N	0.2767448559574340 0.7755805859840594 0.2994097367123369	-0.108264
N	0.7267917542143525 0.2258287486907208 0.2015173451317195	-0.100273
N	0.2255663361088404 0.7267873679787039 0.2044376434039922	-0.098403
N	0.2265741359641793 0.7364888151763238 0.6944913387940359	-0.099626
N	0.7299793710837197 0.2263888086892488 0.6978356984077306	-0.098217
N	0.2760621580474155 0.7674851433862934 0.8098343402822187	-0.104558
N	0.7683038011332137 0.2757710989878125 0.8072007790235796	-0.105783
N	0.4228559164783069 0.2454378836267487 0.2347472605720675	-0.232112
N	0.0795000434883818 0.2521744586411921 0.2632823111373050	-0.229381
N	0.2450877322674503 0.4226821302463729 0.2370944534153526	-0.234354
N	0.2544415567061046 0.0796726316094823 0.2637772530314157	-0.228258
N	0.5799447516920194 0.7502978446023970 0.7649815902156950	-0.228537
N	0.9224884153307145 0.7478860166378460 0.7342666328802288	-0.231362
N	0.7499649958814305 0.5797177192143815 0.7649044559987218	-0.229086
N	0.7471154385098804 0.9222392791977261 0.7327674206187416	-0.230509
F	0.3741398193776689 0.2034647572786513 0.7580505143757835	-0.586783
F	0.2127641122448147 0.3763869740574026 0.7566036755255074	-0.586819
F	0.1509483054590892 0.1570922293448754 0.7223396531821533	-0.600556
F	0.7076465852483941 0.8761657145511240 0.2558944990127546	-0.582520
F	0.8763871142851838 0.7118951407702687 0.2544548461077090	-0.581396
F	0.6551835531180153 0.6541830293071155 0.2205562242083483	-0.596054
F	0.2665303084549714 0.2640083743517985 0.5159677764577979	-0.567068
F	0.2355045013378018 0.2361976336004935 0.9801562035150279	-0.568655
F	0.7365136360019235 0.7362485324183242 0.4781505248327065	-0.567797
F	0.7645226494232572 0.7650214920317965 0.0145299591083042	-0.565566
Ga	0.2479833384172875 0.2472647666069612 0.7474058104889363	1.464120
Ga	0.7480495861122823 0.7488604770836738 0.2458607220698827	1.460089
Cd	0.2515736902472004 0.2516622123361155 0.2477605393122252	0.817715
Cd	0.7517175714148909 0.7512131737176860 0.7464406825486570	0.816159
	  	
