#======================================================================

# CRYSTAL DATA

#----------------------------------------------------------------------

data_VESTA_phase_1


_pd_phase_name                         GaFFIVE_5_Fe_i
_cell_length_a                         19.69753
_cell_length_b                         19.69545
_cell_length_c                         15.77209
_cell_angle_alpha                      90.00041
_cell_angle_beta                       90.00116
_cell_angle_gamma                      90.00639
_symmetry_space_group_name_H-M         P 1
_symmetry_Int_Tables_number            1

loop_
_symmetry_equiv_pos_as_xyz
   x, y, z

loop_
   _atom_site_label
   _atom_site_fract_x
   _atom_site_fract_y
   _atom_site_fract_z
   _atom_site_charge
F	0.2887852115744403 0.1654042107157388 0.3517680812662494	-0.575307
F	0.1596693449612277 0.2644184814740587 0.3510185763879980	-0.586838
F	0.3093775599308196 0.3231050805290470 0.3511142060655927	-0.581668
F	0.6768393664538517 0.6906416153684048 0.1489296318494764	-0.581214
F	0.7356696945788902 0.8404553368651017 0.1490918808052134	-0.586418
F	0.8347099710415059 0.7111993874905458 0.1482201010887732	-0.575062
F	0.6595710004402866 0.7644285158494102 0.6490824244361163	-0.586348
F	0.7886964868062906 0.6652296577517660 0.6482376865368439	-0.575030
F	0.8093405266848083 0.8231774074685535 0.6489325976239966	-0.581167
F	0.1768638991218867 0.1906545093876641 0.8511100136260085	-0.581523
F	0.3346137247941441 0.2112800954373806 0.8516860447501158	-0.575324
F	0.2355176178862743 0.3403338463500495 0.8509446991470332	-0.586613
F	0.2495581722064665 0.2496301797822260 0.4738677604980738	-0.532564
F	0.2498036109184519 0.2490148904849969 0.2284960636446701	-0.534087
F	0.7503371738536788 0.7504595570865279 0.0260826283451049	-0.532486
F	0.7510143448098637 0.7501982890099359 0.2716372113374094	-0.533775
F	0.7495654800567110 0.7496488576298151 0.5260978252119894	-0.532450
F	0.7498334890053419 0.7489695909269627 0.7716507637737172	-0.533775
F	0.2503579626671202 0.2504046128332993 0.9738017027917817	-0.532740
F	0.2510066508837426 0.2501737182255980 0.7284319202627688	-0.534070
N	0.3520971138058518 0.2477946859629458 0.6003157623377360	-0.257820
N	0.1480552413743052 0.2522654912957769 0.6020354738157185	-0.257068
N	0.2523781914685943 0.3515910294579010 0.6009193467062645	-0.257591
N	0.2475719479315744 0.1483115077785791 0.6022740234570071	-0.259206
N	0.6482499154195457 0.7477880926467856 0.8990393275894660	-0.258434
N	0.8518536631981126 0.7522508613485290 0.8976726041265316	-0.257941
N	0.7474888013493417 0.8518313328040259 0.8980133761586162	-0.256814
N	0.7524653982569458 0.6480116174357800 0.8997589865600553	-0.259015
N	0.6482286177865179 0.7525076657250455 0.3980250524021596	-0.256383
N	0.8519310758979086 0.7475412902213792 0.3997524957207960	-0.258333
N	0.7477806845944389 0.6480736276582243 0.3976634548091126	-0.257601
N	0.7521851219737059 0.8518212061317620 0.3990382077510835	-0.257921
N	0.3519082072704867 0.2522277415448863 0.1023324425704723	-0.257654
N	0.1481930902958925 0.2478090038401736 0.1009660118519000	-0.258352
N	0.2524701171739262 0.1480413804155730 0.1002540554295056	-0.258449
N	0.2474791385996409 0.3518021165403388 0.1019708831063402	-0.256404
C	0.3859339913274399 0.2182059302823833 0.6648661306003826	0.095205
C	0.4562889827418408 0.2166462438640117 0.6685257568936757	-0.178591
C	0.4947742848586689 0.2470828746828564 0.6041199028969840	0.100441
C	0.4587903554938128 0.2775936112538668 0.5373341563361751	-0.182814
C	0.3882923470810717 0.2768009189329040 0.5372288460501149	0.097200
C	0.5694439858742564 0.2478346803733670 0.6075882422233089	0.055533
C	0.6057754026795339 0.1911752915268814 0.6374224578213368	-0.132197
C	0.6762839115813060 0.1920261987594045 0.6403406635784126	-0.124671
C	0.7127280271694141 0.2498520759807139 0.6149596710046509	0.067015
C	0.6764366761924318 0.3068410527345304 0.5865383141700357	-0.119868
C	0.6059850057865050 0.3056501581086508 0.5821615712980235	-0.127504
C	0.1141871348839257 0.2819375392649863 0.6664987498145031	0.100648
C	0.0438379212970213 0.2833342085077301 0.6702448528865385	-0.178266
C	0.0053657763401499 0.2526929898126034 0.6058232265178118	0.103589
C	0.0413703727295887 0.2225105531686345 0.5389463173081607	-0.178519
C	0.1118061888535206 0.2235162695219426 0.5389767033048580	0.103713
C	0.9306590378157633 0.2521357425768957 0.6086073613096362	0.054077
C	0.8942405953684269 0.3089104255965721 0.6378743763403746	-0.132330
C	0.8237274892824207 0.3080884836253617 0.6403682653438254	-0.124928
C	0.7873302591007466 0.2502332767383654 0.6149807222505382	0.067133
C	0.8236842750267526 0.1932746337809345 0.5865909625518070	-0.118428
C	0.8941600445630886 0.1944138237396726 0.5826645276166551	-0.127852
C	0.2819067718809661 0.3856229673535844 0.6653303679389009	0.104887
C	0.2834422217121374 0.4559724655802739 0.6689825121418836	-0.178664
C	0.2530024146421797 0.4944843347627490 0.6045621347896080	0.104818
C	0.2225316997416886 0.4583553109764812 0.5378693793135602	-0.184240
C	0.2233691351180784 0.3878849247767926 0.5379924553215079	0.102155
C	0.2522012065722197 0.5692164763551546 0.6078442413450071	0.054379
C	0.3088491192237737 0.6056519684807962 0.6375185515300380	-0.132545
C	0.3079938913138540 0.6761786558516191 0.6403302253404712	-0.124642
C	0.2501797926996059 0.7126418340890950 0.6149444912233442	0.067259
C	0.1932353274491472 0.6762452419336575 0.5865351656188103	-0.118659
C	0.1944253884005918 0.6057700931050103 0.5823061960408950	-0.127580
C	0.2179817696017414 0.1143536540869807 0.6668787803089703	0.096114
C	0.2165602403448405 0.0439337222682314 0.6703455947563246	-0.180913
C	0.2472061499538683 0.0054345128924799 0.6059670898397097	0.100309
C	0.2774210992572493 0.0415712539756340 0.5392201899435004	-0.178751
C	0.2763618320242205 0.1120584446970739 0.5391192722981898	0.093321
C	0.2478374979130327 0.9307061310588923 0.6086999888842132	0.055062
C	0.1910966029166820 0.8942355529363909 0.6379250470049870	-0.132208
C	0.1919061913386224 0.8237043365047719 0.6403687603661666	-0.125375
C	0.2497528188076704 0.7872923669650806 0.6149705151426041	0.066990
C	0.3066932283192956 0.8237160145995746 0.5865923004659629	-0.119195
C	0.3055283531970629 0.8942113093466204 0.5827164263513721	-0.128776
C	0.6142444990363564 0.7181941818914931 0.8346595764782782	0.104930
C	0.5439074508789896 0.7165994626681982 0.8309948976301258	-0.177550
C	0.5054213440728217 0.7470312765623369 0.8954326197482416	0.103495
C	0.5414976887403579 0.7775131980003164 0.9621605381745936	-0.182734
C	0.6119630079887619 0.7767321631969012 0.9620040734799498	0.102325
C	0.4307082569215535 0.7477977131716993 0.8921699969526693	0.054180
C	0.3942912849021438 0.6911263976257714 0.8624795024666156	-0.132536
C	0.3237768778671928 0.6919934794755570 0.8596629782549953	-0.124648
C	0.2873428430150741 0.7498198970228681 0.8850503663632827	0.067396
C	0.3237058495535926 0.8067751403610465 0.9134624411573423	-0.119217
C	0.3941693565355431 0.8055936469792138 0.9177115716394384	-0.127000
C	0.8857816328770001 0.7819130993682101 0.8330944969452097	0.094645
C	0.9561861951384787 0.7833948966855460 0.8296259079275745	-0.179785
C	0.9946565989821704 0.7527638050306946 0.8940311148932392	0.100768
C	0.9585751226808435 0.7225482609351067 0.9608185565643576	-0.179932
C	0.8880958601897677 0.7235387628433771 0.9608735708708492	0.093466
C	0.0693731272177112 0.7521715832370435 0.8913179276565700	0.055029
C	0.1058284727096036 0.8089340945918080 0.8620767641961878	-0.132869
C	0.1763483603791093 0.8081081624507633 0.8596261359673101	-0.124580
C	0.2127251249091276 0.7502470267561622 0.8850237010052424	0.067000
C	0.1763390461691266 0.6932957704144211 0.9134046805795646	-0.118941
C	0.1058571068898339 0.6944562644218593 0.9172996193765783	-0.128493
C	0.7178944324387707 0.8857558116337569 0.8335293001086244	0.101419
C	0.7165928713068549 0.9561207149960230 0.8297588426721911	-0.178617
C	0.7472604040391939 0.9945903398437628 0.8941573153974136	0.103651
C	0.7774286287462936 0.9585486617848079 0.9610086214768192	-0.178266
C	0.7763244390190693 0.8881077007130739 0.9610187243531138	0.102820
C	0.7478713365022459 0.0693132086961330 0.8913577340427046	0.054092
C	0.6911075169298898 0.1057488247484968 0.8621055917243240	-0.132173
C	0.6919237754885864 0.1762701294780126 0.8596312336959073	-0.124636
C	0.7497652083369036 0.2126738748290529 0.8850230795565167	0.067055
C	0.8067154303659866 0.1763083490440273 0.9134011252777310	-0.118521
C	0.8055848481235635 0.1058195073286426 0.9173068804152201	-0.127961
C	0.7819715618226132 0.6141220787819265 0.8351783447142314	0.095512
C	0.7834221727517778 0.5437577276524432 0.8314883673725288	-0.178477
C	0.7529591044964210 0.5052661541907189 0.8958727898897830	0.100497
C	0.7224753602315324 0.5412862090080643 0.9626373701394451	-0.183092
C	0.7233762733326476 0.6117926951898933 0.9627924567256340	0.097599
C	0.7521534533630635 0.4305816820958860 0.8923855171955070	0.055200
C	0.8088035117209416 0.3942362096141582 0.8625623627776423	-0.131943
C	0.8079580895526300 0.3237209768939154 0.8596570326531014	-0.124514
C	0.7501462234808921 0.2872711849914613 0.8850424127909831	0.067153
C	0.6931650394070854 0.3235695224368519 0.9134528643492781	-0.120052
C	0.6943483970279665 0.3940330204569898 0.9178136839303142	-0.127350
C	0.6142773581177856 0.7821027186171330 0.3335461907691433	0.101386
C	0.5439141091820391 0.7834082113826143 0.3297815576533371	-0.178825
C	0.5054282526875890 0.7527357874513262 0.3941585364919565	0.103312
C	0.5414853740609542 0.7225660254695685 0.4609980412627870	-0.178194
C	0.6119261851182313 0.7236740286350128 0.4610197986607369	0.102742
C	0.4307021497125909 0.7521306808860796 0.3913600981765896	0.054611
C	0.3942587661418649 0.8088973633432964 0.3621068965918790	-0.132649
C	0.3237413128008054 0.8080805494491351 0.3596321064375047	-0.124492
C	0.2873337056660856 0.7502330227684747 0.3850277098306060	0.067021
C	0.3237056791305862 0.6932783463896485 0.4134076044503875	-0.118380
C	0.3941905516195560 0.6944125584081476 0.4173120335006769	-0.128037
C	0.8858415307645289 0.7180332579728402 0.3351799424613762	0.094884
C	0.9562078518108283 0.7165741584917754 0.3314983848749400	-0.178074
C	0.9947143267004666 0.7470445257256875 0.3958670067654038	0.100505
C	0.9586786237706627 0.7775335975122062 0.4626165917308762	-0.183182
C	0.8881743667483954 0.7766310721251543 0.4627785056617737	0.097210
C	0.0694016196166453 0.7478453050907782 0.3923852921400197	0.054940
C	0.1057522568014874 0.6911900343817594 0.3625639328186361	-0.131892
C	0.1762631241237713 0.6920342058235038 0.3596584347733509	-0.124820
C	0.2127192120283422 0.7498532723077869 0.3850480411587245	0.066757
C	0.1764164870212260 0.8068410840155660 0.4134609747873927	-0.120042
C	0.1059570611539068 0.8056548485865648 0.4178173343115608	-0.127192
C	0.7181084039108402 0.6141732699017071 0.3330824803641410	0.095008
C	0.7166160034307628 0.5437668459032230 0.3296141273461418	-0.180017
C	0.7472358802086220 0.5053118408297160 0.3940382740190885	0.100993
C	0.7774531963051905 0.5413711733606278 0.4608412518630687	-0.179958
C	0.7764877390156518 0.6118528565597656 0.4608781969761370	0.092947
C	0.7478275628126655 0.4306014874326879 0.3913186338620345	0.054866
C	0.6910643580158642 0.3941550479642209 0.3620750745370671	-0.132877
C	0.6918920932948742 0.3236341066231291 0.3596218588461237	-0.124776
C	0.7497522262387786 0.2872688270448923 0.3850162387465446	0.067234
C	0.8067009698658035 0.3236425244866469 0.4133985872457767	-0.119044
C	0.8055413805048082 0.3941272421537532 0.4172972351324176	-0.128459
C	0.7817841600330481 0.8858000711690547 0.3346525245511596	0.104622
C	0.7833880965425918 0.9561398447577918 0.3309841968045668	-0.177162
C	0.7529672572161791 0.9946086467997628 0.3954386922411743	0.103434
C	0.7224825368177713 0.9585569038290901 0.4621795619174500	-0.182129
C	0.7232449085584982 0.8880914549968214 0.4620124423474985	0.101752
C	0.7522038509415491 0.0693188199774134 0.3921725927510279	0.054050
C	0.8088729509190878 0.1057241415352321 0.3624805141965586	-0.132222
C	0.8080032982107085 0.1762398393589758 0.3596600117962502	-0.124549
C	0.7501789507806672 0.2126625845150270 0.3850420494984827	0.067420
C	0.6932260735880683 0.1763115871004005 0.4134550831821385	-0.119654
C	0.6944083636565423 0.1058471373886914 0.4177097796635859	-0.126834
C	0.3858176089572641 0.2818978736700970 0.1669145426561461	0.094795
C	0.4562199136407329 0.2833842254669353 0.1703772915748521	-0.179922
C	0.4946831409730734 0.2527637659761576 0.1059625514178889	0.100893
C	0.4586102157222848 0.2225496621005692 0.0391719001415729	-0.180030
C	0.3881335536135485 0.2235230415684762 0.0391183119065973	0.093405
C	0.5693915797432547 0.2521716489026136 0.1086806849046313	0.055068
C	0.6058385675134660 0.3089353530784187 0.1379243561149886	-0.132866
C	0.6763547684372414 0.3081135207843461 0.1403762284917372	-0.124934
C	0.7127245344128690 0.2502463259029974 0.1149765637370640	0.067263
C	0.6763448830274695 0.1932907169721373 0.0865940094288940	-0.119138
C	0.6058657160657245 0.1944522905465050 0.0827002362969404	-0.128452
C	0.1142078391090332 0.2182120625016289 0.1653503752427934	0.104627
C	0.0438726594696057 0.2166095891396675 0.1690050798518835	-0.177015
C	0.0053923821196757 0.2470318780088701 0.1045635192933848	0.103525
C	0.0414564343530008 0.2775151527406585 0.0378310771035107	-0.182236
C	0.1119198687053143 0.2767499038422770 0.0379907918305455	0.102120
C	0.9306871724583127 0.2477967797379230 0.1078250508059024	0.054134
C	0.8942833994400269 0.1911228553389902 0.1375181548049792	-0.132510
C	0.8237719177160421 0.1919885365954853 0.1403367585791084	-0.124454
C	0.7873432202051752 0.2498197824181995 0.1149508704994135	0.067377
C	0.8236990019573849 0.3067806981027857 0.0865358621449897	-0.119529
C	0.8941589627491856 0.3055949130837991 0.0822859326097806	-0.126986
C	0.2819750904153577 0.1141419244644194 0.1648310949608912	0.095097
C	0.2834294040308478 0.0437705313452109 0.1685181943040326	-0.178087
C	0.2529565317691623 0.0052775529433099 0.1041371790582096	0.100350
C	0.2224751496330003 0.0413033971772311 0.0373726202428831	-0.182832
C	0.2233838536681522 0.1118114306501439 0.0372169094095204	0.097240
C	0.2521562021882345 0.9305935460743004 0.1076149160540017	0.054987
C	0.3088069075204229 0.8942424466255052 0.1374354585161290	-0.131787
C	0.3079616126797808 0.8237298646118549 0.1403441255379994	-0.124622
C	0.2501463561253932 0.7872806038961142 0.1149568166901034	0.067030
C	0.1931629242805082 0.8235810382096201 0.0865439897232291	-0.120070
C	0.1943506222432313 0.8940406011094921 0.0821840538249421	-0.127293
C	0.2178872392184853 0.3857393454741358 0.1664531635726993	0.101391
C	0.2165906071908839 0.4561077650784902 0.1702301997810954	-0.179037
C	0.2472642777324743 0.4945817834236929 0.1058422314777959	0.103600
C	0.2774278804815007 0.4585372632741450 0.0389896889179132	-0.178057
C	0.2763120031989574 0.3880935827603550 0.0389726416316381	0.102537
C	0.2478678975517775 0.5693038774422071 0.1086392816789512	0.054375
C	0.1911052620720713 0.6057417396203000 0.1378913983149852	-0.132510
C	0.1919214078085683 0.6762604097972763 0.1403705258004262	-0.124286
C	0.2497650213422307 0.7126647027442313 0.1149768722927913	0.066873
C	0.3067143357147821 0.6762969185635342 0.0865987876836079	-0.118485
C	0.3055810841287434 0.6058114368101076 0.0826905485421888	-0.128128
H	0.3551067310178749 0.1976371417312114 0.7161293356821217	0.098739
H	0.4806718404282314 0.1936703071340936 0.7234827286216444	0.113558
H	0.4854686614236937 0.3011284984469790 0.4844225677294006	0.111981
H	0.3590104846098441 0.2992221842743308 0.4856098404829197	0.095272
H	0.5782039530629274 0.1457411964482518 0.6570478187814089	0.099349
H	0.7038843197017651 0.1478274200786948 0.6636815469231105	0.101042
H	0.7041247385736333 0.3515918156625905 0.5650670378176718	0.102037
H	0.5786119741984866 0.3503660593424608 0.5598561749027438	0.102234
H	0.1455930114357645 0.3039541486999902 0.7162480013475435	0.091696
H	0.0191532420115106 0.3068286023683067 0.7246243757512670	0.111099
H	0.0148067407949048 0.1997745780378691 0.4854181307300518	0.113264
H	0.1411929236596751 0.2026460881590663 0.4867121532880888	0.094859
H	0.9216956090257458 0.3544707298386982 0.6573070920426394	0.099892
H	0.7960665033752448 0.3523070351026966 0.6634964912315886	0.101878
H	0.7960460180048129 0.1485341026930047 0.5649590050666078	0.101842
H	0.9215398521522798 0.1497292569523502 0.5603106427728324	0.103254
H	0.3026091413999444 0.3544813350701848 0.7160645896039020	0.093959
H	0.3061938617554245 0.4804628743749249 0.7239858009657280	0.113684
H	0.1991003827222233 0.4849625362708828 0.4848871426176398	0.112784
H	0.2010452566917286 0.3582600479441228 0.4867591632396538	0.092066
H	0.3543338462513804 0.5781688916757401 0.6570748140436271	0.098958
H	0.3522104161572534 0.7037964375185540 0.6636136845838827	0.101908
H	0.1484872089221048 0.7039235040466923 0.5650216456465789	0.102027
H	0.1496724488589203 0.5784664097702767 0.5600255246709739	0.102441
H	0.1961529920858181 0.1452843303977208 0.7173706648385888	0.096299
H	0.1930272155882755 0.0193354992194666 0.7247732626986163	0.111872
H	0.3004460269699921 0.0151596979711277 0.4857745460386563	0.113046
H	0.2972244324832971 0.1411116092120821 0.4863587840551817	0.099519
H	0.1455780214996587 0.9217041242495108 0.6573981905200866	0.100118
H	0.1476706518649943 0.7960485614337123 0.6635142533051421	0.101414
H	0.3514476562203284 0.7960914947444291 0.5649456492194033	0.102314
H	0.3501743099958509 0.9216008145686088 0.5602955182520210	0.103635
H	0.6453744676303129 0.6975161409021549 0.7839139013651191	0.093975
H	0.5193966289201933 0.6937693881878707 0.7760399720779286	0.113509
H	0.5148485441159221 0.8008623308278258 0.0151872911315962	0.112465
H	0.6415763323511955 0.7990881274835934 0.0132017447444448	0.091973
H	0.4217817469241041 0.6456400000539989 0.8429075633382592	0.099035
H	0.2961501321343821 0.6477926371274183 0.8363790399410352	0.101862
H	0.2960249993178455 0.8515152360811654 0.9349688483210941	0.102090
H	0.4214902535196720 0.8503536670814404 0.9399771477674567	0.102485
H	0.8548514529486266 0.8037161011720813 0.7825942052206940	0.096429
H	0.9808063275626894 0.8070036575351662 0.7752449675124992	0.111660
H	0.9850280592120176 0.6995924907492406 0.0143017793210567	0.113408
H	0.8590523875562933 0.7026303203956754 0.0135893227438510	0.099531
H	0.0783475602840545 0.8544586993790431 0.8425843967286928	0.100224
H	0.2040104036514834 0.8523286437323601 0.8364746862548220	0.101130
H	0.2039616061506357 0.6485487395201911 0.9350407029598965	0.101986
H	0.0784460840751845 0.6498027320688694 0.9397116336847302	0.103624
H	0.6958247324644556 0.8543790784958383 0.7837781374107050	0.091422
H	0.6932220005442908 0.9808334169130608 0.7753149532520617	0.110897
H	0.8002849554507413 0.9851071549716045 0.0144613706894152	0.113258
H	0.7971421743114919 0.8587395903662449 0.0133432640470234	0.095047
H	0.6455477081763112 0.0782792667268857 0.8427063887690945	0.099599
H	0.6476991140391476 0.2039273988397806 0.8365166273455220	0.101818
H	0.8514489687274891 0.2039531591683842 0.9350453066981047	0.101901
H	0.8502614313455302 0.0784406163868278 0.9396811982935805	0.103304
H	0.8025908005245602 0.6449242695717088 0.7839252437365996	0.099129
H	0.8062758334484493 0.5193442723256826 0.7764677242026304	0.113619
H	0.6988187547529389 0.5146197341916121 0.0154664225291734	0.112162
H	0.7010002075867198 0.6410633517683257 0.0144580803382612	0.094991
H	0.8542339234982808 0.4218219659014917 0.8429658526692417	0.099255
H	0.8521584758120010 0.2961236642940702 0.8363288023072541	0.100966
H	0.6484221856916056 0.2958770699590219 0.9349365845112441	0.102049
H	0.6496384819804981 0.4214088692189781 0.9401391215637787	0.102236
H	0.6456369527169914 0.8041591423433444 0.2837745796228385	0.091464
H	0.5192221671436736 0.8067906413817533 0.2753309546254609	0.110911
H	0.5149461716741026 0.6997099397181585 0.5144609783126012	0.113288
H	0.6412740711394432 0.7028534052018336 0.5133569694943189	0.094833
H	0.4217049064238293 0.8544662112792902 0.3426984319077833	0.099796
H	0.2960838373488510 0.8523085283313793 0.3365173851170912	0.101847
H	0.2960638529501822 0.6485409885919874 0.4350542742734724	0.101923
H	0.4215488036377060 0.6497259625395033 0.4396872918802622	0.103326
H	0.8550564992078353 0.6974229478059217 0.2839076140398166	0.099120
H	0.9805990255557258 0.6937054505714717 0.2764749015564757	0.113502
H	0.9853245948255921 0.8011899697573684 0.5154634376311865	0.112225
H	0.8589244950239376 0.7990109148226486 0.5144558460344101	0.095184
H	0.0781886301568896 0.6457493084726296 0.3429568896650094	0.099359
H	0.2038593417771752 0.6478311164133688 0.3363274980429222	0.101260
H	0.2041081559145554 0.8515879194224704 0.4349452355660958	0.102107
H	0.0786045584129536 0.8503759916086938 0.4401464345437965	0.102195
H	0.6963033923184124 0.6451212039523579 0.2826014046730416	0.096378
H	0.6929969745062485 0.5191259063900694 0.2752489328001907	0.111585
H	0.8003916777788622 0.5148942110368213 0.5143162384519199	0.113623
H	0.7974010667339514 0.6409151465370955 0.5135780757448390	0.099603
H	0.6455529762981046 0.4216577040373196 0.3425930365320109	0.100318
H	0.6476796277930379 0.2959637003048071 0.3364753661311429	0.101262
H	0.8514403763300151 0.2960149948208967 0.4350308269028461	0.101990
H	0.8501825499311280 0.4215603891111862 0.4397027989386025	0.103635
H	0.8024635681788882 0.8546490010641015 0.2839262796861958	0.093903
H	0.8062252667205430 0.9806674543644992 0.2760451622201324	0.113442
H	0.6991547116282283 0.9852348427245037 0.5152008284376283	0.112407
H	0.7008833429117404 0.8584612746409231 0.5131930594193340	0.092063
H	0.8543474120002174 0.0782119977780849 0.3429201148079022	0.098895
H	0.8521940027064515 0.2038736861027976 0.3363810168975535	0.101608
H	0.6484956479964276 0.2039984162187854 0.4349558663390120	0.102192
H	0.6496625461213766 0.0785043416672028 0.4399680551932227	0.102510
H	0.3548789056655398 0.3037048359666847 0.2174086457997357	0.096400
H	0.4808432079653431 0.3069964567371544 0.2247491829767410	0.111637
H	0.4850691817945496 0.1996073520281291 0.9856920434982210	0.113404
H	0.3590762738187221 0.2026147114133061 0.9864069790298717	0.099553
H	0.5783545290027237 0.3544552542274953 0.1574106865556170	0.100262
H	0.7040241473979654 0.3523343512288175 0.1635207546498730	0.101316
H	0.7039727567819943 0.1485459259406741 0.0649574754281579	0.102036
H	0.5784523460449490 0.1498039623143642 0.0602911062691830	0.103658
H	0.1453527844113987 0.1975337950800259 0.2160880191699184	0.093970
H	0.0193620264405989 0.1937742021371260 0.2239523135902743	0.113283
H	0.0147995985800485 0.3008435368203654 0.9848008063411291	0.112381
H	0.1415422502450577 0.2991094158340309 0.9867965860081126	0.092080
H	0.9217760598722541 0.1456400150506211 0.1570831489032591	0.099019
H	0.7961383019917491 0.1477895155724683 0.1636175799466562	0.101692
H	0.7960125271803142 0.3515189736886215 0.0650319174072363	0.102191
H	0.9214816831023637 0.3503502984110051 0.0600224427785901	0.102524
H	0.3025816245371808 0.1449432950365922 0.2160902853148162	0.099058
H	0.3062884321187910 0.0193722996462237 0.2235459830435667	0.113518
H	0.1988238658259465 0.0146536387976556 0.9845213261077095	0.112191
H	0.2010056326067809 0.1410816927688021 0.9855567620010373	0.095137
H	0.3542396356959709 0.9218123474042105 0.1570364891502760	0.099188
H	0.3521529816834449 0.7961203124404377 0.1636734620152565	0.101083
H	0.1484280152036276 0.7958791412051690 0.0650625301559137	0.102068
H	0.1496387725509930 0.9214043562935670 0.0598584023760633	0.102207
H	0.1958337348114578 0.3543607836149505 0.2162091837284124	0.091443
H	0.1932190728126445 0.4808041731050624 0.2246887736884811	0.111011
H	0.3002802456747259 0.4850820544576452 0.9855240088857774	0.113252
H	0.2971256850864326 0.3587254627652179 0.9866497918499814	0.095063
H	0.1455450779714795 0.5782877317450793 0.1572940039887566	0.099728
H	0.1477064580068589 0.7039296688638722 0.1634838276221525	0.101769
H	0.3514379058233345 0.7039518662451646 0.0649555360899814	0.101968
H	0.3502576774700136 0.5784454178924281 0.0603186753672242	0.103363
Fe	0.2500839164676993 0.2499310640905484 0.6009115250898717	0.859994
Fe	0.7500717970091253 0.7499104802912726 0.8990973733571687	0.860080
Fe	0.7500921930122033 0.7499292611527060 0.3991004046808225	0.859692
Fe	0.2500697531129095 0.2499080972249183 0.1009014503549084	0.859597
Ga	0.2514905535094059 0.2505430956016382 0.3512447360328350	1.461032
Ga	0.7494882689618994 0.7485358004906444 0.1487738334201719	1.459892
Ga	0.7514714552825832 0.7505086953595835 0.6487696151599313	1.459660
Ga	0.2494475222330750 0.2485137441047968 0.8512259365645891	1.460877
	  	
