#======================================================================

# CRYSTAL DATA

#----------------------------------------------------------------------

data_VESTA_phase_1


_pd_phase_name                         GaFFIVE_4_Fe_i
_cell_length_a                         23.44864
_cell_length_b                         21.42088
_cell_length_c                         11.61746
_cell_angle_alpha                      88.88999
_cell_angle_beta                       89.71130
_cell_angle_gamma                      89.96890
_symmetry_space_group_name_H-M         P 1
_symmetry_Int_Tables_number            1

loop_
_symmetry_equiv_pos_as_xyz
   x, y, z

loop_
   _atom_site_label
   _atom_site_fract_x
   _atom_site_fract_y
   _atom_site_fract_z
   _atom_site_charge
C	0.4134409787865089 0.5921790177993885 0.6524429511167374	0.096946
C	0.3706933094112368 0.5473961234463249 0.6473340148145335	-0.174293
C	0.2792805471483850 0.4486380763187599 0.6475386388098948	-0.113127
C	0.2348945340027517 0.4056406518490587 0.6489814050156859	-0.115388
C	0.1357206094679427 0.3184152061194032 0.6546321519424000	-0.178033
C	0.0902635484330748 0.2769165186519776 0.6611832694633207	0.094072
C	0.9125290705357535 0.0931563371111434 0.6571300505932550	0.098887
C	0.8695947912600667 0.0486545241066798 0.6517627676586480	-0.167326
C	0.7789912250467196 0.9495136849825094 0.6499532923117350	-0.110469
C	0.7345861166874870 0.9065766430183043 0.6505136889046585	-0.113558
C	0.6358430658644773 0.8188879152881794 0.6541718301391570	-0.178398
C	0.5903682097991340 0.7774093159861948 0.6597555316451188	0.093680
C	0.5918116510932543 0.4078425555699630 0.1449864899714110	0.102352
C	0.6346824250878313 0.4524008354049799 0.1449387417436927	-0.168626
C	0.7230471719575503 0.5516484381361306 0.1496775155555737	-0.106148
C	0.7674396807174044 0.5944225887683712 0.1518644500268569	-0.114629
C	0.8655618038045148 0.6817993537386816 0.1577152010655331	-0.178937
C	0.9108758222511283 0.7232799222385552 0.1637709953518647	0.092386
C	0.0885902358865981 0.9072177302859262 0.1631696575538654	0.099553
C	0.1316311296189949 0.9516365268183934 0.1571006997167577	-0.170171
C	0.2216353790791919 0.0496819309972660 0.1504046387792602	-0.106926
C	0.2660360268857662 0.0924835182583284 0.1470942425732433	-0.113271
C	0.3638330649953858 0.1801214807875430 0.1412683342734334	-0.175097
C	0.4092906280051974 0.2216478949124475 0.1414196208115613	0.097368
C	0.5901223398768718 0.5915281236383295 0.8532458662543514	0.103734
C	0.6328260347595149 0.5467917950508348 0.8541512022660409	-0.167956
C	0.7264671155266057 0.4551782383986094 0.8537485185743081	-0.112058
C	0.7705943087120209 0.4121175120863388 0.8553357653955009	-0.111022
C	0.8649033535333130 0.3210205961491630 0.8596872414530454	-0.175036
C	0.9104834440201484 0.2796786701087920 0.8592758007311928	0.098777
C	0.0889872324781901 0.0899486892906451 0.8585356407155987	0.102926
C	0.1314759100634410 0.0449393003926859 0.8591881973023691	-0.170701
C	0.2254084575039554 0.9532269589671891 0.8578682726733530	-0.113961
C	0.2696940389110977 0.9103058950054138 0.8584429549329122	-0.114494
C	0.3654009643070354 0.8207633498226655 0.8601368968956689	-0.175088
C	0.4110097569539010 0.7794734106207658 0.8584286211546658	0.098697
C	0.4145520951487332 0.4088225217287907 0.3428858087973815	0.094504
C	0.3721531778966637 0.4538920423060716 0.3495012153454682	-0.173492
C	0.2773219071783710 0.5467240491391707 0.3560561463687199	-0.114666
C	0.2330026967474260 0.5896602009561306 0.3588815124798422	-0.115931
C	0.1395644275374889 0.6829108414261684 0.3635698465855955	-0.176314
C	0.0939408988476006 0.7242491545774346 0.3627586043409483	0.097391
C	0.9147322728334178 0.9132467139868713 0.3597523843725963	0.102002
C	0.8721534142614674 0.9582397400434146 0.3595830350182045	-0.170510
C	0.7760468305488994 0.0489845921623753 0.3546786475767285	-0.113920
C	0.7318028872769847 0.0920884744252377 0.3518828063296728	-0.117125
C	0.6349748956841877 0.1813368721432685 0.3447465357447875	-0.177948
C	0.5894111423735882 0.2226169787176613 0.3382398977438072	0.092911
C	0.5842072112680496 0.4097402946240957 0.3423167067766411	0.098091
C	0.6265748323035961 0.4547776201412577 0.3486569959091090	-0.173200
C	0.7225421890073193 0.5459945643634814 0.3553745572579634	-0.113761
C	0.7667732678519560 0.5889687581793007 0.3581877929340398	-0.115005
C	0.8617769512722034 0.6801365648113176 0.3627852541959245	-0.176185
C	0.9073424088636786 0.7215133784857429 0.3619627361348285	0.099987
C	0.0863842844756957 0.9111250260727157 0.3607528223500417	0.103659
C	0.1289258335813970 0.9560933004585914 0.3610909655081774	-0.171953
C	0.2242893686547394 0.0477194222700193 0.3561090660782474	-0.112698
C	0.2685761783170291 0.0907202762694712 0.3533814607424124	-0.115856
C	0.3638641459549800 0.1820775015841804 0.3462737275380662	-0.180445
C	0.4092988137560948 0.2235372851948511 0.3395626361961050	0.092776
C	0.4109206214538433 0.5899835744655607 0.8503585743643413	0.102739
C	0.3683546697337167 0.5451962304844934 0.8515283540345535	-0.157902
C	0.2748068193549854 0.4536404713620131 0.8528064769789961	-0.111496
C	0.2307299772089881 0.4105031523187944 0.8548094451005278	-0.114566
C	0.1371136474352667 0.3182196463442989 0.8597776359131216	-0.177202
C	0.0915496373291078 0.2769021101840196 0.8592849641028466	0.097413
C	0.9120061686570076 0.0881676851616137 0.8550432768702998	0.100341
C	0.8696243874963043 0.0431307018796111 0.8559043026191491	-0.166684
C	0.7751815321599463 0.9523725035957504 0.8555519713856379	-0.113373
C	0.7310602218181090 0.9092821114900241 0.8566271594051201	-0.115391
C	0.6368352255641194 0.8178434685222846 0.8593570962842207	-0.176413
C	0.5912296240306915 0.7766191720344219 0.8578977640044529	0.098220
C	0.4114449812389315 0.4113006147401868 0.1450083032134901	0.104126
C	0.3684451132126114 0.4557305389302591 0.1453674084891132	-0.160774
C	0.2780709722780771 0.5526773738327397 0.1503405991249797	-0.105599
C	0.2336298234944377 0.5954719343586130 0.1525611084852029	-0.116477
C	0.1342106858653770 0.6812857571788495 0.1587956104914159	-0.178791
C	0.0887278479429005 0.7226216483412664 0.1649170165150650	0.090694
C	0.9115435567301369 0.9069121305318947 0.1624396508613070	0.096834
C	0.8687137191166775 0.9515724915894214 0.1560539330003874	-0.165151
C	0.7793457588022782 0.0503645724380603 0.1489167520228366	-0.108113
C	0.7348654622062405 0.0931140961742343 0.1455736380743140	-0.114026
C	0.6387884980098588 0.1832502478196433 0.1396509426632548	-0.176235
C	0.5932094106972697 0.2246703065470644 0.1400764028953604	0.098981
C	0.5864067347430802 0.5915949569654527 0.6554185294185521	0.098964
C	0.6294380191057589 0.5471107160455227 0.6499783019353049	-0.174330
C	0.7213998073476797 0.4490076796929550 0.6487943135902223	-0.112601
C	0.7660064589230610 0.4062217058562445 0.6497362670928238	-0.113775
C	0.8650201017710476 0.3184553431118240 0.6546531883617122	-0.177442
C	0.9103288903395583 0.2767669249096418 0.6611725363929861	0.092877
C	0.0872786830889399 0.0926068258617587 0.6605347980466769	0.099272
C	0.1304320593377345 0.0483059480634442 0.6548788438921030	-0.171336
C	0.2219517580107694 0.9502232642352112 0.6523769803192049	-0.111844
C	0.2665373630392840 0.9074682143068186 0.6523842925782918	-0.113293
C	0.3646548638900516 0.8188083820660040 0.6550605524131421	-0.176955
C	0.4100396092272647 0.7771898942067885 0.6603064878401027	0.092565
C	0.3463377790790539 0.5219341128413943 0.7487334897978682	0.107239
C	0.3003344527349358 0.4746090460330820 0.7492042623712073	0.067906
C	0.2089721208314620 0.3855186702974457 0.7528012137374956	0.061609
C	0.1609172512012847 0.3407175607374660 0.7555234799154454	0.102951
C	0.8464026231308067 0.0215939716946178 0.7528088064967883	0.105815
C	0.8003720525129059 0.9743542773160592 0.7522985384459473	0.067591
C	0.7089742707790985 0.8854302871091336 0.7539947092096081	0.062213
C	0.6608666167572226 0.8407121157920727 0.7556179654696700	0.102279
C	0.6536700715285034 0.4780426179234379 0.2484065778158372	0.109718
C	0.6995529210393495 0.5253755665778875 0.2511912806051934	0.066896
C	0.7910208278415306 0.6140750208865612 0.2562970590682017	0.063309
C	0.8391600201679095 0.6586552655049726 0.2589080142624954	0.099482
C	0.1535417925424272 0.9781427173083120 0.2575079917252468	0.108809
C	0.1996434125022449 0.0253049173070433 0.2547476892765902	0.065776
C	0.2912152218295451 0.1140446934679268 0.2486642000908793	0.062455
C	0.3393405240106134 0.1587315126530792 0.2454657321678248	0.100960
C	0.6543888414631793 0.5226319267344764 0.7510914090141871	0.107027
C	0.7005590212931164 0.4754630489401510 0.7506548583775846	0.065930
C	0.7921989458748887 0.3866977649935129 0.7531710028942733	0.062776
C	0.8403694790183117 0.3420047199724789 0.7556159641785829	0.100961
C	0.1541701496549971 0.0222669090191927 0.7558652457065179	0.106090
C	0.2003211283895854 0.9750885320552000 0.7549531957647745	0.065156
C	0.2920898535621544 0.8865119645540639 0.7555404272610101	0.064352
C	0.3403917441753553 0.8419861268201194 0.7567320032726292	0.101160
C	0.3470617595532095 0.4790951085928807 0.2491446365055511	0.109828
C	0.3010171304226890 0.5263213748286069 0.2518813759410321	0.067908
C	0.2094250074501473 0.6149899776260239 0.2570315436646255	0.062681
C	0.1613272350949756 0.6596634969737956 0.2597617388856685	0.100990
C	0.8471330094994586 0.9791209558396922 0.2561839635500979	0.110407
C	0.8010282063375729 0.0262954738698483 0.2533224957276244	0.069591
C	0.7094352108658836 0.1150831402642488 0.2470990201806594	0.061389
C	0.6613328533216986 0.1598249806735569 0.2438470828656673	0.101491
H	0.4328412925513817 0.6126248030368586 0.5748630880589257	0.098443
H	0.3568774556662220 0.5332707516798721 0.5626070236351466	0.095127
H	0.2977867806999487 0.4616741351736174 0.5644826942175297	0.085598
H	0.2206145220098652 0.3875225637316096 0.5670190343483535	0.103157
H	0.1508558418268399 0.3330889125931883 0.5696300399732874	0.112953
H	0.0700086678255694 0.2586962895562586 0.5843729691603010	0.099110
H	0.9314005473732834 0.1143505881027463 0.5796687330438278	0.099128
H	0.8546311305358264 0.0359272873488858 0.5671152532056719	0.095124
H	0.7973182095475040 0.9632893629405758 0.5671393649432050	0.086057
H	0.7200381927059176 0.8893209901440564 0.5680955512395155	0.102898
H	0.6511797879429846 0.8338451864806510 0.5694786794908320	0.113577
H	0.5702376669859073 0.7594753430183627 0.5825922657698279	0.099835
H	0.5771849660331655 0.3881009252370956 0.0646142613625243	0.084027
H	0.6530767957045577 0.4661308491178273 0.0624068774243172	0.095063
H	0.7063487299175166 0.5391491950469299 0.0661311372214807	0.085809
H	0.7836079127373233 0.6127698133417674 0.0699030840076514	0.103413
H	0.8514392349612366 0.6679433797980189 0.0728528795095004	0.112722
H	0.9319137843057363 0.7421837334308830 0.0866820122701116	0.097848
H	0.0707117966748612 0.8864013009791728 0.0862685052621318	0.100066
H	0.1477278244116405 0.9647402474928000 0.0722469255109552	0.095087
H	0.2037252790989739 0.0355786702316291 0.0688561719834910	0.084603
H	0.2809844653564059 0.1092893727062194 0.0631426207228547	0.104462
H	0.3483264330870866 0.1649542036551670 0.0582599144080093	0.116821
H	0.4280013297551523 0.2378551201365645 0.0601566615875857	0.084720
H	0.5744401489130296 0.6104268088025596 0.9338914402789708	0.084189
H	0.6485936997141618 0.5314190580691265 0.9375604683526688	0.095520
H	0.7125339557295968 0.4735025800455782 0.9357508576383745	0.082843
H	0.7885337126267356 0.3986491247846585 0.9384709795971037	0.103364
H	0.8491764806485574 0.3363068755744735 0.9427849353079761	0.115575
H	0.9298694364017162 0.2641902694386370 0.9399375449194163	0.084879
H	0.0726457375844563 0.1080982229241858 0.9392477021362511	0.084178
H	0.1463117137314172 0.0282084972166235 0.9424950209094685	0.095109
H	0.2107160918929823 0.9700787277957570 0.9405295868000704	0.084361
H	0.2871001686697716 0.8956182018325135 0.9413749745713155	0.103699
H	0.3500588240970313 0.8358818750243499 0.9436109089551622	0.115010
H	0.4307954900695842 0.7637036315108255 0.9385195105848693	0.084955
H	0.4341509497649086 0.3881514731855213 0.4196972283703433	0.098483
H	0.3594266768588723 0.4687724224197138 0.4347099702715924	0.093855
H	0.2932383140961862 0.5286780241944973 0.4378424883001641	0.081981
H	0.2164732303117017 0.6030492805749627 0.4426761375381117	0.103360
H	0.1577277352429916 0.6696362262011707 0.4465036642104038	0.114745
H	0.0774073982855915 0.7426408135972800 0.4431310922626048	0.085342
H	0.9340277208927350 0.8979130406088979 0.4406219482280983	0.082423
H	0.8594983169786814 0.9767878991968190 0.4421190801248783	0.096227
H	0.7908065787766753 0.0327502587517876 0.4386440819584823	0.083529
H	0.7145159949692474 0.1076997992698825 0.4336690401965903	0.102874
H	0.6493527829630690 0.1663453528487923 0.4297931328605185	0.112359
H	0.5682392204430373 0.2401470053005533 0.4150397440022184	0.099225
H	0.5630485705567179 0.3905226520381588 0.4190689056997510	0.099197
H	0.6376846822656798 0.4712959187037567 0.4334675616563054	0.096313
H	0.7061966480415622 0.5280207318406032 0.4372216334153961	0.081784
H	0.7826945733837271 0.6025910860192942 0.4419616038093425	0.104007
H	0.8445778095840019 0.6653260683686161 0.4460781395679094	0.116520
H	0.9246964777961756 0.7377696350654496 0.4428760625048684	0.084292
H	0.0677429631308275 0.8938574112093084 0.4413064833766051	0.081732
H	0.1421546003636740 0.9734651718284942 0.4439276822852264	0.095234
H	0.2092356687109036 0.0313534550735228 0.4400642857201079	0.082908
H	0.2858049662636014 0.1058876829431728 0.4351363906045294	0.102999
H	0.3480593826064841 0.1685462073244023 0.4313904293663986	0.112218
H	0.4290566905390667 0.2424178016618932 0.4162968967193444	0.098294
H	0.4272847277275453 0.6073652073668313 0.9311872641258151	0.082109
H	0.3532302389804685 0.5289043760179214 0.9351161665747362	0.094976
H	0.2890510416964580 0.4713661848188137 0.9348231053744419	0.085939
H	0.2129345124909869 0.3966693874308376 0.9382469315806474	0.103462
H	0.1535386720936149 0.3322863659671891 0.9427606584789877	0.114279
H	0.0729010163477981 0.2594695469111326 0.9397192145310831	0.084745
H	0.9289779432125913 0.1045679304753341 0.9360683962238980	0.081115
H	0.8555695736812020 0.0253830043891554 0.9393933258549105	0.095829
H	0.7896707509526842 0.9693016257894627 0.9380173960196210	0.084618
H	0.7135223675659648 0.8945520723421441 0.9397651653122342	0.102649
H	0.6530773766875158 0.8315821531670770 0.9426794296862502	0.114201
H	0.5723457034838124 0.7590172008029671 0.9379748471400311	0.083955
H	0.4284539556946608 0.3946152285795189 0.0637728234475891	0.082808
H	0.3522478568971894 0.4715440577095811 0.0625706358542166	0.095720
H	0.2952286377983335 0.5402166118282545 0.0667569254486054	0.086568
H	0.2179908294319201 0.6140065796260523 0.0706403479867061	0.103427
H	0.1478708868765805 0.6662220348838673 0.0740530417691797	0.113223
H	0.0671106106191327 0.7403848521977512 0.0880038389551754	0.099885
H	0.9291312249232877 0.8852404105324173 0.0857132449739628	0.099366
H	0.8525456254764795 0.9640407046096994 0.0712660284891618	0.094556
H	0.7976523506209741 0.0361133588280388 0.0674150606431735	0.085685
H	0.7200240058276915 0.1094857206852068 0.0615674642951436	0.103282
H	0.6561663802870148 0.1698857896960512 0.0566676295411272	0.114882
H	0.5761238137664751 0.2433080444577964 0.0593889602952043	0.083874
H	0.5665120319785939 0.6112785919887902 0.5781085893688934	0.099464
H	0.6431019581473322 0.5323899373329425 0.5652092318569074	0.095203
H	0.7026127340379451 0.4614836116779129 0.5660637415117296	0.085853
H	0.7802828074287568 0.3878245413006636 0.5676941727345931	0.103907
H	0.8495392507190817 0.3322194619067996 0.5697305921352006	0.112694
H	0.9301080388888373 0.2575039708608579 0.5843176744893076	0.099070
H	0.0679888272795208 0.1130943500990169 0.5832576443362801	0.100913
H	0.1451241413494221 0.0349700832287800 0.5700058151028868	0.095620
H	0.2037851934922531 0.9639854166554527 0.5697867352829137	0.086737
H	0.2813416395899690 0.8903020292573280 0.5697641110674122	0.104124
H	0.3487784376137669 0.8327165465023143 0.5705106287253856	0.112832
H	0.4295608953455784 0.7582145615802953 0.5829594938064598	0.100249
Fe	0.5000414445926790 0.6858377601924961 0.7487635579194675	0.778835
Fe	-0.0000270511918107 0.1856854895498071 0.7525026199042097	0.777528
Fe	0.4999264022012568 0.3141576065722405 0.2478852585333288	0.777685
Fe	0.9998284837243823 0.8140412450717978 0.2555674007384386	0.777848
F	0.5005985683194535 0.6886496782263430 0.5830034991767994	-0.561338
F	0.0006673860127606 0.1875207077526863 0.5866432096205629	-0.560269
F	0.4999401525719684 0.3168400477418734 0.0611365747810035	-0.512039
F	0.0004185558897165 0.8148675681232909 0.0896694970183745	-0.560953
F	0.4991219067856635 0.6820412716867135 0.9377612534813597	-0.515082
F	-0.0011671336661612 0.1826159128499714 0.9410090345573058	-0.514500
F	0.4997192177786456 0.3121336891123987 0.4137803452297764	-0.560173
F	-0.0004427401168039 0.8121867002246377 0.4421004277579458	-0.511702
F	0.4790748008765197 0.7511915834327285 0.1417517421949302	-0.557930
F	0.5648174593493939 0.6446975799693255 0.1339257252560356	-0.553226
F	0.9722639976733767 0.2510570296934789 0.1427532412781412	-0.556570
F	0.0640035340483397 0.1502458499928973 0.1404150879819435	-0.554732
F	0.5677837349858894 0.3063601648000239 0.8581201227111855	-0.556853
F	0.4678737089511733 0.3961164061261547 0.8693287400967787	-0.550342
F	0.0657084102266700 0.7942410819430172 0.6457470773708017	-0.556869
F	0.9733081281543076 0.8925625963053038 0.6283501865517962	-0.551333
F	0.4389936155947292 0.6186624916100747 0.1254604168067396	-0.547220
F	0.9402195899455335 0.1159481642090267 0.1267952309241905	-0.547065
F	0.4467525563604980 0.2582355324614638 0.8678787109190201	-0.553288
F	0.9415745010601898 0.7566393773958777 0.6379063133824686	-0.553495
N	0.4336841101319266 0.6137449148993697 0.7524790685434793	-0.239452
N	0.5678899730251216 0.7561404566069567 0.7600782352211157	-0.241048
N	0.9337159188796786 0.1133781463279589 0.7573612880912941	-0.238741
N	0.0679828058910399 0.2560369332852575 0.7619594583536284	-0.240513
N	0.5664720736243630 0.3862749439725816 0.2418818818633494	-0.237002
N	0.4321517010830034 0.2435895775431880 0.2387299707128330	-0.242715
N	0.0659855364957044 0.8865212379711795 0.2636755860853985	-0.237179
N	0.9319704722249124 0.7433512165676692 0.2642686531542010	-0.243740
N	0.5665824624833788 0.6139882318702171 0.7555730764997785	-0.239103
N	0.4332413629068835 0.7571972253303570 0.7603788169881405	-0.242524
N	0.0664824448755227 0.1137392485904856 0.7608644200217126	-0.238309
N	0.9331111292249261 0.2570709080159048 0.7618416970852575	-0.242319
N	0.4343871882969850 0.3872820000905930 0.2420787287777648	-0.240422
N	0.5682346243721988 0.2443289361034588 0.2374709944564552	-0.242472
N	0.9344350190771912 0.8871787167506213 0.2628995814996227	-0.241034
N	0.0682784202722582 0.7441196543716293 0.2653283072736091	-0.240827
Ga	0.4953094127137934 0.6735491149849721 0.0990124857123211	1.422220
Ga	0.9935681140490783 0.1745551542816937 0.1021057796462293	1.422286
Ga	0.4954044542338640 0.3197616444099366 0.8996931940325881	1.421990
Ga	0.9947459251369585 0.8137963572029591 0.6032377847697806	1.423964
	  	
