#======================================================================

# CRYSTAL DATA

#----------------------------------------------------------------------

data_VESTA_phase_1


_pd_phase_name                         GaFFIVE_2_Ni
_cell_length_a                         13.84922
_cell_length_b                         13.84925
_cell_length_c                         7.96017
_cell_angle_alpha                      89.97783
_cell_angle_beta                       90.02263
_cell_angle_gamma                      89.99028
_symmetry_space_group_name_H-M         P 1
_symmetry_Int_Tables_number            1

loop_
_symmetry_equiv_pos_as_xyz
   x, y, z

loop_
   _atom_site_label
   _atom_site_fract_x
   _atom_site_fract_y
   _atom_site_fract_z
   _atom_site_charge
C	0.5313759450651624 0.7011106318513421 0.1353479444916472	0.105371
C	0.5323817068869428 0.8013415332188167 0.1408509321544131	-0.169094
C	0.4683079710295319 0.2994280664640606 0.1351007922588482	0.098867
C	0.4676664483863819 0.1991938947895201 0.1403172826929321	-0.169018
C	0.2994515450206383 0.5314246385135128 0.1346858957509380	0.103170
C	0.1992498678423170 0.5323085875255776 0.1404826937028860	-0.169511
C	0.7010710368244579 0.4685895515408521 0.1345523974134651	0.095165
C	0.8012993095252364 0.4677318489172202 0.1399066646317258	-0.168381
C	0.4685879175277545 0.7010720549735210 0.8654459756630951	0.095167
C	0.4677320620040269 0.8012984771744861 0.8600973766681762	-0.168434
C	0.5314228719527372 0.2994513383942029 0.8653132784385317	0.103283
C	0.5323072996762707 0.1992518924630173 0.8595170440799293	-0.169538
C	0.7011105066473701 0.5313778693610580 0.8646525337225937	0.105393
C	0.8013404091255775 0.5323826370229865 0.8591471387683959	-0.169092
C	0.2994281187568580 0.4683102256765428 0.8648987275284326	0.098893
C	0.1991920189681462 0.4676673749778855 0.8596787040885643	-0.169119
C	0.5000317743001333 0.1465361975609385 -0.0000794466729166	0.173110
C	0.5000882926474584 0.0442669947981119 -0.0000142972993209	-0.101389
C	0.5000318481718674 0.8539444316571476 0.0004668306630094	0.168143
C	0.5000622597869150 0.9562147381430436 0.0003184465594846	-0.089327
C	0.8539452067436504 0.5000319714690955 -0.0004681650504649	0.168186
C	0.9562140606930858 0.5000624141970823 -0.0003201620217566	-0.089714
C	0.1465341361042048 0.5000326511782142 0.0000781816233616	0.173066
C	0.0442697316622048 0.5000867941381206 0.0000111191879647	-0.101009
H	0.5543935178963314 0.6583513703779136 0.2429242825130855	0.095920
H	0.5578707579505486 0.8383312750716804 0.2528635755868430	0.125942
H	0.4435180162327141 0.3420368032452614 0.2420660512538390	0.099754
H	0.4418603549288835 0.1620167138969320 0.2520808196128310	0.126552
H	0.3426751940357795 0.5561039967672523 0.2409016181609729	0.093676
H	0.1620985339615916 0.5580103030807220 0.2522057477425307	0.126106
H	0.6588311191644980 0.4456771356811598 0.2429395104690960	0.102857
H	0.8381651420041484 0.4422104579649839 0.2521883160612658	0.126863
H	0.4456762660809935 0.6588309905519217 0.7570592982320530	0.102881
H	0.4422097309854164 0.8381659939049068 0.7478078367329223	0.126870
H	0.5561025880373198 0.3426763686434605 0.7590986670531552	0.093568
H	0.5580100932403607 0.1620999519432803 0.7477917786282895	0.126100
H	0.6583498892566633 0.5543953536921735 0.7570764087650355	0.095940
H	0.8383293277319810 0.5578708145580470 0.7471368083371637	0.125899
H	0.3420371027842742 0.4435199330963160 0.7579341031681370	0.099747
H	0.1620160257224912 0.4418612849704296 0.7479187408836900	0.126568
Ni	0.5002745095956739 0.5002715904250890 -0.0000004305268546	0.756126
Ga	0.4989959302985463 0.4989923174966003 0.5000019083813325	1.458854
F	0.4988465070532812 0.5015651292133247 0.7457417343316409	-0.556500
F	0.5015554548303449 0.4988435160705098 0.2542664065054245	-0.556472
F	0.4632523296030897 0.6260051780848600 0.4953248934206377	-0.573569
F	0.4057281245935097 0.4057108475831003 0.5000045408227036	-0.574367
F	0.6260064224791122 0.4632376055728145 0.5046805427337541	-0.573593
N	0.4999152624128932 0.3490498895104465 0.0001101125443321	-0.230265
N	0.4999882052484443 0.6514721680943346 0.0005337778736105	-0.234721
N	0.6514709868971742 0.4999894448354677 -0.0005329172291224	-0.234737
N	0.3490503276249892 0.4999167806606376 -0.0001119311022909	-0.230189
	  	
