#======================================================================

# CRYSTAL DATA

#----------------------------------------------------------------------

data_VESTA_phase_1


_pd_phase_name                         GaFFIVE_5_Ni_i
_cell_length_a                         19.87809
_cell_length_b                         19.87809
_cell_length_c                         15.65472
_cell_angle_alpha                      89.99987
_cell_angle_beta                       89.99965
_cell_angle_gamma                      89.98199
_symmetry_space_group_name_H-M         P 1
_symmetry_Int_Tables_number            1

loop_
_symmetry_equiv_pos_as_xyz
   x, y, z

loop_
   _atom_site_label
   _atom_site_fract_x
   _atom_site_fract_y
   _atom_site_fract_z
   _atom_site_charge
F	0.2878643602932296 0.1659313637959390 0.3516488423524068	-0.580864
F	0.1598896922305453 0.2641364996323601 0.3510565803686792	-0.591692
F	0.3087954004955047 0.3225551442820663 0.3509079358392088	-0.587143
F	0.6774439967072831 0.6912100849486998 0.1490772934078630	-0.587151
F	0.7358291401051236 0.8401086798823874 0.1489358899829497	-0.591638
F	0.8340592742027515 0.7121279312669067 0.1483571085326288	-0.580818
F	0.6598922209919758 0.7641305157066061 0.6489539128801515	-0.591654
F	0.7878456748869188 0.6659207702176106 0.6483589060338435	-0.580832
F	0.8088071678843717 0.8225401077478008 0.6490922084294353	-0.587154
F	0.1774601249533591 0.1911886335329840 0.8509397438507118	-0.587085
F	0.3340763347698925 0.2121490023098874 0.8516384370016011	-0.580873
F	0.2358353754600664 0.3400972322087423 0.8510634252292213	-0.591703
F	0.2496093991750702 0.2496960603569897 0.4743576808823590	-0.557034
F	0.2497155038750758 0.2490804421633184 0.2278196648848641	-0.556850
F	0.7503245182592260 0.7504128738698246 0.0256361669301793	-0.557059
F	0.7509024295184014 0.7502853669662227 0.2721763552247179	-0.556841
F	0.7496084806226989 0.7497010148280387 0.5256431772826349	-0.557025
F	0.7497238315487967 0.7490989100354017 0.7721839531290954	-0.556867
F	0.2503311239772670 0.2504076466217477 0.9743653430871386	-0.557021
F	0.2508970910499562 0.2502709331292580 0.7278252820152898	-0.556843
N	0.3554607090424377 0.2474289911322741 0.6001119949959898	-0.237871
N	0.1447294863545187 0.2523249469021489 0.6019519228862468	-0.236032
N	0.2526106699684159 0.3553017860656827 0.6008104600947257	-0.237103
N	0.2476127189372975 0.1445678698169472 0.6023250618308744	-0.237019
N	0.6446978278985798 0.7473882135363564 0.8991913606887312	-0.237140
N	0.8554323752380854 0.7523865767512304 0.8976734172809686	-0.237000
N	0.7476762560449125 0.8552712536288803 0.8980465197411832	-0.236044
N	0.7525719011400903 0.6445393995787358 0.8998891902791157	-0.237981
N	0.6447281440459944 0.7523240764207951 0.3980479172450848	-0.236160
N	0.8554614502761386 0.7474292046148049 0.3998879837798318	-0.237842
N	0.7476129989006047 0.6445682664372375 0.3976732222686185	-0.236953
N	0.7526105687154083 0.8553032834068873 0.3991905938257069	-0.237075
N	0.3554325179656755 0.2523862578489178 0.1023280657303604	-0.237047
N	0.1446978420923932 0.2473883451805973 0.1008069577213537	-0.237152
N	0.2525717093529286 0.1445386851451244 0.1001106360229112	-0.237834
N	0.2476772823111372 0.3552711933769149 0.1019536496386478	-0.236111
C	0.3888222837409012 0.2179766540482299 0.6649457726819715	0.098043
C	0.4586125281953838 0.2164614013086472 0.6688858159779050	-0.179017
C	0.4967176906272631 0.2470490066227628 0.6042546280304514	0.102406
C	0.4611089419071940 0.2776100100320304 0.5371177985064080	-0.183798
C	0.3911516572505591 0.2765927806147087 0.5370231430278571	0.099522
C	0.5708153818121081 0.2478780395853565 0.6078486271460108	0.056004
C	0.6069672372566115 0.1916761384453757 0.6373582567222646	-0.130141
C	0.6768472739476141 0.1924610265120315 0.6401970905267399	-0.125147
C	0.7129849295338134 0.2498435782547495 0.6150336266443276	0.067818
C	0.6768863664530366 0.3063838849851884 0.5868739200087216	-0.119929
C	0.6070582980555832 0.3052078313731730 0.5826347250137467	-0.126956
C	0.1112988866140628 0.2818939399387759 0.6665913415970469	0.106198
C	0.0414833299723764 0.2834003386259172 0.6705112798254861	-0.183981
C	0.0034233684558221 0.2526702909335021 0.6058028284822826	0.107269
C	0.0390941714251954 0.2223635203708760 0.5386595677700854	-0.179705
C	0.1089780902098831 0.2235365599930505 0.5387856249548582	0.107601
C	0.9292849308193812 0.2521233272549872 0.6086127656738775	0.054670
C	0.8930370234458966 0.3084129889525404 0.6376488082060950	-0.131513
C	0.8231505566384519 0.3076336940807309 0.6401779454904699	-0.124398
C	0.7870454075436347 0.2502345336128890 0.6150208733793173	0.067577
C	0.8232082113577862 0.1937305602056118 0.5868594191600170	-0.118994
C	0.8930583543077391 0.1948885112974343 0.5829504640170717	-0.126016
C	0.2819857087901642 0.3887653980812572 0.6655004833284772	0.109362
C	0.2835468955289173 0.4585450616656838 0.6694146786099803	-0.180751
C	0.2529995569646018 0.4966113701886123 0.6046750709819166	0.107154
C	0.2224905042199002 0.4609499258898354 0.5375716010638552	-0.182831
C	0.2235458122776950 0.3910300540649120 0.5377876710842338	0.105198
C	0.2521762315078311 0.5707322752942596 0.6080337127974770	0.054131
C	0.3083742999089363 0.6069118745219710 0.6374238069465451	-0.130192
C	0.3075685627767696 0.6767953747763922 0.6401798415675946	-0.124462
C	0.2501790459099432 0.7129551032791065 0.6150015251748242	0.067892
C	0.1936680528298310 0.6768407432319262 0.5868525551149232	-0.119151
C	0.1948570600173496 0.6070030246437503 0.5827172207358396	-0.126390
C	0.2180278653865301 0.1111806463388563 0.6670968314551132	0.100313
C	0.2165230497369340 0.0413335237815320 0.6707160543608018	-0.183828
C	0.2472573459221550 0.0033164108154992 0.6059618729719570	0.103863
C	0.2775950580335618 0.0390067808059248 0.5388843121084911	-0.181166
C	0.2764489586995342 0.1089147228701637 0.5389754821350774	0.096730
C	0.2478298484929266 0.9291971984296015 0.6086686257268542	0.055506
C	0.1915406013974003 0.8929965844720059 0.6376848286383725	-0.132115
C	0.1923384090027562 0.8231140969043351 0.6401687308153052	-0.124454
C	0.2497631376329804 0.7870139139656053 0.6149938633862435	0.067336
C	0.3062691915052932 0.8231421640996786 0.5868544724174743	-0.119214
C	0.3050822915123571 0.8929861082680267 0.5829688452968630	-0.126978
C	0.6112346015193689 0.7180133556903986 0.8345007444996597	0.109323
C	0.5414549694296616 0.7164529908263993 0.8305854621153643	-0.180726
C	0.5033886043724517 0.7470006359607344 0.8953251284220627	0.107125
C	0.5390496462786092 0.7775099273346689 0.9624286812650890	-0.182835
C	0.6089693743847431 0.7764540071469954 0.9622134418091920	0.105255
C	0.4292677189122424 0.7478239201786706 0.8919659826650820	0.054130
C	0.3930882013136878 0.6916258436202593 0.8625758654169176	-0.130197
C	0.3232047446692595 0.6924316240301078 0.8598195885413528	-0.124460
C	0.2870449225402931 0.7498210802193368 0.8849980431737592	0.067934
C	0.3231591060745869 0.8063321665566520 0.9131470387360762	-0.119157
C	0.3929967818858693 0.8051430845923973 0.9172825333151181	-0.126387
C	0.8888196199599800 0.7819717025437017 0.8329019310564033	0.100297
C	0.9586666919124279 0.7834771292599834 0.8292831758198248	-0.183863
C	0.9966835271355272 0.7527430352982571 0.8940374276150659	0.103873
C	0.9609932753027419 0.7224053235192096 0.9611149882974807	-0.181204
C	0.8910854831515125 0.7235509238499583 0.9610234632288827	0.096774
C	0.0708028471547217 0.7521704621504054 0.8913307677705842	0.055487
C	0.1070035965016761 0.8084595630604365 0.8623146746795255	-0.132139
C	0.1768860264765465 0.8076620192846619 0.8598314899088496	-0.124448
C	0.2129859505419806 0.7502371068809736 0.8850055975449853	0.067291
C	0.1768577066662944 0.6937311346062527 0.9131449902545299	-0.119061
C	0.1070138025795191 0.6949180489239485 0.9170306177388957	-0.126998
C	0.7181070902618304 0.8887015624540195 0.8334073746810985	0.106205
C	0.7165997643660723 0.9585169368687695 0.8294874570881062	-0.183947
C	0.7473296585892627 0.9965769931501209 0.8941964565808079	0.107207
C	0.7776366326861902 0.9609068738806360 0.9613391250541488	-0.179684
C	0.7764639762925373 0.8910229790684048 0.9612125395606101	0.107537
C	0.7478763571600278 0.0707154361891089 0.8913872088123448	0.054718
C	0.6915869747718284 0.1069632637383671 0.8623511886006692	-0.131553
C	0.6923664070320831 0.1768495188449450 0.8598216794009149	-0.124381
C	0.7497657257646717 0.2129546158268348 0.8849786446157408	0.067575
C	0.8062695144405750 0.1767917935350390 0.9131399880071929	-0.118966
C	0.8051113810732993 0.1069416989510571 0.9170490975212328	-0.126056
C	0.7820236208167611 0.6111775913597692 0.8350546071359065	0.098238
C	0.7835386649616957 0.5413876873858917 0.8311139392957724	-0.179121
C	0.7529512557871356 0.5032825424284612 0.8957451849375755	0.102383
C	0.7223900332450492 0.5388909575121867 0.9628823157427717	-0.183782
C	0.7234077769620184 0.6088483164610768 0.9629776146352211	0.099596
C	0.7521220698090082 0.4291847614463509 0.8921507355670557	0.055997
C	0.8083241900846856 0.3930328153716298 0.8626412417565449	-0.130207
C	0.8075393836820965 0.3231527931161089 0.8598022717505135	-0.125096
C	0.7501567935269737 0.2870153364717498 0.8849660193987704	0.067822
C	0.6936162815634160 0.3231138679376391 0.9131256433020004	-0.119991
C	0.6947923389622107 0.3929419008688965 0.9173649465101471	-0.126917
C	0.6112982669485434 0.7818930794798711 0.3334087030618104	0.106212
C	0.5414834186130939 0.7833999874188169 0.3294884493147496	-0.183945
C	0.5034229380852161 0.7526694647506043 0.3941973674202233	0.107232
C	0.5390926123434256 0.7223625658084167 0.4613403462635213	-0.179687
C	0.6089766485376444 0.7235351981766810 0.4612145195263582	0.107624
C	0.4292846663722464 0.7521231620206926 0.3913878121911420	0.054669
C	0.3930368947723228 0.8084128136667882 0.3623513473874222	-0.131507
C	0.3231505798836180 0.8076336140164765 0.3598216397451027	-0.124384
C	0.2870453631252828 0.7502339840607744 0.3849788273750264	0.067550
C	0.3232077837468315 0.6937299662065939 0.4131402210087459	-0.119014
C	0.3930580330292751 0.6948878617329606 0.4170493908775881	-0.126004
C	0.8888228150295776 0.7179768287704404 0.3350536344420366	0.098134
C	0.9586132036853537 0.7164615305369495 0.3311134557395543	-0.179095
C	0.9967178329866480 0.7470487080909763 0.3957443746735210	0.102411
C	0.9611091653796144 0.7776098667089089 0.4628813417865597	-0.183798
C	0.8911519873442220 0.7765925807644213 0.4629761331740744	0.099518
C	0.0708155154282745 0.7478779628420342 0.3921503657282500	0.055975
C	0.1069676907506087 0.6916759466021046 0.3626411307130593	-0.130201
C	0.1768477537272765 0.6924607350605693 0.3598023409451642	-0.125046
C	0.2129850810081900 0.7498431437808643 0.3849660116005798	0.067839
C	0.1768864152901937 0.8063836313443760 0.4131255000447680	-0.119981
C	0.1070583011775476 0.8052076298536039 0.4173647014347884	-0.126949
C	0.7180283105270630 0.6111815355762650 0.3329016692780419	0.100257
C	0.7165233679519425 0.5413343440921711 0.3292826639640570	-0.183822
C	0.7472574545177211 0.5033170197630626 0.3940366926322278	0.103870
C	0.7775950448825382 0.5390069747579114 0.4611138656101484	-0.181140
C	0.7764491386704919 0.6089147984257653 0.4610223910585351	0.096773
C	0.7478293677563292 0.4291973983392449 0.3913306170188859	0.055448
C	0.6915407712375391 0.3929966667359772 0.3623146802635291	-0.132024
C	0.6923383016881638 0.3231142071244893 0.3598316843163690	-0.124509
C	0.7497627001600730 0.2870139256559039 0.3850060482117677	0.067303
C	0.8062689857933972 0.3231423001257250 0.4131448480954066	-0.119061
C	0.8050819738574619 0.3929862281652711 0.4170302773595127	-0.127016
C	0.7819860175288891 0.8887665210645015 0.3345005314441087	0.109284
C	0.7835474446557930 0.9585460257145098 0.3305856435755026	-0.180645
C	0.7529998965608479 0.9966118723901422 0.3953251944793106	0.107055
C	0.7224902129658769 0.9609506196563279 0.4624291561824811	-0.182795
C	0.7235452971993200 0.8910312318208278 0.4622132168998713	0.105130
C	0.7521762105354712 0.0707325409582493 0.3919660225926004	0.054204
C	0.8083745433108853 0.1069123453896066 0.3625757573832738	-0.130240
C	0.8075689293991769 0.1767958288663703 0.3598194899914116	-0.124429
C	0.7501792273159811 0.2129553425658745 0.3849981016668218	0.067911
C	0.6936677981500849 0.1768410409769775 0.4131471194438093	-0.119151
C	0.6948568020729536 0.1070033406529981 0.4172826425322211	-0.126358
C	0.3888189716246815 0.2819715419144018 0.1670986741364165	0.100274
C	0.4586660255712383 0.2834770320169889 0.1707167803244098	-0.183741
C	0.4966831736037529 0.2527429289133802 0.1059625347783415	0.103836
C	0.4609933482391812 0.2224053605703224 0.0388853609782090	-0.181158
C	0.3910856156084702 0.2235509165209642 0.0389777325517153	0.096861
C	0.5708028675756388 0.2521708601997681 0.1086685493950208	0.055416
C	0.6070034053056017 0.3084595075949294 0.1376847103305064	-0.132048
C	0.6768858508441391 0.3076618524125110 0.1401679013674900	-0.124478
C	0.7129858971303092 0.2502369164017895 0.1149938409861555	0.067299
C	0.6768577864855632 0.1937310299594412 0.0868545924971472	-0.119049
C	0.6070139181552366 0.1949181050454780 0.0829689943275046	-0.127027
C	0.1112343584564559 0.2180133856363574 0.1654977725301981	0.109262
C	0.0414548396656107 0.2164531797686470 0.1694132599076854	-0.180651
C	0.0033888754789846 0.2470007003910326 0.1046738738434231	0.107146
C	0.0390505113113754 0.2775099925759193 0.0375699653187415	-0.182958
C	0.1089702618419158 0.2764541442065087 0.0377849393916079	0.105277
C	0.9292679706267734 0.2478240907755569 0.1080334135740682	0.054137
C	0.8930881277297069 0.1916257678578453 0.1374236430114456	-0.130161
C	0.8232046005165753 0.1924313482694884 0.1401799352293423	-0.124522
C	0.7870449095319514 0.2498208768260998 0.1150014148153197	0.067923
C	0.8231592966558847 0.3063322100259960 0.0868524334355606	-0.119124
C	0.8929970249716684 0.3051432681875329 0.0827169420895944	-0.126358
C	0.2820233808046361 0.1111770973096307 0.1649453855182440	0.098194
C	0.2835383542990290 0.0413870996079445 0.1688858141330035	-0.179089
C	0.2529509946223392 0.0032824166187228 0.1042550555750113	0.102434
C	0.2223901431393939 0.0388907441720895 0.0371179959983801	-0.183823
C	0.2234078953997144 0.1088480549435186 0.0370225727439964	0.099533
C	0.2521219658042032 0.9291846376138303 0.1078491268704844	0.055980
C	0.3083239379119414 0.8930327078040453 0.1373585430104702	-0.130209
C	0.3075392358614190 0.8231526719201744 0.1401972163816956	-0.125094
C	0.2501567674428753 0.7870153656619168 0.1150337623492683	0.067836
C	0.1936163998965012 0.8231137931748422 0.0868739770683445	-0.119994
C	0.1947923271134974 0.8929418864494603 0.0826349454890199	-0.126947
C	0.2181076656727650 0.3887018674924360 0.1665924868313795	0.106335
C	0.2165998447182071 0.4585168743825017 0.1705119808596006	-0.184010
C	0.2473302630331120 0.4965770160645903 0.1058026965515313	0.107244
C	0.2776372524030024 0.4609071619264689 0.0386595781714228	-0.179711
C	0.2764651984602570 0.3910230997971565 0.0387862548374531	0.107608
C	0.2478766610288554 0.5707156270958248 0.1086120067697939	0.054621
C	0.1915869223327595 0.6069632603684074 0.1376484245614371	-0.131490
C	0.1923661667597974 0.6768495413070428 0.1401779726743421	-0.124393
C	0.2497659147839489 0.7129547185182356 0.1150208402899140	0.067520
C	0.3062700188178439 0.6767922200137172 0.0868592095062549	-0.118942
C	0.3051120320545014 0.6069419869274040 0.0829500900081080	-0.125902
H	0.3584502442572122 0.1974374273616281 0.7167555466070507	0.102831
H	0.4827461616883917 0.1935571238933453 0.7242136113304619	0.113835
H	0.4875865379585246 0.3014235274252129 0.4841879947872189	0.112381
H	0.3621865820684996 0.2992675850566242 0.4851671216187657	0.098924
H	0.5797831686450654 0.1465372157351011 0.6567843598755937	0.099039
H	0.7041439045407482 0.1485162914061918 0.6632977095898526	0.100848
H	0.7042023559568036 0.3508058729882242 0.5653966051753498	0.101536
H	0.5800249227802674 0.3496208281531861 0.5604623872689690	0.102692
H	0.1423492825024722 0.3042186265757667 0.7165128995347350	0.094298
H	0.0169084825065679 0.3069796321039265 0.7250344104646133	0.112740
H	0.0127753354300762 0.1994701986956928 0.4849597799593954	0.113275
H	0.1379312785786897 0.2026952908992202 0.4859846470793253	0.097661
H	0.9201048640359359 0.3536657808514228 0.6569040449459553	0.100023
H	0.7958064813767730 0.3515727064442265 0.6632080228012399	0.101613
H	0.7959540220133702 0.1492796072758868 0.5653563704621133	0.101342
H	0.9200905970871350 0.1504872424351889 0.5607591604308243	0.103178
H	0.3026849381596805 0.3580102841341063 0.7166797150351140	0.097020
H	0.3063487365244271 0.4828881534765777 0.7246288495417542	0.114752
H	0.1988954016895726 0.4874360830992174 0.4845010978021364	0.111639
H	0.2009406244622451 0.3617290321995162 0.4863843528119214	0.094910
H	0.3535679264945181 0.5797689191838515 0.6567966743570198	0.098860
H	0.3514999020202249 0.7040991000809108 0.6632485926617112	0.101378
H	0.1492298910933627 0.7041630945088788 0.5653662413209922	0.101153
H	0.1504165044409924 0.5800219926540742 0.5605999333679010	0.102920
H	0.1959351276256584 0.1418160418216387 0.7177769605342942	0.099191
H	0.1928009127465478 0.0168330910302195 0.7252048374588096	0.112659
H	0.3006716211808608 0.0128221213464087 0.4851777444015113	0.113113
H	0.2973287527151235 0.1375749068207434 0.4857514081866208	0.103141
H	0.1463242290600756 0.9201356965312412 0.6569889150246823	0.100447
H	0.1484180915790283 0.7957856670875809 0.6632162231408484	0.101207
H	0.3507405835456714 0.7958828097048378 0.5653593523743464	0.101408
H	0.3494373137585627 0.9200500947120550 0.5607375509790055	0.103647
H	0.6419895667825740 0.6973152120581216 0.7833206059245005	0.097059
H	0.5171121059437630 0.6936517522236355 0.7753709479135370	0.114740
H	0.5125633864485775 0.8011051350587383 0.0154990330177825	0.111647
H	0.6382704164170031 0.7990598913746479 0.0136166476928714	0.094871
H	0.4202312819800201 0.6464322583033602 0.8432030640461636	0.098855
H	0.2959008944000089 0.6485002467190959 0.8367508905456725	0.101350
H	0.2958366437661598 0.8507702703022340 0.9346335134237718	0.101145
H	0.4199778947394105 0.8495835190922598 0.9394000322632885	0.102927
H	0.8581839228353277 0.8040641664364363 0.7822218175516092	0.099179
H	0.9831672691496741 0.8071993898834965 0.7747947680819232	0.112706
H	0.9871776515361838 0.6993289674578507 0.0148215685213849	0.113115
H	0.8624249761471514 0.7026710148609894 0.0142469910365791	0.103107
H	0.0798642575838363 0.8536756760965502 0.8430108023823703	0.100455
H	0.2042145095236583 0.8515820433957078 0.8367832855128483	0.101192
H	0.2041170698361233 0.6492600201228248 0.9346401671623907	0.101329
H	0.0799497322591118 0.6505632145213064 0.9392620710502889	0.103666
H	0.6957823073945483 0.8576505863897597 0.7834863820871096	0.094303
H	0.6930202228854154 0.9830915672711432 0.7749651594188284	0.112729
H	0.8005296786801953 0.9872249322413400 0.0150395184592742	0.113287
H	0.7973050605779538 0.8620689337030523 0.0140130158135598	0.097740
H	0.6463343607719074 0.0798952544000373 0.8430956979413767	0.100037
H	0.6484275582208476 0.2041933952452038 0.8367916502249898	0.101581
H	0.8507203106840352 0.2040459403183351 0.9346431583457280	0.101353
H	0.8495125326741273 0.0799096549223074 0.9392403762325022	0.103179
H	0.8025619756168814 0.6415499332954755 0.7832445414115915	0.102814
H	0.8064426292303637 0.5172541129849040 0.7757858675780585	0.113820
H	0.6985764718929685 0.5124136489305396 0.0158120089794339	0.112382
H	0.7007329963408616 0.6378133014743270 0.0148336545400217	0.098882
H	0.8534632302933466 0.4202168556729710 0.8432153318149616	0.099059
H	0.8514840696178154 0.2958562152410741 0.8367019139565537	0.100830
H	0.6491942990998658 0.2957980122170411 0.9346031391342792	0.101565
H	0.6503795412026162 0.4199753185707777 0.9395375066246755	0.102686
H	0.6423493885976365 0.8042184680197042 0.2834863950649118	0.094277
H	0.5169087974401188 0.8069793502089579 0.2749656693531710	0.112739
H	0.5127736161367665 0.6994693324053772 0.5150400521434007	0.113264
H	0.6379297696932525 0.7026929915698150 0.5140151617129679	0.097735
H	0.4201049095898678 0.8536655976102531 0.3430958220352910	0.100031
H	0.2958066770257435 0.8515726251574046 0.3367914205483989	0.101604
H	0.2959534644697137 0.6492790619350495 0.4346433318380022	0.101334
H	0.4200903604184190 0.6504867278249782 0.4392401997019096	0.103189
H	0.8584507597436271 0.6974377589930175 0.2832440737419135	0.102744
H	0.9827472650602451 0.6935568584602143 0.2757858948509859	0.113823
H	0.9875862766957528 0.8014229721192470 0.5158111377092137	0.112384
H	0.8621866110194112 0.7992669114615890 0.5148332538781275	0.098931
H	0.0797834986498878 0.6465371779687094 0.3432154671972240	0.099041
H	0.2041443438235868 0.6485160406139452 0.3367019250428649	0.100833
H	0.2042020498412472 0.8508054596150839 0.4346028895840049	0.101558
H	0.0800246323958617 0.8496202623641107 0.4395371969326564	0.102703
H	0.6959350934201273 0.6418172474605182 0.2822220940243141	0.099162
H	0.6928011866655355 0.5168338733417335 0.2747950018698976	0.112681
H	0.8006708856550424 0.5128225978247990 0.5148205691332592	0.113083
H	0.7973284039581637 0.6375744504393053 0.5142463632235598	0.103110
H	0.6463245391998729 0.4201357224139853 0.3430108596452432	0.100418
H	0.6484184376263605 0.2957859781935594 0.3367835755867143	0.101224
H	0.8507400831774738 0.2958830357137141 0.4346400329552579	0.101328
H	0.8494366817336959 0.4200499912514930 0.4392615868140879	0.103660
H	0.8026853954957970 0.8580114191088422 0.2833206284908196	0.097001
H	0.8063486610717009 0.9828888184240443 0.2753707113520659	0.114721
H	0.6988947122884231 0.9874369504762297 0.5154994011385072	0.111635
H	0.7009394076253667 0.8617295894742821 0.5136161722299823	0.094936
H	0.8535681400637483 0.0797691637058157 0.3432030493341909	0.098879
H	0.8515004230500323 0.2040993730599336 0.3367506753810068	0.101361
H	0.6492295717201949 0.2041633023936610 0.4346335838404424	0.101138
H	0.6504162951008040 0.0800221514126617 0.4394000419672451	0.102901
H	0.3581831587169430 0.3040651308032221 0.2177784189435853	0.099186
H	0.4831667066953126 0.3071994266244261 0.2252047416927136	0.112648
H	0.4871778625721674 0.1993293583419334 0.9851781366797031	0.113110
H	0.3624256540022430 0.2026721113253728 0.9857537437066942	0.103065
H	0.5798640890313309 0.3536756658955032 0.1569886056413087	0.100447
H	0.7042141508339032 0.3515817117410500 0.1632160452964699	0.101216
H	0.7041172319182704 0.1492598435227846 0.0653594322247277	0.101312
H	0.5799500141328739 0.1505634104231038 0.0607377482828954	0.103671
H	0.1419890186371758 0.1973150694793804 0.2166779664019296	0.097074
H	0.0171118412816196 0.1936519225006565 0.2246286710415589	0.114720
H	0.0125638450829006 0.3011055590841436 0.9844999625811373	0.111693
H	0.1382716274295620 0.2990607063250046 0.9863815708937488	0.094906
H	0.9202311662861260 0.1464322329992478 0.1567963387992657	0.098856
H	0.7959007126429413 0.1484998653392797 0.1632487065481558	0.101371
H	0.7958369157401233 0.3507703595916233 0.0653660157970377	0.101143
H	0.9199781795646739 0.3495838242059451 0.0605994454030205	0.102885
H	0.3025620811349043 0.1415494709092114 0.2167546118781666	0.102732
H	0.3064426770740023 0.0172536264514579 0.2242134122079630	0.113825
H	0.1985767316894269 0.0124137421697831 0.9841883015684070	0.112395
H	0.2007335636723878 0.1378129461571710 0.9851659366427045	0.098883
H	0.3534627473858172 0.9202169153856716 0.1567843586379749	0.099075
H	0.3514838428343247 0.7958560670841573 0.1632974868794958	0.100839
H	0.1491945965941417 0.7957980004557619 0.0653964984257599	0.101568
H	0.1503796457355659 0.9199754882497433 0.0604624754532878	0.102695
H	0.1957820567832409 0.3576508526031193 0.2165138608059780	0.094198
H	0.1930203452135695 0.4830915505427349 0.2250346322973733	0.112740
H	0.3005301883741505 0.4872258786271361 0.9849598488858562	0.113260
H	0.2973064165498539 0.3620690830162793 0.9859859061246050	0.097733
H	0.1463341531903986 0.5798951344582367 0.1569039148239280	0.099972
H	0.1484272056519001 0.7041935436117893 0.1632081057500666	0.101613
H	0.3507211198021526 0.7040464616124326 0.0653559923516585	0.101316
H	0.3495131918806203 0.5799097459804533 0.0607587787795555	0.103185
Ni	0.2502351149582295 0.2497537252616875 0.6007900316196828	0.761388
Ni	0.7502468170423785 0.7497655449452080 0.8992104632121853	0.761442
Ni	0.7502345437602386 0.7497543609414843 0.3992114530886240	0.761474
Ni	0.2502470709083455 0.2497641745200617 0.1007911058308894	0.761348
Ga	0.2511277231774936 0.2506515843650298 0.3511464408799250	1.473155
Ga	0.7493427592141076 0.7488769228918505 0.1488457743738671	1.473062
Ga	0.7511302023267424 0.7506482549997836 0.6488573488770534	1.473045
Ga	0.2493503141547048 0.2488659571184723 0.8511565054900119	1.473075
	  	
