#======================================================================

# CRYSTAL DATA

#----------------------------------------------------------------------

data_VESTA_phase_1


_pd_phase_name                         GaFFIVE_18_Ni
_cell_length_a                         13.88732
_cell_length_b                         14.02469
_cell_length_c                         7.92161
_cell_angle_alpha                      89.68797
_cell_angle_beta                       95.63747
_cell_angle_gamma                      89.99835
_symmetry_space_group_name_H-M         P 1
_symmetry_Int_Tables_number            1

loop_
_symmetry_equiv_pos_as_xyz
   x, y, z

loop_
   _atom_site_label
   _atom_site_fract_x
   _atom_site_fract_y
   _atom_site_fract_z
   _atom_site_charge
F	0.5037411363042340 0.3447615916470307 0.5058242069146088	-0.561207
F	0.5208534357412363 0.4913877221107783 0.7437382159174338	-0.548104
F	0.3763157539406822 0.5222216903045164 0.5116259183436942	-0.530776
F	0.0037359824921499 0.8446484960114220 0.5059970131796634	-0.561590
F	0.0207855395588623 0.9912868866058940 0.7436558779490530	-0.548134
F	0.8762402016773929 0.0221511668610599 0.5119291439977866	-0.531157
F	0.6238214976619354 0.5247251419230351 0.4906559054139367	-0.528081
F	0.4801119704015502 0.4884888155164614 0.2597035342152433	-0.549192
F	0.1237220789139833 0.0246362624807552 0.4905579998365614	-0.528206
F	0.9801642102783343 0.9884809743432874 0.2600325471357298	-0.548989
C	0.6843653423468652 0.1657224643728620 0.6550658174729459	-0.421768
C	0.7565530875525199 0.1549391790399414 0.8052711713053785	0.200752
C	0.7622080486716022 0.1984034420500843 0.9644621691198578	-0.152089
C	0.6922037554861334 0.2640024233516753 0.0257825568092360	-0.144338
C	0.6762250679442728 0.3611566977659622 0.9807248768308616	0.217706
C	0.7316602493913249 0.4212916830970023 0.8682557287185215	-0.426938
C	0.8894135155930494 0.1897736140181651 0.2281686386420766	-0.434441
C	0.8487307312638540 0.1637171791365900 0.0536806797866319	0.219042
C	0.6250833600692436 0.2425968399581586 0.1414744824385383	0.207117
C	0.6027464621241111 0.1512751480883325 0.2260072080958004	-0.427000
C	0.1843535783840421 0.6657993478491282 0.6550079297887157	-0.421498
C	0.2565657869431665 0.6549995605705433 0.8051818765950762	0.200523
C	0.2621917729082717 0.6984112042407397 0.9644114881424014	-0.151953
C	0.1922255065655926 0.7640232268357221 0.0257830861571603	-0.144133
C	0.1762667143005315 0.8611774328230229 0.9808057523806643	0.217705
C	0.2316905425898015 0.9213261094557463 0.8683578872362272	-0.427358
C	0.3894676437481384 0.6897808009245749 0.2281315583312769	-0.434074
C	0.3487372485092944 0.6637069568089734 0.0536150436859168	0.218860
C	0.1251313338859779 0.7426061012299497 0.1414573762206899	0.207599
C	0.1027767632190104 0.6512768389678552 0.2259619187194906	-0.427198
C	0.3125875557212222 0.1684405534965802 0.3461213786132208	-0.421733
C	0.2413992587157242 0.1568777684920583 0.1947487627621459	0.199609
C	0.2372176423584707 0.1983912640239326 0.0330335216542799	-0.152273
C	0.3086200305166591 0.2627548412657870 0.9712726429372546	-0.143139
C	0.3254004123996918 0.3594389882430971 0.0168403492197956	0.216728
C	0.2686473213486519 0.4194960983798358 0.1260037574182626	-0.428991
C	0.1086306746674503 0.1911339746659941 0.7707213214189872	-0.433834
C	0.1500355761695918 0.1648346004362964 0.9452831654266833	0.219848
C	0.3774522523371471 0.2409886829472306 0.8593655754835686	0.207334
C	0.3998481703410708 0.1501311452182040 0.7750833500891817	-0.426317
C	0.8125833358727053 0.6683496282389558 0.3459999262931325	-0.421815
C	0.7414346358026842 0.6568413236524216 0.1946717338748748	0.199968
C	0.7372460011271863 0.6983864430892139 0.0330678773333076	-0.152529
C	0.8086270128970745 0.7627542685496999 0.9713170116652228	-0.142902
C	0.8253937924031214 0.8594000941434339 0.0169133655123019	0.216705
C	0.7686571829567090 0.9194289360193448 0.1261478192482983	-0.429632
C	0.6086729837775133 0.6911680205954051 0.7706525022677266	-0.434057
C	0.6500537250261909 0.6648151886314120 0.9452178943159649	0.219859
C	0.8774789978590722 0.7410241002943637 0.8593531114680597	0.207339
C	0.8998617653763862 0.6501799603868144 0.7749375636971040	-0.426520
H	0.7192171204051618 0.1878862905153775 0.5425854701896613	0.144620
H	0.6308582643588128 0.2202040488577501 0.6790050068203650	0.139202
H	0.6461134233262162 0.0984251132029039 0.6236828030110320	0.133446
H	0.6852337694642883 0.4517756685013946 0.7614601391360328	0.144933
H	0.7884208613613576 0.3783218127002146 0.8185990561371582	0.132246
H	0.7662179068498838 0.4811372472394346 0.9399862283843440	0.132115
H	0.8559613101893463 0.0588855678259387 0.7056403300546711	0.275149
H	0.8678150245876466 0.1384773712479391 0.3226814706086046	0.139387
H	0.8631590959264812 0.2607116887336166 0.2597125174814804	0.130724
H	0.9687103616054926 0.1906858944472170 0.2379497664232323	0.139946
H	0.5640528197997174 0.1642174396902317 0.3378840879951551	0.142486
H	0.6690640258295315 0.1110657223757242 0.2651993066753652	0.149760
H	0.5568759167175459 0.1056117608734380 0.1387641465551686	0.133367
H	0.5251935492165689 0.3370390993840859 0.2431120221562495	0.268914
H	0.2192360075519291 0.6879357459197468 0.5425383358294996	0.144552
H	0.1308170069272285 0.7202671939543537 0.6789381976516694	0.139179
H	0.1461202126422503 0.5984830374304898 0.6236266929174262	0.133181
H	0.1852720109415322 0.9519027740082562 0.7616283706559649	0.144913
H	0.2884190602045185 0.8783363081967345 0.8185964763270145	0.132557
H	0.2662157585979629 0.9811896215207644 0.9401088373461962	0.132187
H	0.3559227723463399 0.5589368921329484 0.7055234227722496	0.275227
H	0.3678821838486182 0.6384950701118133 0.3226447625890674	0.139207
H	0.3631762730001040 0.7607165421340645 0.2597226457885103	0.130655
H	0.4687904436965715 0.6906575259322920 0.2379594708759745	0.139906
H	0.0639899111874975 0.6641279029461824 0.3378006032430094	0.142397
H	0.1690894727083378 0.6110304931488287 0.2652493509155177	0.149672
H	0.0569466721173062 0.6055650455802292 0.1387433641675866	0.133303
H	0.0252139746688790 0.8369887796138721 0.2432464678173098	0.268677
H	0.2759821234260589 0.1857885820489280 0.4587248290236566	0.144449
H	0.3632432496240236 0.2262390624028170 0.3251568740514044	0.140148
H	0.3543522788197451 0.1027717332574201 0.3751220997508058	0.133344
H	0.3151902380556247 0.4552362073333844 0.2262438701031962	0.145414
H	0.2156777607249288 0.3752001118033493 0.1842013667450761	0.133483
H	0.2289800726223836 0.4751736923254083 0.0492808065764338	0.132095
H	0.1412549285435862 0.0626041929312065 0.2976052358054388	0.274076
H	0.1296523129501095 0.1401460928137314 0.6762444855815910	0.139484
H	0.1345280708337458 0.2622055404319478 0.7379153465632469	0.129360
H	0.0293159232508697 0.1920384002709418 0.7624342939963756	0.140250
H	0.4405263445362770 0.1635250429783508 0.6653200626620777	0.141484
H	0.3333357843952443 0.1113814884356635 0.7323423683775969	0.149297
H	0.4438446672361969 0.1029881103797670 0.8635250600835643	0.134143
H	0.4800507591101539 0.3343722468893295 0.7614895139181882	0.268689
H	0.7760009328507523 0.6857365874041402 0.4586822830989669	0.144329
H	0.8633112465306254 0.7261276579817920 0.3251632525639678	0.140161
H	0.8543617515492598 0.6025859202938068 0.3749789544452742	0.133200
H	0.8152392702115560 0.9551423839578691 0.2263182973867083	0.145413
H	0.7156904255213076 0.8751038126194589 0.1842930808825301	0.133529
H	0.7290215705722770 0.9751410333301072 0.0494548412237620	0.132568
H	0.6412047110769189 0.5626034544681431 0.2974668189369657	0.274186
H	0.6295619110050026 0.6400852384471308 0.6762605219440617	0.139376
H	0.6346910800400191 0.7621636198878869 0.7377069602759072	0.129388
H	0.5293503711024563 0.6922542588793955 0.7624708853341282	0.140518
H	0.9405068749087074 0.6636339426219739 0.6652411391927940	0.141579
H	0.8333645660508353 0.6113880328739209 0.7322517396899043	0.149329
H	0.9438767887435725 0.6030163897625356 0.8632684043247785	0.134057
H	0.9800289129433514 0.8343876850374679 0.7615368709465585	0.268962
N	0.8347307637213528 0.0977932413845454 0.8064005191574748	-0.153088
N	0.6033476142939619 0.3960420931093323 0.0623628677883739	-0.259304
N	0.8917352371882287 0.1021354578108591 0.9551896821217886	-0.251269
N	0.5745634846458071 0.3234352745051853 0.1590722833881550	-0.146298
N	0.3347660227869742 0.5978911996011638 0.8062232808839125	-0.152538
N	0.1034511667787474 0.8960947136389743 0.0626032124930231	-0.259685
N	0.3917502968673957 0.6021661523949163 0.9550710940211556	-0.251726
N	0.0746628184386337 0.8234740286003659 0.1592734868544531	-0.145905
N	0.1622438431617075 0.1013678580367479 0.1957749468679379	-0.152150
N	0.4001868072276727 0.3937912417411301 0.9392929805757971	-0.257850
N	0.1057810063596523 0.1050132573478564 0.0465174772453630	-0.253347
N	0.4297454240622151 0.3212048447603509 0.8444638378176489	-0.148253
N	0.6622766714867465 0.6013129023639071 0.1956426242344580	-0.152325
N	0.9001912884504036 0.8937695572870591 0.9393439475065104	-0.257660
N	0.6058085501928575 0.6049654295374782 0.0463394881799825	-0.253163
N	0.9297423960806175 0.8212382820930260 0.8445019712296832	-0.148698
Ga	0.5005743218660782 0.4761750019255810 0.5023572213407950	1.451995
Ga	0.0004931474972260 0.9761335298182434 0.5024058710147095	1.452455
Ni	0.5001005271266326 0.5031891910631053 0.0008212174357872	0.799909
Ni	0.0001121513129209 0.0032479127271191 0.0008627077519675	0.799952
	  	
