#======================================================================

# CRYSTAL DATA

#----------------------------------------------------------------------

data_VESTA_phase_1


_pd_phase_name                         GaFFIVE_18_Zn
_cell_length_a                         14.03266
_cell_length_b                         14.02015
_cell_length_c                         8.01017
_cell_angle_alpha                      90.01146
_cell_angle_beta                       95.39301
_cell_angle_gamma                      89.97079
_symmetry_space_group_name_H-M         P 1
_symmetry_Int_Tables_number            1

loop_
_symmetry_equiv_pos_as_xyz
   x, y, z

loop_
   _atom_site_label
   _atom_site_fract_x
   _atom_site_fract_y
   _atom_site_fract_z
   _atom_site_charge
F	0.4988106069223037 0.3443611680887906 0.5007692823855819	-0.565528
F	0.5218438858429654 0.4884282701222706 0.7379694159932880	-0.545977
F	0.3773076848344972 0.5253421672131980 0.5148226819867907	-0.538442
F	0.9989166260443064 0.8443554224515970 0.5014020996318680	-0.565432
F	0.0216840885714818 0.9884900640000892 0.7382845981726448	-0.545425
F	0.8771569676281827 0.0252758540703586 0.5144577114274549	-0.539015
F	0.6214099597988620 0.5257898264907954 0.4863184654721334	-0.538668
F	0.4775073710095576 0.4889935796074643 0.2630109130673327	-0.545426
F	0.1213293293463562 0.0257372020805313 0.4862161757807485	-0.538599
F	0.9775990338229547 0.9890058674787290 0.2634777028400576	-0.545611
C	0.6823354222371359 0.1618569245657207 0.6578910434379119	-0.421362
C	0.7545504040576093 0.1543686602349037 0.8056432949258021	0.201916
C	0.7582990421191702 0.1976558777626239 0.9637059046850401	-0.151743
C	0.6880939865018824 0.2623971740853144 0.0252556003918962	-0.145341
C	0.6739632658272310 0.3601292139468747 0.9846165335906293	0.216059
C	0.7282456652298556 0.4201679469824440 0.8726554790588703	-0.429853
C	0.8853372506808613 0.1941952275423056 0.2226913037933084	-0.433507
C	0.8454220811983897 0.1666250165734141 0.0505532422661532	0.216121
C	0.6214070321447566 0.2411002158827123 0.1395573754091950	0.205616
C	0.5992899684212460 0.1495634350385723 0.2220669020310008	-0.426201
C	0.1823748224444899 0.6619207399767348 0.6577677628075940	-0.421422
C	0.2545476794921721 0.6543870395386655 0.8056223416758463	0.201660
C	0.2582621644138499 0.6976493777849633 0.9637020692170067	-0.151661
C	0.1880868774991331 0.7624114429468467 0.0253491815076826	-0.145367
C	0.1739468699478751 0.8601038723044533 0.9847005691479921	0.216757
C	0.2282651646736089 0.9201317588160806 0.8728621031809592	-0.429983
C	0.3853273474333870 0.6941812427141428 0.2228089600566250	-0.433368
C	0.3454437459055799 0.6666298279204625 0.0505400403307584	0.215369
C	0.1213897048384186 0.7410923064563096 0.1396339505242923	0.205798
C	0.0992595836022588 0.6494669229342064 0.2218960900354415	-0.426685
C	0.3174378572106178 0.1639560458011620 0.3422864794931592	-0.424370
C	0.2451022694157040 0.1555440402785780 0.1949706779663137	0.202542
C	0.2418738189000733 0.1974549052922229 0.0358258655219750	-0.152739
C	0.3126656116341511 0.2613338244422314 0.9739920982584799	-0.145539
C	0.3273631912848847 0.3586576630828050 0.0171963979362020	0.215616
C	0.2716301384334595 0.4181280478903169 0.1279533994823344	-0.430556
C	0.1145094578858568 0.1947391414394881 0.7780203402634840	-0.433630
C	0.1542463073394108 0.1672328367216376 0.9501751296517533	0.218053
C	0.3794143836398989 0.2404408863406724 0.8595926512517975	0.205435
C	0.4013535300940889 0.1498851432750445 0.7736427769425800	-0.427015
C	0.8174847024529993 0.6639390545524717 0.3423961056393316	-0.424590
C	0.7451838712815011 0.6554991876873769 0.1950348942587190	0.202179
C	0.7418819244323223 0.6974229709628409 0.0359089442934604	-0.152564
C	0.8126144623645466 0.7613821479457245 0.9740782740574767	-0.145803
C	0.8273797368237471 0.8586670969037685 0.0173071233039740	0.216135
C	0.7717358839278810 0.9181197536664073 0.1281694517912667	-0.431254
C	0.6144098350773763 0.6948157825351934 0.7781382503277993	-0.434053
C	0.6542337477128202 0.6672327894872625 0.9502185357517943	0.218157
C	0.8793905052253814 0.7404937352291502 0.8596941227766481	0.205421
C	0.9013290593102778 0.6498704804522172 0.7738774947245742	-0.425878
H	0.7163302172154571 0.1818599946771832 0.5449754980045536	0.145792
H	0.6287617219344054 0.2162565514124652 0.6798710961983881	0.139930
H	0.6453128515508291 0.0935725736278703 0.6312086345455488	0.133927
H	0.6808814824267500 0.4509975120789378 0.7698376769315955	0.146678
H	0.7832366124441216 0.3770621747484770 0.8195225024337754	0.132865
H	0.7637155564094553 0.4797423491289616 0.9429230811648726	0.131411
H	0.8566425096628572 0.0626504972952857 0.7046694649837896	0.277526
H	0.8746908835311608 0.1379260605749716 0.3145891256605486	0.141411
H	0.8493898758831367 0.2592660518665272 0.2606078456952510	0.130819
H	0.9626199556246555 0.2076833359213976 0.2266531464897097	0.139926
H	0.5663505245291448 0.1622945022861381 0.3389309035893498	0.142544
H	0.6645756683294952 0.1072021391839110 0.2503097878597621	0.149884
H	0.5493058354403549 0.1060904887849134 0.1396216320433800	0.132785
H	0.5246618317351692 0.3364884425983653 0.2456305313365088	0.270616
H	0.2163594247402837 0.6819064753998896 0.5447882291387109	0.146045
H	0.1286650902347822 0.7161739561896191 0.6798452851090530	0.139977
H	0.1453878552788311 0.5936096462436351 0.6311752499359045	0.133800
H	0.1808703008262930 0.9509556504320487 0.7700491071310974	0.146513
H	0.2833121343868357 0.8770685794460782 0.8196527853234788	0.133013
H	0.2636902752767930 0.9797698134504372 0.9430776820285620	0.131311
H	0.3566265833119873 0.5626157294978782 0.7046112631025143	0.277788
H	0.3746889955049257 0.6378561946832221 0.3145567497327514	0.141257
H	0.3493005474186478 0.7591883545051616 0.2606127470767411	0.130856
H	0.4625610823261478 0.7077481774543750 0.2267037269274972	0.140020
H	0.0663393670549654 0.6620921365386985 0.3387715908932372	0.142514
H	0.1645666684727443 0.6071955671348213 0.2503818642988410	0.150004
H	0.0493189946938242 0.6059284734040451 0.1394902330273774	0.133035
H	0.0244981368523847 0.8364604889689501 0.2455241707270684	0.270798
H	0.2829019723496656 0.1785761377432662 0.4569071287158446	0.145626
H	0.3671578765110473 0.2224611219321782 0.3236106704660879	0.141780
H	0.3591173933891116 0.0977804000570095 0.3632566244223118	0.134409
H	0.3183901929371240 0.4548518090723995 0.2247202785259996	0.147175
H	0.2210836982857963 0.3731822143314373 0.1886132050149336	0.133872
H	0.2305131720202241 0.4728221307811733 0.0538160376385783	0.131480
H	0.1425416618926035 0.0652230947602255 0.2977455570435040	0.277759
H	0.1232720309448700 0.1373162048749527 0.6873250740506484	0.141051
H	0.1522813865764215 0.2583923294502091 0.7387011254779953	0.130841
H	0.0377088720317227 0.2108553442464986 0.7742501532705395	0.140426
H	0.4354194244192662 0.1640086830973514 0.6582705093240457	0.142308
H	0.3359298758995271 0.1082401643326639 0.7419197026308942	0.150225
H	0.4506072406678326 0.1049834599803717 0.8549605443429502	0.133297
H	0.4761307219402959 0.3363164956199012 0.7551623660653354	0.270182
H	0.7828554967340433 0.6784420555677790 0.4569961545998579	0.146098
H	0.8672643377692825 0.7224108456628962 0.3237642980149584	0.141911
H	0.8591693872595585 0.5977612573093971 0.3631678853017862	0.134366
H	0.8185436670822517 0.9548871225515845 0.2248772600402204	0.147410
H	0.7211784718255374 0.8732046867167598 0.1890509477722007	0.134013
H	0.7305433126711790 0.9728980943376970 0.0542192661724201	0.131373
H	0.6425518710293564 0.5651939398114256 0.2978317695335545	0.277682
H	0.6230995972163356 0.6374061407180431 0.6874835683199029	0.141266
H	0.6522753253538073 0.7583255603608736 0.7386465920668472	0.130874
H	0.5376587385730160 0.7110229731064500 0.7745356353801710	0.140804
H	0.9352976352469023 0.6640768783901441 0.6585162710442604	0.141780
H	0.8359028288682415 0.6082829941884726 0.7419526600224693	0.149989
H	0.9506830266617378 0.6049974104515488 0.8550478767309889	0.132994
H	0.9760710638604060 0.8363606677424990 0.7550685093787237	0.270301
N	0.8344335907103814 0.1008906950986792 0.8050514427159637	-0.152035
N	0.6029213964388921 0.3955754902118300 0.0679222681076772	-0.247323
N	0.8906383573591015 0.1074205670530289 0.9517702454615259	-0.240816
N	0.5727261543959944 0.3226348099666604 0.1605245796872233	-0.149172
N	0.3344407589187717 0.6008634642508872 0.8050500105548622	-0.152693
N	0.1029049957554203 0.8955922897275028 0.0679430447566462	-0.247662
N	0.3907248698984209 0.6074799252646709 0.9516921538694472	-0.240106
N	0.0727538800578728 0.8226628782550772 0.1606997919047417	-0.149290
N	0.1646874315870478 0.1031437236422463 0.1969762361554683	-0.152436
N	0.3988979516678358 0.3942521538090174 0.9355405782362555	-0.246826
N	0.1084531077754009 0.1092043466633661 0.0501483162397501	-0.242093
N	0.4288942641593094 0.3217990105907412 0.8414520253125387	-0.148068
N	0.6647982050920093 0.6030064756853160 0.1970094030720367	-0.152327
N	0.8989397189194692 0.8942757893661913 0.9357112301045705	-0.247153
N	0.6085054760206288 0.6091753255222127 0.0502239643618073	-0.242228
N	0.9288734428354266 0.8218555924849611 0.8414580411923736	-0.148257
Ga	0.4993879425547170 0.4763001408047073 0.5003886498597507	1.447362
Ga	-0.0005608073610017 0.9762843249810065 0.5006313210498347	1.447106
Zn	0.5002369801662064 0.5075824642995962 0.0010259935288554	0.769614
Zn	0.0002074159971494 0.0075994469946917 0.0009341845457464	0.769838
	  	
