#======================================================================

# CRYSTAL DATA

#----------------------------------------------------------------------

data_VESTA_phase_1


_pd_phase_name                         GaFFIVE_13_Cd_i
_cell_length_a                         15.79532
_cell_length_b                         15.77585
_cell_length_c                         8.15318
_cell_angle_alpha                      89.87994
_cell_angle_beta                       89.65688
_cell_angle_gamma                      89.99104
_symmetry_space_group_name_H-M         P 1
_symmetry_Int_Tables_number            1

loop_
_symmetry_equiv_pos_as_xyz
   x, y, z

loop_
   _atom_site_label
   _atom_site_fract_x
   _atom_site_fract_y
   _atom_site_fract_z
   _atom_site_charge
C	0.5370803157272934 0.6951581717838313 0.8726286857042528	0.110941
C	0.5414132117733917 0.7833096088560083 0.8725557330598041	-0.151583
C	0.4638530270485752 0.3105328790737713 0.8824098372595499	0.107227
C	0.4608187380394029 0.2222562143263959 0.8809602147934863	-0.143360
C	0.8087852007585281 0.9747278415962857 0.3656861512172022	0.106812
C	0.7207679695693843 0.9724430966035302 0.3619707696148761	-0.139880
C	0.3087589604702394 0.5416137334210505 0.8689167522128286	0.103916
C	0.2206568404052237 0.5463641296374897 0.8694427337373322	-0.154651
C	0.1944547123282721 0.9770399677493656 0.3581587775163069	0.099874
C	0.2825042464938143 0.9757330022192259 0.3554301848471245	-0.138872
C	0.6934382489842951 0.4656393013132059 0.8866784231593769	0.102296
C	0.7814586540399387 0.4627377428484015 0.8821132734058620	-0.144095
C	0.4585361053117599 0.6942599130538460 0.1146814304727042	0.104205
C	0.4555396221652267 0.7823853173622640 0.1183141076231695	-0.143462
C	0.5393746970916253 0.3109240213441230 0.1266869208913411	0.102852
C	0.5430998035105937 0.2227345876565155 0.1296122659420249	-0.153753
C	0.1920076275242089 0.0121208904473438 0.6357551889959629	0.105711
C	0.2798573576317812 0.0149399997600511 0.6424034309835686	-0.137269
C	0.6937112277382889 0.5406364312415903 0.1316453414915081	0.112058
C	0.7817715492745179 0.5450212903840363 0.1311455232752052	-0.153283
C	0.8082146567726068 0.0261271774768808 0.6329394033919911	0.104868
C	0.7202578408849262 0.0273084341772342 0.6391013035823657	-0.140477
C	0.3085169174917164 0.4602714200730225 0.1071095357304521	0.108571
C	0.2204253863009185 0.4580823525063763 0.1117492234421972	-0.143866
C	0.9682259046869711 0.8058616854772788 0.6314322842682505	0.106514
C	0.9670568659677660 0.7177230243332041 0.6362275992183762	-0.140571
C	0.9865110289147504 0.1904828599186912 0.6429840733108841	0.095972
C	0.9842009115344872 0.2785760355661729 0.6466822730669424	-0.140074
C	0.0178665304102442 0.8063413314350065 0.3621622589994213	0.106489
C	0.0203106556720480 0.7183485807160989 0.3571111991234087	-0.141127
C	0.0221218177397461 0.1902982446195876 0.3649856523154371	0.106490
C	0.0237466631588750 0.2783440797413755 0.3591666865547034	-0.139622
C	0.0036049221458256 0.3232308970507081 0.5024774788234906	0.041688
C	0.0016282905800726 0.4161520873551190 0.5010990689702730	0.255887
C	0.4989527579094179 0.8277228943038847 0.9964127686976338	0.058234
C	0.5000158758481320 0.9212851328077037 0.0006696269756245	0.249204
C	0.9943364058791070 0.6731106681641891 0.4969533830041839	0.038982
C	0.9965696969551774 0.5800434115925420 0.4979891648748242	0.248458
C	0.5018502049487504 0.1776616773868710 0.0059558450502691	0.056558
C	0.5013688036291457 0.0840366334961545 0.0070814532843106	0.252860
C	0.6756193733769104 -0.0005184183493279 0.5009881100556309	0.037946
C	0.5826340312351734 0.9977294958799506 0.5024184072386000	0.248905
C	0.1757734297812137 0.5026579557893984 0.9914859634117027	0.057771
C	0.0823559620568126 0.5034341755342063 0.9948071760523025	0.250705
C	0.3259601590569675 0.9956618154732846 0.4998568930984327	0.038476
C	0.4188170930068547 0.9958798336034919 0.5019867824814530	0.257595
C	0.8264086621391384 0.5041403111915076 0.0056706044058973	0.056518
C	0.9198526204470888 0.5041078191784065 0.0030823144910645	0.250774
H	0.5645926865812441 0.6575470765073804 0.7736921477021986	0.102175
H	0.5761633319329496 0.8165475959341445 0.7761359512744316	0.121293
H	0.4371741717560654 0.3481548187761477 0.7822397659270393	0.107908
H	0.4291742010876385 0.1885494092275202 0.7821721076260496	0.120641
H	0.8467796420840971 0.9551437828138039 0.2598131512716088	0.105384
H	0.6879321444478697 0.9504164388651494 0.2529501237407719	0.120498
H	0.3466832839003255 0.5718229171772837 0.7725774673727258	0.101148
H	0.1877263843389812 0.5823817303561711 0.7750771592955956	0.122938
H	0.1580565731956277 0.9651368078600192 0.2466625516338941	0.106293
H	0.3162394362375719 0.9606153917737416 0.2422148254297081	0.115790
H	0.6549574387112834 0.4394642799994282 0.7882087092912379	0.109000
H	0.8147423903749343 0.4311386279767930 0.7820512031799477	0.117753
H	0.4307078145053246 0.6555488563408994 0.2123229290126019	0.109243
H	0.4229069144299371 0.8155987423593700 0.2171456704700734	0.118210
H	0.5674902465204315 0.3490753580509069 0.2239869338355091	0.100708
H	0.5761361897551961 0.1899365752328964 0.2281205665468933	0.122664
H	0.1534410635857044 0.0228036826033274 0.7453229243154741	0.103715
H	0.3115583195879916 0.0306366831734970 0.7566676326860755	0.119360
H	0.6562562672258483 0.5661525417473322 0.2328014950069044	0.103418
H	0.8147648760530339 0.5781650513966420 0.2289107010491875	0.120939
H	0.8461282446923827 0.0449168541021703 0.7383064319168634	0.098560
H	0.6872834763777510 0.0481409543031222 0.7495655285632791	0.119939
H	0.3463848334711294 0.4311345364694856 0.2037632737447075	0.105071
H	0.1868448185332527 0.4249089351525807 0.2098259297723153	0.118077
H	0.9495058363037392 0.8436005982091814 0.7379253273038998	0.105648
H	0.9467055275902893 0.6845195077480589 0.7469250780985667	0.119275
H	0.9743980493172573 0.1532067512963518 0.7541074991990964	0.106490
H	0.9681541903569091 0.3115178482500507 0.7600053764406958	0.119876
H	0.0356283330076939 0.8447138204044178 0.2558681384776185	0.098093
H	0.0415671518664623 0.6858126706680562 0.2466556240119321	0.119260
H	0.0334155743970217 0.1523680126270579 0.2551698085814625	0.104928
H	0.0385712010604001 0.3111553402787704 0.2448623768975056	0.119306
N	0.9539310567789376 0.5389473473261863 0.6186463918723110	-0.134856
N	0.4251407399238868 0.0451659898023457 0.0085814684462364	-0.150922
N	0.5414856016396378 0.0401275272750019 0.6230367866679156	-0.136124
N	0.9589501714454060 0.4279483610749891 0.0012866283814752	-0.145641
N	0.0416134968308067 0.5406314288599385 0.3787097428560384	-0.136056
N	0.5769111537138643 0.0438900614570150 0.0087941379244943	-0.151982
N	0.9595897786429747 0.5799028076725213 0.0021086194110152	-0.148454
N	0.5433539551263684 0.9522557375555322 0.3845950340384802	-0.134546
N	0.0449266820766351 0.4572300841910619 0.3814092965313169	-0.131267
N	0.5761942475772899 0.9601631132277316 0.0012438004421899	-0.148842
N	0.4600673320952804 0.9510472607677205 0.3849778156850437	-0.130334
N	0.0432130570380742 0.5795813250485283 0.9939652442379182	-0.152560
N	0.9558424915213563 0.4555607882665473 0.6191530154412784	-0.132186
N	0.4245558236019052 0.9613792685905348 0.0086988776670200	-0.143034
N	0.0426297770338230 0.4276097644225696 0.0001068295127550	-0.148697
N	0.4580886689769858 0.0394688621320820 0.6222865523032995	-0.137039
N	0.0044437421633312 0.1476486938836631 0.5042513952856418	-0.229297
N	0.4976663768388194 0.6517850028897029 0.9928502977314603	-0.229575
N	0.9931317397783813 0.8489420790290058 0.4969212186595139	-0.225070
N	0.5011695041273729 0.3535448661127658 0.0048016379748038	-0.228169
N	0.8513059880199640 0.0007767994114553 0.4989431394672477	-0.226423
N	0.3514659202889663 0.5000169923022582 0.9863486949776135	-0.227256
N	0.1504910196549797 0.9942159315765655 0.4962940408331577	-0.230577
N	0.6506129927080461 0.5027343650365367 0.0105729919901967	-0.231741
Cd	0.0014063855194172 0.9985868711475679 0.4998018249295573	0.819010
Cd	0.5012887625482548 0.5029298087779352 0.0003497036976187	0.819163
Ga	0.9988708861191858 0.9954735315618286 0.9999570237647538	1.466222
Ga	0.4959665800826034 0.4995211818862625 0.5002886810215105	1.472975
F	0.0029264172460070 -0.0028150901733449 0.2329474092476668	-0.557859
F	0.5260369761434071 0.4864512856743779 0.7301960762020510	-0.571289
F	-0.0035750742084536 0.9951527866104701 0.7668161534509043	-0.558181
F	0.4701851190577725 0.5164705415692551 0.2693474287976360	-0.572458
F	0.9161602242873927 0.9134621935937226 0.0067250286837983	-0.596110
F	0.4185877221466269 0.4131760846389454 0.5169320108347163	-0.605278
F	0.9688806985598256 0.1084377958002424 0.9973330645544739	-0.588348
F	0.4605115606656632 0.6081542111157442 0.5453553353433064	-0.606576
F	0.1116770515962306 0.9651512170774657 -0.0029587238823946	-0.588405
F	0.6054631059293970 0.4729111049481933 0.4416087052164966	-0.605229
	  	
