#======================================================================

# CRYSTAL DATA

#----------------------------------------------------------------------

data_VESTA_phase_1


_pd_phase_name                         GaFFIVE_2_Zn
_cell_length_a                         13.95529
_cell_length_b                         13.95533
_cell_length_c                         8.03881
_cell_angle_alpha                      90.04287
_cell_angle_beta                       89.95742
_cell_angle_gamma                      89.98535
_symmetry_space_group_name_H-M         P 1
_symmetry_Int_Tables_number            1

loop_
_symmetry_equiv_pos_as_xyz
   x, y, z

loop_
   _atom_site_label
   _atom_site_fract_x
   _atom_site_fract_y
   _atom_site_fract_z
   _atom_site_charge
C	0.5309586782986041 0.7034543093522374 0.1341616436985960	0.101624
C	0.5320421442553039 0.8028168732852969 0.1396946810237360	-0.166922
C	0.4686469584974409 0.2970780026482998 0.1342520996524971	0.098693
C	0.4679128558554105 0.1976163903055503 0.1394005733374211	-0.168658
C	0.2970211852426311 0.5310122688243309 0.1336103056370852	0.101816
C	0.1976154216752461 0.5320255224066680 0.1394162283357507	-0.169070
C	0.7033118308829932 0.4688725544641129 0.1336178135878572	0.096709
C	0.8027156063594731 0.4679926476414882 0.1389538522646443	-0.166735
C	0.4688723005514109 0.7033103038799485 0.8663817488391815	0.096612
C	0.4679916081388319 0.8027139141561640 0.8610457710802610	-0.166729
C	0.5310117973134681 0.2970209494418737 0.8663897995438810	0.101860
C	0.5320252159779890 0.1976154463331672 0.8605848215316373	-0.169108
C	0.7034551130351354 0.5309593785921923 0.8658383500888208	0.101555
C	0.8028176096342091 0.5320430050877627 0.8603059361439614	-0.166853
C	0.2970778808360648 0.4686471663039695 0.8657472569416969	0.098821
C	0.1976165104669249 0.4679133198970267 0.8605982863645680	-0.168693
C	0.5000091818879140 0.1454483146022360 -0.0000555187038417	0.172047
C	0.5000773428839406 0.0438764613675397 -0.0000604111898707	-0.097832
C	0.5000035598908429 0.8549037906899354 0.0003695663999769	0.166243
C	0.5000604174395333 0.9564711455607205 0.0002971928530206	-0.090518
C	0.8549047784248014 0.5000047946065624 -0.0003689722163025	0.166241
C	0.9564701498092030 0.5000616944736790 -0.0002970730863278	-0.090739
C	0.1454487979604669 0.5000094726902106 0.0000551407385980	0.172030
C	0.0438784865935291 0.5000778243973226 0.0000605940651358	-0.097644
H	0.5534931251260892 0.6609506281874740 0.2405590820385775	0.098288
H	0.5573648034705045 0.8394337346410784 0.2508445934848771	0.125376
H	0.4443552290381212 0.3395343278414004 0.2402925172251346	0.101162
H	0.4424063794967888 0.1609048057793345 0.2503091668697572	0.126596
H	0.3399460387650530 0.5550834266652126 0.2387618716831723	0.095953
H	0.1608469054173172 0.5574732297436138 0.2504369178870144	0.125814
H	0.6612337278686213 0.4463771779870608 0.2410189035189063	0.103079
H	0.8391170587858927 0.4427297064628982 0.2502658186908921	0.127154
H	0.4463759589622663 0.6612320697446242 0.7589809203430851	0.103126
H	0.4427286648354407 0.8391158623845064 0.7497342683351446	0.127126
H	0.5550814588997393 0.3399458120964540 0.7612384393313422	0.095951
H	0.5574727884179860 0.1608465143169590 0.7495645100806299	0.125824
H	0.6609508318650523 0.5534933360741995 0.7594410492459237	0.098292
H	0.8394337779013360 0.5573655629797536 0.7491560231151095	0.125377
H	0.3395352834704062 0.4443549395368335 0.7597063568261869	0.101150
H	0.1609038620736877 0.4424070919539214 0.7496904428080973	0.126573
Zn	0.5003834040645715 0.5003838355893278 -0.0000035013148751	0.732874
Ga	0.4994308526907948 0.4994316230501764 0.5000012817251742	1.459421
F	0.4993206892856990 0.5010660371454697 0.7421009602556804	-0.552574
F	0.5010622157260434 0.4993256938812801 0.2578985395857440	-0.552618
F	0.4642000233359429 0.6259716939473319 0.4966014927304952	-0.583886
F	0.4066158712930373 0.4065890862804469 0.5000119453040839	-0.585979
F	0.6259793825736137 0.4642219070112323 0.5033896806710824	-0.583908
N	0.4998475851236404 0.3460024354133068 0.0002841333955025	-0.222009
N	0.4998868112767089 0.6544091797309628 0.0004010480713808	-0.225424
N	0.6544097099846768 0.4998872749594366 -0.0004017269538606	-0.225459
N	0.3460021943395828 0.4998474865873910 -0.0002843318862274	-0.222026
	  	
