#======================================================================

# CRYSTAL DATA

#----------------------------------------------------------------------

data_VESTA_phase_1


_pd_phase_name                         GaFFIVE_6_Cd_i
_cell_length_a                         18.19128
_cell_length_b                         18.19127
_cell_length_c                         16.34233
_cell_angle_alpha                      90.00005
_cell_angle_beta                       90
_cell_angle_gamma                      89.97588
_symmetry_space_group_name_H-M         P 1
_symmetry_Int_Tables_number            1

loop_
_symmetry_equiv_pos_as_xyz
   x, y, z

loop_
   _atom_site_label
   _atom_site_fract_x
   _atom_site_fract_y
   _atom_site_fract_z
   _atom_site_charge
N	0.2439505143954345 0.1214610594249698 0.1282568693870119	-0.238039
N	0.2565639950230511 0.3785463311294531 0.1282917701326976	-0.239709
N	0.3785164943101041 0.2433943203459898 0.1281051572169824	-0.239208
N	0.1214355388558355 0.2559407659302093 0.1280662443891780	-0.238529
N	0.7566055056805463 0.6214834414005761 0.3718942741675284	-0.239242
N	0.7440595560185244 0.8785648704278481 0.3719333837496834	-0.238610
N	0.6214538563558285 0.7434362264872005 0.3717072400106617	-0.239703
N	0.8785383680471495 0.7560503341104444 0.3717430163734204	-0.237971
N	0.7565646778411189 0.8785462940208986 0.8717075575981514	-0.239694
N	0.7439500881964660 0.6214617277630742 0.8717427966623131	-0.237985
N	0.6214357027812571 0.7559406439864883 0.8719325111425418	-0.238586
N	0.8785170573512681 0.7433946469066289 0.8718950049495366	-0.239307
N	0.2440591262820221 0.3785647367295053 0.6280657660108772	-0.238534
N	0.2566060421586578 0.1214833996981402 0.6281051510464031	-0.239298
N	0.3785381417631342 0.2560505570812212 0.6282565899942933	-0.237947
N	0.1214546796369384 0.2434356537148232 0.6282927653884424	-0.239708
C	0.2024376305365110 0.0862344040397345 0.1837560597870277	0.105052
C	0.1940149052996409 0.0102775822755612 0.1830320216498248	-0.181291
C	0.2324648208620846 0.9684259759830275 0.1249629963654791	0.111968
C	0.2767508293740953 0.0060274149452376 0.0684651924061996	-0.181871
C	0.2798838563614338 0.0823403708343027 0.0711960860226434	0.103184
C	0.2269225240294928 0.8875936991449621 0.1237944754106885	0.061274
C	0.2898521126565899 0.8447096395780010 0.1209969807618337	-0.174457
C	0.2854939310156715 0.7671468892741650 0.1221196788743467	0.084809
C	0.1506984121541687 0.7778340137348229 0.1245595946049533	-0.122709
C	0.1567108823746714 0.8531876904556068 0.1266823628541301	-0.135973
C	0.2978421218360158 0.4136884681277350 0.1841967182515701	0.098040
C	0.3060546306930957 0.4896980898070894 0.1835083774019832	-0.183980
C	0.2675380773953880 0.5315520216358068 0.1254356710676757	0.108585
C	0.2235261999367605 0.4939368806569255 0.0687263004816544	-0.181076
C	0.2206931104522008 0.4175561507103117 0.0709587779401653	0.101968
C	0.2730237947408012 0.6124141138552205 0.1242088830474939	0.061689
C	0.2101052083707372 0.6553131184052166 0.1211955557661305	-0.174162
C	0.2144562598399563 0.7328834117286430 0.1221390900137934	0.085128
C	0.3492242285764244 0.7221828476132239 0.1246103412660616	-0.123333
C	0.3432349284509291 0.6468306948508822 0.1269186430754972	-0.136675
C	0.4137479338891041 0.2019286043019302 0.1836877935292569	0.100407
C	0.4897342689404325 0.1938222336784491 0.1833234825888399	-0.184713
C	0.5315965750396295 0.2325082003448264 0.1254116024725510	0.111754
C	0.4939762327237036 0.2766141153498130 0.0687890586177568	-0.179343
C	0.4176235214868469 0.2794509957411614 0.0711368242622930	0.108553
C	0.6124333635612978 0.2269984046587714 0.1242199324360648	0.061342
C	0.6552820487458834 0.2899132052135300 0.1212350854027340	-0.174284
C	0.7328533578254011 0.2855201129492412 0.1221551739200547	0.085453
C	0.7222041839762884 0.1507435819802789 0.1246143246572737	-0.122508
C	0.6468519450177154 0.1567629252655005 0.1269177394626675	-0.136095
C	0.0862607892902082 0.2973160029958422 0.1838735944624238	0.100385
C	0.0102736060111222 0.3057921053328487 0.1829739746283391	-0.180443
C	0.9684557908988113 0.2674558425874333 0.1248151900822079	0.108484
C	0.0060827689107425 0.2232567710627242 0.0682157597807363	-0.183039
C	0.0824428711068805 0.2201361066070664 0.0707188825127190	0.098750
C	0.8875951734524602 0.2730129377475888 0.1236945988571300	0.062007
C	0.8447072204995388 0.2101112886612102 0.1209453092335398	-0.174518
C	0.7671404782596842 0.2144712245723791 0.1221225276288449	0.084711
C	0.7777834963776719 0.3492526099487157 0.1245702242809804	-0.123363
C	0.8531430099925031 0.3432300244421023 0.1266451905754571	-0.137420
C	0.7980712979536411 0.5862515624030366 0.3163118673435841	0.100436
C	0.8061780243521020 0.5102657314369046 0.3166763060314918	-0.184774
C	0.7674920444355794 0.4684037386021290 0.3745884666543102	0.111781
C	0.7233862123109247 0.5060243027313429 0.4312111176082384	-0.179369
C	0.7205493244280881 0.5823766730140555 0.4288630133878534	0.108572
C	0.7730016268853354 0.3875671482004669 0.3757807477542044	0.061265
C	0.7100867679550860 0.3447183832992667 0.3787656656612671	-0.174259
C	0.7144796262325617 0.2671472360951623 0.3778456392834615	0.085473
C	0.8492559011687240 0.2777962157120626 0.3753865068924456	-0.122545
C	0.8432366900655532 0.3531484106244558 0.3730830728455507	-0.136095
C	0.7026840851578782 0.9137402262204272 0.3161267735269463	0.100486
C	0.6942079551611863 0.9897270860679611 0.3170266406323957	-0.180469
C	0.7325441814473175 0.0315447712663397 0.3751853806230541	0.108596
C	0.7767433858220245 0.9939176193375665 0.4317846020272833	-0.183156
C	0.7798642873025963 0.9175575247663978 0.4292807587003249	0.098822
C	0.7269868813377038 0.1124053082498523 0.3763062013879372	0.061957
C	0.7898884233532215 0.1552935429250458 0.3790555844116721	-0.174409
C	0.7855287288048670 0.2328599635528901 0.3778783382846447	0.084702
C	0.6507475017676501 0.2222170663823532 0.3754304234121321	-0.123408
C	0.6567702903204335 0.1468578057044224 0.3733555266289694	-0.137379
C	0.5863116346019610 0.7021576823284144 0.3158028903500947	0.098073
C	0.5103017165106917 0.6939458746121097 0.3164914837710414	-0.184022
C	0.4684481790010713 0.7324622377798210 0.3745646957798396	0.108631
C	0.5060635077064408 0.7764738251944718 0.4312744118995065	-0.181181
C	0.5824446031297943 0.7793068347614109 0.4290416382726606	0.102072
C	0.3875861448030782 0.7269770219867800 0.3757917196453079	0.061697
C	0.3446870439406960 0.7898954721047454 0.3788050710659801	-0.174134
C	0.2671166052796979 0.7855441965886436 0.3778610304791019	0.085135
C	0.2778170236428955 0.6507765480594877 0.3753903274716385	-0.123265
C	0.3531693670434723 0.6567662472411790 0.3730822264409652	-0.136757
C	0.9137655532952348 0.7975630453357694 0.3162437472537891	0.105008
C	0.9897225506817670 0.8059856609252171 0.3169682488143422	-0.181303
C	0.0315736898381290 0.7675353025987078 0.3750371892436475	0.111886
C	0.9939721076630096 0.7232498880597331 0.4315352590283482	-0.181763
C	0.9176588117403846 0.7201171855498197 0.4288042792364995	0.103120
C	0.1124061317234961 0.7730780871800127 0.3762053912402610	0.061253
C	0.1552900838595897 0.7101488861647404 0.3790027300807960	-0.174443
C	0.2328530553807698 0.7145069287629434 0.3778804170958648	0.084798
C	0.2221658395057545 0.8493017817545171 0.3754407535292366	-0.122692
C	0.1468118848361611 0.8432892325149988 0.3733180851900556	-0.135915
C	0.7978427611964763 0.9136890264277554 0.8158027278203955	0.097986
C	0.8060549074712980 0.9896987671060939 0.8164916814525467	-0.183944
C	0.7675378892353732 0.0315523690576391 0.8745644533308602	0.108605
C	0.7235261322887696 0.9939368451786563 0.9312738106507042	-0.181074
C	0.7206934281869600 0.9175558165649899 0.9290412618620599	0.102001
C	0.7730232123327352 0.1124143661201635 0.8757918068363082	0.061722
C	0.7101045650041942 0.1553134640129253 0.8788052029179831	-0.174147
C	0.7144557862829581 0.2328836497627919 0.8778611678043990	0.085102
C	0.8492237925449813 0.2221831477595890 0.8753904001749447	-0.123249
C	0.8432344548037290 0.1468309169562017 0.8730822944153167	-0.136776
C	0.7024373543211735 0.5862344993300324 0.8162437119592784	0.105074
C	0.6940145503023971 0.5102776852305981 0.8169683658748096	-0.181276
C	0.7324645045695071 0.4684264234009710 0.8750374605917319	0.111893
C	0.7767503522985175 0.5060283262047082 0.9315351503919048	-0.181753
C	0.7798833679908953 0.5823414598404367 0.9288042948554739	0.103097
C	0.7269223950591166 0.3875941839712622 0.8762055968883163	0.061303
C	0.7898516885294669 0.3447094637218141 0.8790028052544893	-0.174536
C	0.7854935080172422 0.2671470966698409 0.8778805411482384	0.084817
C	0.6506980665744890 0.2778342431789722 0.8754407561004321	-0.122667
C	0.6567107057362171 0.3531882646900272 0.8733180063594392	-0.135938
C	0.5862602548250082 0.7973160989352346 0.8161257185746127	0.100462
C	0.5102735034695246 0.8057924772469676 0.8170260142531048	-0.180462
C	0.4684560402842329 0.7674561098641872 0.8751849859554034	0.108520
C	0.5060833523054451 0.7232569206665954 0.9317842645862596	-0.183047
C	0.5824433726348310 0.7201360460576717 0.9292801900055615	0.098755
C	0.3875951807961113 0.7730131399387434 0.8763058599032362	0.061990
C	0.3447073519685735 0.7101115804376994 0.8790551920594699	-0.174424
C	0.2671406289539269 0.7144713035099372 0.8778776555147479	0.084707
C	0.2777837243433651 0.8492526141379640 0.8754300868712607	-0.123269
C	0.3531431815954277 0.8432298961849556 0.8733554456696727	-0.137427
C	0.9137489357267553 0.7019283860158165 0.8163129519755896	0.100408
C	0.9897350851740846 0.6938217635322170 0.8166774792508152	-0.184757
C	0.0315969812299032 0.7325079003135802 0.8745895193288492	0.111752
C	0.9939767075533781 0.7766142152628707 0.9312118943627120	-0.179346
C	0.9176240561035111 0.7794512737294944 0.9288636108018543	0.108625
C	0.1124338426257130 0.7269983265822043 0.8757811358687326	0.061361
C	0.1552824463381285 0.7899131711342803 0.8787655239378368	-0.174308
C	0.2328537430154739 0.7855202673331091 0.8778451901725856	0.085382
C	0.2222046020052610 0.6507436952013461 0.8753860796541303	-0.122572
C	0.1468522647947947 0.6567630149659240 0.8730828901682038	-0.136142
C	0.2026840616160137 0.4137394680265621 0.6838730553981468	0.100467
C	0.1942082095517264 0.4897263295600985 0.6829735368712327	-0.180500
C	0.2325441085074808 0.5315443279702373 0.6248149443104375	0.108503
C	0.2767432064915800 0.4939172170466062 0.5682157508444996	-0.183066
C	0.2798639716180789 0.4175573100105848 0.5707191541134501	0.098771
C	0.2269865383373231 0.6124049756498331 0.6236938458943118	0.062003
C	0.2898880942806601 0.6552933381989009 0.6209443042986571	-0.174421
C	0.2855285371680523 0.7328596666124726 0.6221218355223197	0.084601
C	0.1507470680004939 0.7222168136394125 0.6245698311893191	-0.123367
C	0.1567697488290982 0.6468572940602834 0.6266446635818471	-0.137428
C	0.2980716856158164 0.0862519336015802 0.6836876671102285	0.100446
C	0.3061782000536084 0.0102658372257798 0.6833234213622655	-0.184719
C	0.2674923551194349 0.9684033565974615 0.6254115092745109	0.111741
C	0.2233863214622242 0.0060236226033413 0.5687890764270590	-0.179350
C	0.2205495422842709 0.0823762525717125 0.5711368273414367	0.108590
C	0.2730016245789295 0.8875666214673902 0.6242195867962016	0.061371
C	0.2100865317801510 0.8447179528426441 0.6212347879669252	-0.174286
C	0.2144793758879145 0.7671468157438928 0.6221541672208952	0.085477
C	0.3492559221715328 0.7777958025093655 0.6246136609057572	-0.122479
C	0.3432368947227461 0.8531480918213332 0.6269173882378692	-0.136121
C	0.4137651339456073 0.2975630755800587 0.6837564525459504	0.105068
C	0.4897220780158797 0.3059854297078128 0.6830321768800284	-0.181333
C	0.5315734691244750 0.2675351719631600 0.6249634140252879	0.111928
C	0.4939720584078602 0.2232497315783454 0.5684652430761432	-0.181688
C	0.4176587382540136 0.2201165427419217 0.5711959445900603	0.103033
C	0.6124058468596950 0.2730776985222776 0.6237953041721160	0.061175
C	0.6552898356553202 0.2101484721117516 0.6209977671123170	-0.174476
C	0.7328530353726078 0.2145064257047795 0.6221203834573941	0.084889
C	0.7221657385883824 0.3493017273158138 0.6245597242659980	-0.122653
C	0.6468116114406929 0.3432890819853071 0.6266822696875013	-0.135918
C	0.0863121004661643 0.2021577401385507 0.6841978055682132	0.098024
C	0.0103020656250001 0.1939458723584008 0.6835093515930784	-0.183981
C	0.9684483626212471 0.2324619792196510 0.6254361426045646	0.108582
C	0.0060638159234946 0.2764734387203670 0.5687263693515056	-0.181117
C	0.0824450256877665 0.2793063907033885 0.5709588185829724	0.102053
C	0.8875863655072090 0.2269767911168870 0.6242091849388142	0.061735
C	0.8446870953937611 0.2898952551846756 0.6211957897939030	-0.174120
C	0.7671164566332742 0.2855441384971252 0.6221391842142573	0.085090
C	0.7778170250510250 0.1507760683341504 0.6246106429984666	-0.123363
C	0.8531695895743441 0.1567657256303883 0.6269187731919647	-0.136701
H	0.1768088745370866 0.1207337060048360 0.2303615349747916	0.099193
H	0.1597455012942121 0.9835638244751657 0.2289553864837279	0.113724
H	0.3068465347055233 0.9759093716102735 0.0215362950070353	0.113615
H	0.3110288600296310 0.1142333838938903 0.0264558818713733	0.097731
H	0.3439327432457588 0.8707600428360156 0.1204058241738541	0.108129
H	0.0967651877559703 0.7516026016519602 0.1251284422045629	0.109887
H	0.1074721027680061 0.8874960512822786 0.1287154521383416	0.100591
H	0.3236796712580431 0.3791271461373059 0.2308349207033823	0.102425
H	0.3404683184912480 0.5164393806199935 0.2292775777030006	0.114027
H	0.1935278980346322 0.5240337363920109 0.0217244212754860	0.115246
H	0.1907856869506114 0.3858765003280774 0.0248779035610009	0.103233
H	0.1560163014680227 0.6292811564107931 0.1205346739813331	0.108568
H	0.4031290070245656 0.7484550975788240 0.1250661039364378	0.107055
H	0.3924882203058426 0.6125467301391370 0.1289555310880027	0.101353
H	0.3790102587585163 0.1754757951914160 0.2295669067044882	0.098275
H	0.5164715642764547 0.1593731518243197 0.2290955667179307	0.113316
H	0.5240390563173141 0.3065882850543504 0.0217556051414808	0.115049
H	0.3858677752417927 0.3097334050746038 0.0255925826830011	0.099358
H	0.6292253729168277 0.3440132973261034 0.1206024315099990	0.108914
H	0.7484237959634206 0.0967951833811709 0.1250366973700355	0.108143
H	0.6125904490156302 0.1075142519359598 0.1288801442518009	0.101991
H	0.1205538435755160 0.3224035896085758 0.2311570177348729	0.103641
H	0.9835496399865202 0.3400576960112849 0.2288989145783793	0.114413
H	0.9759557687322726 0.1931536082180626 0.0213242142175507	0.113791
H	0.1143003416382311 0.1893554239258025 0.0254520554348437	0.101648
H	0.8707791597574709 0.1560254204607020 0.1202922284253565	0.107499
H	0.7514481320075082 0.4031562515831675 0.1252007321915265	0.108654
H	0.8874351995494340 0.3924537625026489 0.1287338936440990	0.100419
H	0.8245240817953663 0.6209893761841334 0.2704332504186843	0.098275
H	0.8406275913682707 0.4835281893547861 0.2709048714066896	0.113353
H	0.6934123638380419 0.4759612292533612 0.4782446138737868	0.115072
H	0.6902674272107031 0.6141324807865701 0.4744075520352133	0.099362
H	0.6559869741508314 0.3707757384743596 0.3793981081982846	0.108902
H	0.9032044498992052 0.2515762408435926 0.3749632103806454	0.108174
H	0.8924858465033376 0.3874095599462673 0.3711203351742014	0.101999
H	0.6775962927800109 0.8794473635049185 0.2688437509299147	0.103577
H	0.6599426059167790 0.0164510409495369 0.2711017391124291	0.114394
H	0.8068470085932256 0.0240447671746089 0.4786757790083514	0.113854
H	0.8106454285796358 0.8856998773622757 0.4745467557688089	0.101646
H	0.8439743074019652 0.1292216940292784 0.3797078937629082	0.107443
H	0.5968435691456216 0.2485517371157893 0.3748000883630172	0.108645
H	0.6075467420350195 0.1125653795309838 0.3712666793262325	0.100424
H	0.6208725025911579 0.6763203611596970 0.2691641793657334	0.102410
H	0.4835607336690200 0.6595316883070130 0.2707226410670096	0.114038
H	0.4759668906878783 0.8064722284587383 0.4782765455888487	0.115243
H	0.6141243935132766 0.8092140510160429 0.4751223474484157	0.103228
H	0.3707185013327920 0.8439847431985084 0.3794658516389142	0.108546
H	0.2515446990527476 0.5968715419482422 0.3749346956176592	0.107038
H	0.3874530878020694 0.6075126083208388 0.3710453218989793	0.101376
H	0.8792659744719107 0.8231913166561059 0.2696379178650917	0.099189
H	0.0164360032555251 0.8402551834512421 0.2710447950505224	0.113786
H	0.0240897088400408 0.6931541492122497 0.4784638399345755	0.113568
H	0.8857656028840346 0.6889724817276845 0.4735442575983222	0.097743
H	0.1292400979824819 0.6560681247734133 0.3795945772431358	0.108115
H	0.2483968509724415 0.9032353472271882 0.3748715738739415	0.109851
H	0.1125036749920603 0.8925280012274195 0.3712846184369787	0.100568
H	0.8236806989596491 0.8791277982616450 0.7691648183404545	0.102435
H	0.8404687540254110 0.0164402458153270 0.7707225636250281	0.114022
H	0.6935272835094050 0.0240334209384431 0.9782759345936712	0.115241
H	0.6907863768669106 0.8858760930453229 0.9751223095262828	0.103221
H	0.6560156818566947 0.1292813642799598 0.8794659195099898	0.108556
H	0.9031287682592445 0.2484556251318889 0.8749348105052254	0.107060
H	0.8924879367212353 0.1125469739013992 0.8710452736402040	0.101370
H	0.6768092050763403 0.6207334810402768 0.7696372571431404	0.099162
H	0.6597449777064186 0.4835638314361098 0.7710447247877548	0.113734
H	0.8068463921047392 0.4759103746132548 0.9784641726547706	0.113561
H	0.8110283336848353 0.6142348268419596 0.9735443482100793	0.097724
H	0.8439324094918679 0.3707599678269584 0.8795946508392665	0.108139
H	0.5967647838809861 0.2516031459906807 0.8748716945033091	0.109845
H	0.6074720115975859 0.3874965003844832 0.8712844384021952	0.100575
H	0.6205534493774048 0.8224036068896793 0.7688428225332159	0.103589
H	0.4835493659413928 0.8400579837381605 0.7711012137669261	0.114422
H	0.4759565644600107 0.6931535598960290 0.9786758110813946	0.113808
H	0.6143013850526691 0.6893557447200092 0.9745466695464369	0.101656
H	0.3707793018563254 0.6560259261514975 0.8797077119395198	0.107464
H	0.2514486538558147 0.9031561715152822 0.8747999032052983	0.108637
H	0.3874351972033578 0.8924534503411700 0.8712666594376198	0.100405
H	0.8790113455247064 0.6754758222745372 0.7704338988630226	0.098306
H	0.0164727075002353 0.6593725565406321 0.7709055863431483	0.113344
H	0.0240396357439415 0.8065882374512466 0.9782455369154757	0.115061
H	0.8858684495698594 0.8097341527541473 0.9744075768618969	0.099356
H	0.1292249577227168 0.8440131429666050 0.8793985369640750	0.108927
H	0.2484240071015022 0.5967953815968201 0.8749630366462025	0.108183
H	0.1125907108133133 0.6075144342344208 0.8711206283609749	0.102023
H	0.1775962839685027 0.3794468744672240 0.7311564834959656	0.103601
H	0.1599426105182108 0.5164506755781635 0.7288985584816995	0.114453
H	0.3068465372026199 0.5240443506985242 0.5213241492880842	0.113798
H	0.3106451247020107 0.3856998632859939 0.5254527321066375	0.101649
H	0.3439739440488842 0.6292213474804652 0.6202919794926052	0.107485
H	0.0968433395296829 0.7485518101627393 0.6252004180182960	0.108653
H	0.1075461438187721 0.6125648957341080 0.6287339825762073	0.100415
H	0.3245242374012924 0.1209896379908256 0.7295667557654234	0.098283
H	0.3406272050769757 0.9835282996268840 0.7290956018860923	0.113306
H	0.1934121451813642 0.9759601527965736 0.5217559988035755	0.115060
H	0.1902668660198309 0.1141316821906282 0.5255928290435768	0.099360
H	0.1559868697961124 0.8707754082928102 0.6206021647981297	0.108899
H	0.4032044260926494 0.7515757105004288 0.6250366961251634	0.108139
H	0.3924859042151687 0.8874094945294986 0.6288805466307094	0.101990
H	0.3792652995426304 0.3231915883122929 0.7303618260795998	0.099191
H	0.5164355630011401 0.3402548500311494 0.7289557268853191	0.113751
H	0.5240897114172844 0.1931534851412686 0.5215367814952996	0.113555
H	0.3857654733602220 0.1889719090879049 0.5264557972973282	0.097746
H	0.6292398609874341 0.1560676565463053 0.6204062293115453	0.108120
H	0.7483968205486611 0.4032351715791303 0.6251288735342871	0.109865
H	0.6125035431343948 0.3925280382634472 0.6287153979513527	0.100566
H	0.1208725796492915 0.1763205262430709 0.7308369183431088	0.102411
H	0.9835609876144146 0.1595317106953680 0.7292784338470608	0.114020
H	0.9759670316285005 0.3064717030235725 0.5217242809150159	0.115238
H	0.1141244802556525 0.3092136161178842 0.5248777407894426	0.103214
H	0.8707188069559950 0.3439844261846803 0.6205348412996159	0.108533
H	0.7515446127902937 0.0968711977126791 0.6250659862130060	0.107062
H	0.8874531739949595 0.1075119657805648 0.6289555118254980	0.101368
F	0.2555097271027915 0.1496576988964207 0.3784473254119500	-0.623501
F	0.1589043580599703 0.2971022187379336 0.3788482483462530	-0.619922
F	0.3330699272544203 0.3082510478991140 0.3786478903467695	-0.622957
F	0.6917396508685414 0.6669343589068558 0.1213763627791336	-0.623009
F	0.7029134600393029 0.8411007009070313 0.1211567509265845	-0.619895
F	0.8503467945441429 0.7445041389802386 0.1215353015729173	-0.623518
F	0.6589123529579648 0.7971072069896805 0.6211543458257190	-0.619908
F	0.7554750107402369 0.6496495728895791 0.6215448064908681	-0.623525
F	0.8330810278528352 0.8082259000926932 0.6213572127223987	-0.623058
F	0.1917219151987464 0.1669281110772157 0.8786267130297146	-0.623009
F	0.3503328341237232 0.2444945788785335 0.8784707822142513	-0.623550
F	0.2028881688988356 0.3410869991167499 0.8788383723224126	-0.619951
F	0.2494376618297746 0.2502615979180275 0.2619350668556429	-0.568472
F	0.2496798203764284 0.2498151938942602 0.4950671216209542	-0.568545
F	0.7497590470837068 0.7505560662251646 0.2380605533300308	-0.568450
F	0.7501795684954395 0.7503187353654023 0.0049265661645655	-0.568543
F	0.7494481881718482 0.7502456630206928 0.7380617442386399	-0.568448
F	0.7496781230612642 0.7498188801427189 0.5049248130763844	-0.568597
F	0.2497629515765947 0.2505634550075780 0.7619359646696858	-0.568468
F	0.2501706184932470 0.2503165671182153 0.9950662196197486	-0.568582
Cd	0.2498977038465776 0.2501970665735612 0.1285672924181473	0.823702
Cd	0.7498024823868201 0.7501027216260516 0.3714213299445119	0.823673
Cd	0.7498971768572866 0.7501979061860907 0.8714222657658133	0.823664
Cd	0.2498023796287345 0.2501036502244794 0.6285669447901068	0.823668
Ga	0.2494236476725717 0.2509550873078261 0.3785473777053799	1.493010
Ga	0.7490493469194789 0.7505755067122810 0.1214483566382735	1.493038
Ga	0.7494194405209488 0.7509473341108683 0.6214476217701900	1.493166
Ga	0.2490377418273244 0.2505697764474362 0.8785450466920929	1.493171
	  	
