#======================================================================

# CRYSTAL DATA

#----------------------------------------------------------------------

data_VESTA_phase_1


_pd_phase_name                         GaFFIVE_6_Cu_i
_cell_length_a                         17.56798
_cell_length_b                         17.57866
_cell_length_c                         16.04468
_cell_angle_alpha                      90.00969
_cell_angle_beta                       89.99426
_cell_angle_gamma                      89.94571
_symmetry_space_group_name_H-M         P 1
_symmetry_Int_Tables_number            1

loop_
_symmetry_equiv_pos_as_xyz
   x, y, z

loop_
   _atom_site_label
   _atom_site_fract_x
   _atom_site_fract_y
   _atom_site_fract_z
   _atom_site_charge
N	0.2436255457645851 0.1340588511566079 0.1283949773380939	-0.229787
N	0.2580817332999609 0.3658325445011759 0.1279952303706832	-0.228159
N	0.3656657305592456 0.2416953155093174 0.1282930484676142	-0.230173
N	0.1344486620379360 0.2565385816005614 0.1269194679778076	-0.228451
N	0.7583156386356448 0.6340891670965387 0.3717532120222937	-0.230083
N	0.7434622424177333 0.8658053740478188 0.3731011972575330	-0.227916
N	0.6343580609650384 0.7419229464515090 0.3719795236402117	-0.228107
N	0.8657045314980910 0.7563672879542542 0.3715629470059132	-0.229821
N	0.7580825736545753 0.8658326397562425 0.8719670558942454	-0.228679
N	0.7436222809316405 0.6340580547930611 0.8715881141066846	-0.229843
N	0.6344427041016548 0.7565406706263577 0.8730440279353874	-0.228339
N	0.8656762642539039 0.7417011332894249 0.8717209268466513	-0.230047
N	0.2434247589900708 0.3657689269061400 0.6268580851371371	-0.227940
N	0.2583295347226283 0.1341009466064209 0.6282465640642891	-0.230429
N	0.3656932331424358 0.2563315357523770 0.6284598848282251	-0.229564
N	0.1343848349627519 0.2419330284142570 0.6279762673360378	-0.228068
C	0.2053339243866222 0.0971973373870589 0.1886805019693590	0.107832
C	0.1967184538295523 0.0186327729270851 0.1877926697107164	-0.178516
C	0.2313658824044868 0.9758689094867398 0.1245115318431450	0.113005
C	0.2726393445424427 0.0151569021365273 0.0633316838383390	-0.179344
C	0.2763194573624465 0.0940349223138807 0.0665113224293665	0.104169
C	0.2255881215124789 0.8921983998152088 0.1231551060225586	0.062004
C	0.2908359681848406 0.8480931503740196 0.1202304595942773	-0.174451
C	0.2867754650771099 0.7678262856652266 0.1220702259543120	0.085450
C	0.1471932421140856 0.7782898740882211 0.1246141058228464	-0.125932
C	0.1531293190599760 0.8563291332606556 0.1264152677681847	-0.137517
C	0.2954242252102510 0.4022384718618783 0.1895150631840302	0.099051
C	0.3033319049530326 0.4809138100676316 0.1898018332977305	-0.181256
C	0.2693542343972217 0.5240598811033771 0.1263768303884019	0.108015
C	0.2298268780348909 0.4851037251293461 0.0636938479110263	-0.178308
C	0.2263603115563676 0.4061192955003511 0.0656711321863095	0.098637
C	0.2747139890249680 0.6077531921068490 0.1254229283308891	0.064525
C	0.2094026380303069 0.6517311947166489 0.1219283343142702	-0.174650
C	0.2134239567463762 0.7320271942624993 0.1224076248551238	0.085541
C	0.3530036748078242 0.7216342953824069 0.1252427754529588	-0.125449
C	0.3471423855329515 0.6436485353052884 0.1283311972162557	-0.137077
C	0.4020842938166590 0.2031631343911897 0.1888101544112710	0.101802
C	0.4807519216349446 0.1950504924865488 0.1891621419233493	-0.182389
C	0.5240340902035732 0.2304157198056127 0.1267073668562237	0.111994
C	0.4850661928861149 0.2709596974528548 0.0647679068246836	-0.174698
C	0.4060558380893847 0.2741989969292292 0.0666531666959186	0.107340
C	0.6078055420465855 0.2250682412185970 0.1256925883329708	0.061606
C	0.6517797567132939 0.2903303022574327 0.1222467710136140	-0.174565
C	0.7321360397851542 0.2862328052562816 0.1223713582104663	0.085934
C	0.7219016649386933 0.1467511732577468 0.1248587016272586	-0.124543
C	0.6438765628885865 0.1526639176264315 0.1282564907674774	-0.135408
C	0.0974257610160185 0.2939243571541944 0.1879415591660159	0.100384
C	0.0187498639379974 0.3020120951506960 0.1872927013236494	-0.179745
C	0.9761696039043016 0.2682170854030513 0.1233950740576912	0.108543
C	0.0157153697118942 0.2282078648927089 0.0613619626963512	-0.179677
C	0.0947114442654717 0.2245578637525276 0.0642806148199337	0.100519
C	0.8924482284615241 0.2739439120480024 0.1223103409819176	0.062980
C	0.8483712964705665 0.2087941458264941 0.1194537333362390	-0.174670
C	0.7680658291448803 0.2129092346023375 0.1216776235808797	0.085039
C	0.7784037618780503 0.3523627668581762 0.1245596886915671	-0.126064
C	0.8564942314267425 0.3463712764160618 0.1259791150316041	-0.136643
C	0.7968193841528282 0.5976427392976689 0.3112110869871379	0.102770
C	0.8049244467909868 0.5190219231561033 0.3108320095303639	-0.183715
C	0.7695627312483458 0.4758075111520972 0.3733370455621382	0.113013
C	0.7289810399944535 0.5147776526168536 0.4352858346488309	-0.174922
C	0.7257862142616526 0.5937416598310979 0.4334007904410366	0.106823
C	0.7749405342916228 0.3920735912975795 0.3743573976903693	0.061499
C	0.7096493327278006 0.3481380576352230 0.3777922849572921	-0.175106
C	0.7137792577702717 0.2678354681391552 0.3776684165281773	0.086305
C	0.8533500309272071 0.2780887677088074 0.3751778036592707	-0.124036
C	0.8474162899471468 0.3560653107831278 0.3717810255024923	-0.135315
C	0.7061216274070201 0.9028267793171769 0.3120608970401973	0.100623
C	0.6980596417714190 0.9814480090437288 0.3127094448455869	-0.180183
C	0.7318401768984528 0.0239726070381050 0.3766610711951711	0.107990
C	0.7718564003213904 0.9844587013272766 0.4386905837569787	-0.178809
C	0.7754523290123931 0.9054996816506813 0.4357509595154320	0.099650
C	0.7261061458658656 0.1076658587179975 0.3777576416357192	0.063256
C	0.7912852758484535 0.1517101372913813 0.3806113657693408	-0.174383
C	0.7871534963779783 0.2319779521719064 0.3783750300511453	0.084913
C	0.6476011871381332 0.2216162389120969 0.3754899487113090	-0.126277
C	0.6536152085011554 0.1435668932290713 0.3740912179316364	-0.136687
C	0.5979921283686533 0.7045219153428907 0.3104887795134978	0.099414
C	0.5192840200192544 0.6966008500633063 0.3102076695902793	-0.181657
C	0.4761014024170514 0.7306286287478149 0.3736291347859336	0.108057
C	0.5150508706818849 0.7701776645255146 0.4363099756105395	-0.178308
C	0.5940690654932462 0.7736559522318569 0.4343215413620352	0.098869
C	0.3923167045181271 0.7253035299239904 0.3745966764523672	0.064222
C	0.3483043411865972 0.7905727047822567 0.3780964151640684	-0.174527
C	0.2679558369907983 0.7865433671327164 0.3776150452605757	0.085314
C	0.2783583074301985 0.6470661902004258 0.3747833775805302	-0.125443
C	0.3563966102486128 0.6529186443910938 0.3716897211368282	-0.136912
C	0.9025580337912543 0.7946850742344898 0.3113067094330014	0.108437
C	0.9811698809351135 0.8032863726353141 0.3122163979201250	-0.178819
C	0.0239366830135655 0.7686266201108909 0.3755010283910596	0.113201
C	0.9846031707908375 0.7273596775571959 0.4366722382712840	-0.180314
C	0.9056807942510179 0.7236800051333095 0.4334514203878749	0.104890
C	0.1076894294772641 0.7743797187713759 0.3768600287278175	0.062814
C	0.1518336409350752 0.7091817853974647 0.3797678141008451	-0.175123
C	0.2321472329995060 0.7132580287309507 0.3779460826804957	0.085635
C	0.2216620063993504 0.8527276491083250 0.3754104624932671	-0.125301
C	0.1435835206659392 0.8467919318975535 0.3736018606457807	-0.138039
C	0.7954342538161404 0.9022349091249281 0.8104466142170701	0.099432
C	0.8033292854495818 0.9809031041325990 0.8101667945777581	-0.181289
C	0.7693418143568954 0.0240672806707455 0.8736120892958915	0.107965
C	0.7297998910439513 0.9851044410124210 0.9362951854660783	-0.177773
C	0.7263481083292755 0.9061278591925453 0.9343056152359205	0.098741
C	0.7747026578658123 0.1077685668684082 0.8745809998508124	0.064617
C	0.7093944837756967 0.1517424779424930 0.8780887835636413	-0.174999
C	0.7134297049142572 0.2320411008035036 0.8776148859089288	0.085734
C	0.8529960667196965 0.2216276482907316 0.8747703040692301	-0.125652
C	0.8471390288561884 0.1436387469128951 0.8716713559743154	-0.136966
C	0.7053289216361284 0.5971783165982179 0.8113132742269078	0.107969
C	0.6967234078646400 0.5186138253220601 0.8122079478190189	-0.178407
C	0.7313746791277257 0.4758726699641980 0.8754975994944270	0.112757
C	0.7726386380510302 0.5151922254094553 0.9366728853918864	-0.179097
C	0.7763044115283876 0.5940689487788990 0.9334892729973151	0.103846
C	0.7255984981082466 0.3921976988677612 0.8768607200546236	0.062609
C	0.7908498719658572 0.3480905369247375 0.8797779197899533	-0.174820
C	0.7867762803302957 0.2678249778118904 0.8779428828055742	0.085515
C	0.6472065641249756 0.2783074924986979 0.8754157397535036	-0.125837
C	0.6531392034049087 0.3563420693076877 0.8736086295201201	-0.137926
C	0.5974214573220020 0.7939146258287896 0.8120377753262599	0.100365
C	0.5187469740013866 0.8020049149492908 0.8127054708269604	-0.180212
C	0.4761783883903382 0.7682177710180288 0.8766152983102207	0.109068
C	0.5157152292863962 0.7282083173505423 0.9386239372999536	-0.180107
C	0.5947099883660101 0.7245542127785475 0.9356878092803755	0.100678
C	0.3924514514290282 0.7739503439013091 0.8777227920868195	0.063110
C	0.3483687809718431 0.7088107682985797 0.8805921193462662	-0.174707
C	0.2680592555412269 0.7129196847109890 0.8783661683770936	0.085266
C	0.2784015911766707 0.8523715571336244 0.8754790622730527	-0.126309
C	0.3564903157262654 0.8463726764680543 0.8740552238846431	-0.136396
C	0.9021020609038665 0.7031542999664520 0.8111966891284372	0.101891
C	0.9807704447240011 0.6950350342155963 0.8108493429414458	-0.182735
C	0.0240313554848455 0.7304178074291654 0.8733108502362301	0.111849
C	0.9850570592514104 0.7709825659581183 0.9352548621809955	-0.174658
C	0.9060448284417364 0.7742255118052397 0.9333659349968668	0.107208
C	0.1078069324015717 0.7250715400251946 0.8743328490566891	0.061734
C	0.1517766886694450 0.7903278192181848 0.8777824441151165	-0.174651
C	0.2321371881846117 0.7862329347491367 0.8776658946784405	0.085935
C	0.2219059333771916 0.6467529118996426 0.8751715237930819	-0.124810
C	0.1438813499010915 0.6526691838432060 0.8717644851060257	-0.135414
C	0.2060824415703338 0.4028184385796372 0.6878918255666467	0.100581
C	0.1980238042558825 0.4814561276796787 0.6872517107437792	-0.179868
C	0.2318166383677040 0.5239789360717211 0.6233155560087410	0.107710
C	0.2717960295252955 0.4844379706215389 0.5612698716103685	-0.178796
C	0.2754050152391976 0.4054660599096921 0.5641948316423515	0.099544
C	0.2260932204819018 0.6076486551238883 0.6222314378833680	0.063335
C	0.2912661347656785 0.6516919209441526 0.6193785360022641	-0.174219
C	0.2871330679275569 0.7319567995184573 0.6216175667294116	0.084951
C	0.1475902911269324 0.7215852983629167 0.6245106046748009	-0.126396
C	0.1536039024912361 0.6435439126800666 0.6259116537396371	-0.136415
C	0.2968466627499051 0.0976516498934545 0.6887757457167035	0.102763
C	0.3049409652893536 0.0190223580924777 0.6891262520126114	-0.183623
C	0.2695642513016743 0.9757866813432766 0.6266619452584919	0.113360
C	0.2289991134850370 0.0147553666291820 0.5647221076460284	-0.175083
C	0.2258035270817860 0.0937227337492019 0.5666185965420120	0.107265
C	0.2749116405421789 0.8920759779377498 0.6256373092137620	0.061297
C	0.2096240526985833 0.8481387242224812 0.6222083243602438	-0.174554
C	0.2137491938064294 0.7678334199999916 0.6223290217776848	0.086101
C	0.3533128368206914 0.7780936182761992 0.6248013599130590	-0.124342
C	0.3473856039760196 0.8560699735472078 0.6281998268176672	-0.135469
C	0.4025420123636415 0.2946324641955542 0.6887336718404912	0.108174
C	0.4811584027937953 0.3032510167962304 0.6878238412507715	-0.178369
C	0.5239474991430212 0.2686105541253513 0.6245312780115105	0.113268
C	0.4846309023279712 0.2273218827818093 0.5633689577004083	-0.180011
C	0.4057045986914909 0.2236203241711569 0.5665795519728237	0.104660
C	0.6076818706090896 0.2743905715433122 0.6231594069048775	0.062940
C	0.6518187091902566 0.2091891334340548 0.6202467417784219	-0.175127
C	0.7321377810065614 0.2132450191587593 0.6220713171154016	0.085155
C	0.7216723271562705 0.3527271950222818 0.6246094880279232	-0.125616
C	0.6435861194165380 0.3467960699393914 0.6264152894569168	-0.137787
C	0.0979933737569208 0.2045671224318337 0.6894753479071668	0.099075
C	0.0192832296948916 0.1966472972513445 0.6897600531870394	-0.181519
C	0.9760868492079867 0.2306422802315647 0.6263557119389396	0.108127
C	0.0150506059872864 0.2701816374596859 0.5636868783019664	-0.178401
C	0.0940734679010513 0.2736601470549537 0.5656587388765153	0.099140
C	0.8923278591217260 0.2252902948668329 0.6253946497265407	0.064180
C	0.8483171886169455 0.2905528432596564 0.6218998518885784	-0.174624
C	0.7679644148785649 0.2865398078069730 0.6223962315878580	0.085601
C	0.7783572919885291 0.1470563541097790 0.6252427348082994	-0.124789
C	0.8563978376504857 0.1529084911527908 0.6283169907512950	-0.137194
H	0.1835072085842513 0.1322452649063492 0.2393619957145889	0.104193
H	0.1654768553383460 0.9905646561971877 0.2377494125518426	0.115374
H	0.2999322763063878 0.9843336666054846 0.0124919262327211	0.114204
H	0.3048597163034965 0.1273696497280380 0.0185306561481649	0.100979
H	0.3465900175896656 0.8754143730964984 0.1191832531610285	0.107849
H	0.0913592863132020 0.7510017676516275 0.1255330521520517	0.109224
H	0.1020604538497153 0.8916691852159595 0.1284700773211835	0.101276
H	0.3175746020643651 0.3669545071812793 0.2400569761392261	0.105816
H	0.3338753800929777 0.5085988527714885 0.2405493408925789	0.115103
H	0.2034903388432960 0.5160511849709633 0.0123613762656507	0.114307
H	0.1995717697105362 0.3738766750762294 0.0154415143258971	0.106824
H	0.1536586145633942 0.6243671320754016 0.1211172184347308	0.108383
H	0.4087960371412960 0.7489674243262748 0.1257477434519927	0.106707
H	0.3982027805907719 0.6083021191345034 0.1308934740170012	0.102745
H	0.3661689977250562 0.1795447460909980 0.2378466372587305	0.101062
H	0.5085174390419011 0.1633137823062260 0.2389794966707227	0.115149
H	0.5161251143734277 0.2978837482652091 0.0139122068545432	0.116139
H	0.3732813529595738 0.3009686034833576 0.0170167476731871	0.106065
H	0.6243912777576656 0.3460782522637151 0.1217496506368474	0.108967
H	0.7492647923259780 0.0909337763832277 0.1250267706944019	0.107776
H	0.6086448030226269 0.1016141536532914 0.1306306121414708	0.102888
H	0.1320630715400483 0.3155210450416715 0.2391887644889328	0.106085
H	0.9906347220041596 0.3324070240650040 0.2378989008041627	0.115891
H	0.9850978412103397 0.2016051706979304 0.0099506917094657	0.114689
H	0.1277799044445766 0.1969029781904018 0.0151708638649514	0.105265
H	0.8757949412690647 0.1530738338293783 0.1181260581284446	0.107565
H	0.7509860478589361 0.4081428341952353 0.1258018804729662	0.106645
H	0.8919226657664791 0.3973038263946161 0.1281861404140010	0.100199
H	0.8204447572053918 0.6334834807019543 0.2621446070517144	0.100660
H	0.8366287519347858 0.4912316834654779 0.2609860570394971	0.115214
H	0.7019920392030924 0.4837459733185178 0.4861089505366611	0.116015
H	0.6990171715380333 0.6264773412770975 0.4830649689984671	0.105581
H	0.6538552662246330 0.3755093822657814 0.3782813178683005	0.109110
H	0.9092043261849576 0.2507666403748829 0.3749718237391213	0.107428
H	0.8985117290191015 0.3912771697619606 0.3693794198982204	0.102841
H	0.6845140434308624 0.8682529405863766 0.2607846508223799	0.105617
H	0.6677282956604583 0.0095754077398281 0.2621002478988871	0.115870
H	0.7984729678766045 0.0150420858292237 0.4901104537824909	0.114469
H	0.8030741631262227 0.8724696790446765 0.4848678579982413	0.105082
H	0.8470402987056400 0.1242891829620794 0.3819373562999511	0.107349
H	0.5917827295716650 0.2489898146413041 0.3742160571501383	0.106584
H	0.6026225404899670 0.1081715114616678 0.3718720087445516	0.100301
H	0.6333342285827006 0.6823608604760866 0.2600002143128847	0.106120
H	0.4916046775363390 0.6660070705251958 0.2595144962500646	0.115615
H	0.4840592254914035 0.7964752511443680 0.4876531761607145	0.114475
H	0.6263264020855481 0.8004684437361527 0.4844965285082442	0.106752
H	0.3757092174747682 0.8462752348069923 0.3789015944681008	0.108458
H	0.2510110449788214 0.5913241803540975 0.3742894132358267	0.106704
H	0.3917942402394506 0.6018925404771077 0.3691335168904039	0.102535
H	0.8674909544812620 0.8164810647508387 0.2606697831962428	0.103982
H	0.0092605268094564 0.8345400019026209 0.2622935949123088	0.115900
H	0.0154290903920340 0.7000949237896092 0.4875109241545148	0.114748
H	0.8722959259532632 0.6951526581238466 0.4813764965620345	0.100880
H	0.1244844441349054 0.6534597059299835 0.3807983658736614	0.107864
H	0.2489634876149727 0.9085063658143288 0.3745029756416333	0.108931
H	0.1081934015285239 0.8978254103978573 0.3715375590296036	0.101142
H	0.8175909391124556 0.8669454064707929 0.7599115629675358	0.105752
H	0.8338715955121366 0.0085939259889031 0.7594211207720751	0.115046
H	0.7034528354084921 0.0160735719748806 0.9876252332198271	0.113977
H	0.6995568272834777 0.8738912522611625 0.9845078299794859	0.106781
H	0.6536479804521395 0.1243782156787398 0.8789042770056841	0.108510
H	0.9087908842901412 0.2489516596000867 0.8742693568907741	0.106781
H	0.8981975055265142 0.1082894768876324 0.8690984669273308	0.102807
H	0.6835091531369785 0.6321990911806437 0.7606512789954301	0.104153
H	0.6654872897925398 0.4905189250089496 0.7622648771349760	0.115288
H	0.7999277955965111 0.4843821436483919 0.9875136986606385	0.114300
H	0.8048179386843336 0.6274135536256825 0.9814581653613377	0.101033
H	0.8465978115854125 0.3754218354038761 0.8808204863234738	0.107885
H	0.5913677108077904 0.2510240362838477 0.8745029147823250	0.109135
H	0.6020692977970458 0.3916874440035277 0.8715510051359359	0.101352
H	0.6320547263734111 0.8155101761912388 0.7607758214594745	0.106031
H	0.4906341673909307 0.8323853416134781 0.7621158436597191	0.116034
H	0.4851064236845317 0.7016151054562145 0.9900320405949360	0.114802
H	0.6277894401741363 0.6969033876855304 0.9847706075183834	0.105135
H	0.3757974280750031 0.6530796819071372 0.8819182077205900	0.107408
H	0.2509771069638129 0.9081568167431460 0.8742295267730444	0.106617
H	0.3919210320933864 0.8973129490443551 0.8718523828095686	0.100110
H	0.8661904797645964 0.6795299804705075 0.7621603154425820	0.101123
H	0.0085361597359504 0.6632859112660325 0.7610371839532822	0.115352
H	0.0160988027973436 0.7979260610405747 0.9861007808227976	0.116180
H	0.8732610034840984 0.8010087526505580 0.9830067521744192	0.106168
H	0.1243894908910826 0.8460862985404747 0.8782757588531929	0.108926
H	0.2492780084724653 0.5909278269933446 0.8749987651093865	0.107828
H	0.1086510972603826 0.6016106826499280 0.8693731282130027	0.102832
H	0.1844428132538120 0.3682602675235352 0.7391667892358569	0.105678
H	0.1676713401052626 0.5095907850751686 0.7378639512941515	0.115586
H	0.2983976813773860 0.5150054269678538 0.5098265948105539	0.114505
H	0.3030089059291305 0.3724297538629315 0.5150473904108510	0.105260
H	0.3470366041435753 0.6243040356342455 0.6180553125306157	0.107333
H	0.0917546037029644 0.7489645525023346 0.6257762235740559	0.106556
H	0.1026293757780305 0.6081467937999463 0.6281262698048196	0.100182
H	0.3205065921735384 0.1334994154786046 0.7378368217467712	0.100709
H	0.3366723297748055 0.9912453401945041 0.7389521780033831	0.115056
H	0.2020231472889587 0.9837200503373140 0.5138823961892690	0.115879
H	0.1990254224705482 0.1264565785871906 0.5169620268572901	0.105268
H	0.1538197811175527 0.8754874066611439 0.6217325948054661	0.108955
H	0.4091842515142762 0.7507642573317752 0.6249787625625993	0.107478
H	0.3984718958457348 0.8912765740845846 0.6305865209456007	0.102987
H	0.3674585244858430 0.3164224243167574 0.7394059115798711	0.103958
H	0.5092277053747305 0.3344994283839908 0.7377795254047176	0.115656
H	0.5154584531527731 0.2000287889897714 0.5125212709149434	0.114490
H	0.3723276705878577 0.1950730573182466 0.5186515990677538	0.100776
H	0.6244732984697180 0.1534665917778125 0.6192216673190215	0.107916
H	0.7489822666450088 0.4085200064155873 0.6255244007996612	0.108911
H	0.6082086587230769 0.3978341767171814 0.6284713846979243	0.101024
H	0.1333342636820707 0.1824264884539380 0.7399794855427368	0.105975
H	0.9916062010923166 0.1660735194775010 0.7404877575933106	0.115611
H	0.9840749875253559 0.2964933471106476 0.5123528030868634	0.114489
H	0.1263405976114179 0.3004559238519966 0.5154581449987345	0.106601
H	0.8757126430141559 0.3462622287418441 0.6210924671291295	0.108419
H	0.7509964790121667 0.0913071007611210 0.6257569117353468	0.106460
H	0.8917736255487194 0.1018892137273395 0.6308797820143630	0.102647
F	0.2535541313393173 0.1502090692223047 0.3760291147110273	-0.614577
F	0.1530092686904351 0.3037218456223350 0.3802432800194052	-0.601187
F	0.3307318389913563 0.3202916427607579 0.3793223531414851	-0.607872
F	0.6800664883440236 0.6690893767672360 0.1206377361535096	-0.608076
F	0.6960779513757167 0.8469405517860529 0.1199577863670330	-0.601159
F	0.8499109335435858 0.7471991454498712 0.1237781802611244	-0.614664
F	0.6529909131454499 0.8038496755278954 0.6199471247764994	-0.601357
F	0.7533943406342661 0.6502666483153187 0.6237067882079808	-0.614463
F	0.8307752319243212 0.8202802911212785 0.6206212216081091	-0.607874
F	0.1798664544200761 0.1692794556048313 0.8793549300501815	-0.607967
F	0.3498767072561718 0.2470565939492501 0.8761425080184648	-0.614625
F	0.1961529366983043 0.3470271691754070 0.8801781654945147	-0.601472
F	0.2478831538789037 0.2546249015820040 0.2606465517266511	-0.587426
F	0.2496496045390753 0.2504182370794444 0.4960524504119146	-0.587887
F	0.7454614654943014 0.7520035182119095 0.2393845267228020	-0.587632
F	0.7495465488794806 0.7504651810054782 0.0039576281275299	-0.587595
F	0.7480067843298412 0.7545590831346525 0.7393380666607214	-0.587405
F	0.7495762401771834 0.7505331558004044 0.5039300182497111	-0.587764
F	0.2454305426943481 0.2521047299068484 0.7606314943170082	-0.587974
F	0.2496345320590654 0.2504483004556806 -0.0039833789687944	-0.587559
Cu	0.2500804578312482 0.2499944229753160 0.1285705264467073	0.740765
Cu	0.7499798719406104 0.7499124576473178 0.3714223885136527	0.740420
Cu	0.7500925692878408 0.7499978269510280 0.8714005730625812	0.740779
Cu	0.2499849448446682 0.2499040192728599 0.6285678559694532	0.740811
Ga	0.2471952457671027 0.2558172672464583 0.3783231228920934	1.474378
Ga	0.7441716227679362 0.7529171549015301 0.1215723278767521	1.474406
Ga	0.7471722487534996 0.7558704290120920 0.6216480748536706	1.474382
Ga	0.2441645231560646 0.2529228363686034 0.8784475014778609	1.474851
	  	
