#======================================================================

# CRYSTAL DATA

#----------------------------------------------------------------------

data_VESTA_phase_1


_pd_phase_name                         GaFFIVE_7_Co
_cell_length_a                         18.72481
_cell_length_b                         18.72477
_cell_length_c                         8.16143
_cell_angle_alpha                      89.93501
_cell_angle_beta                       90.06409
_cell_angle_gamma                      90.01643
_symmetry_space_group_name_H-M         P 1
_symmetry_Int_Tables_number            1

loop_
_symmetry_equiv_pos_as_xyz
   x, y, z

loop_
   _atom_site_label
   _atom_site_fract_x
   _atom_site_fract_y
   _atom_site_fract_z
   _atom_site_charge
C	0.6683301510970365 0.8679196036800159 0.6976282527916182	0.087788
C	0.6161617243278072 0.9205581795856538 0.7010956197157089	-0.175108
C	0.5817108809779902 0.8860459807007419 0.4296435679547253	-0.170797
C	0.6344501837402455 0.8342781856653518 0.4344781165261263	0.090357
C	0.8318660102396959 0.6320886697505977 0.6969444544410968	0.093357
C	0.8839358191601641 0.5793378018320586 0.7014134587407633	-0.175917
C	0.9182220611547769 0.6139486439739881 0.4299884414828119	-0.171063
C	0.8656224427629334 0.6658636763297721 0.4338480097745062	0.085258
C	0.6319014444996498 0.6681553923994941 0.6970752272252081	0.089198
C	0.5792315264208009 0.6159951954012510 0.7010855898084154	-0.174893
C	0.6138563603809896 0.5815945328240131 0.4299997848400077	-0.170449
C	0.6657310461467290 0.6342525663378866 0.4344362478795505	0.086562
C	0.8679995556705524 0.8312840730871764 0.6972256420362491	0.092627
C	0.9205337477225669 0.8836222118881627 0.7013537106290887	-0.174759
C	0.8857883169661371 0.9181696242659950 0.4298409486178489	-0.171306
C	0.8337477872470752 0.8656549114700065 0.4344034117043760	0.088219
C	0.3312860033954662 0.3680007957037538 0.3027792498684235	0.092568
C	0.3836235677440851 0.4205346274011804 0.2986498198494090	-0.174835
C	0.4181698353105082 0.3857873883386484 0.5701621898319628	-0.171224
C	0.3656551083059469 0.3337469882299584 0.5656006792405153	0.088224
C	0.1681565639349068 0.1319018091819278 0.3029253686114712	0.089098
C	0.1159963639984356 0.0792327394079001 0.2989156107470082	-0.174877
C	0.0815938874185968 0.1138562031344170 0.5700021047178643	-0.170385
C	0.1342516827963251 0.1657305429590221 0.5655643260536420	0.086477
C	0.3679207266337192 0.1683297912562792 0.3023702510930868	0.087709
C	0.4205593192608534 0.1161615372582113 0.2989033903307708	-0.175102
C	0.3860463955174526 0.0817103466158548 0.5703579309030468	-0.170830
C	0.3342791170584344 0.1344499705446314 0.5655232765622807	0.090365
C	0.1320890031065730 0.3318658626338650 0.3030575026712664	0.093335
C	0.0793382537883960 0.3839355478428587 0.2985883553450416	-0.175934
C	0.1139489212363332 0.4182219900581123 0.5700107676567658	-0.171070
C	0.1658638465368864 0.3656224834767113 0.5661516360166082	0.085247
C	0.4314899026882610 0.0714641289659069 0.4351764644031019	0.137765
C	0.4870328052691063 0.0170155035375714 0.4328210724856545	-0.122440
C	0.0684284224629649 0.4285916386845026 0.4348086113691110	0.137833
C	0.0127705523404170 0.4830006189106070 0.4327057847449633	-0.122492
C	0.4283937606053511 0.4313693640476088 0.4349303259163093	0.139024
C	0.4828538403312380 0.4869755470519012 0.4327716973716951	-0.124713
C	0.0713020201208977 0.0683582247719297 0.4350027738196450	0.136756
C	0.0168654930066750 0.0127227469751071 0.4327622754483709	-0.121264
C	0.5683571854931173 0.5713022840947618 0.5649989041783520	0.136726
C	0.5127222634114007 0.5168647883606492 0.5672396362131817	-0.121268
C	0.9313690607210586 0.9283926084892995 0.5650723741962443	0.139118
C	0.9869753057273923 0.9828530450710891 0.5672298677698108	-0.124713
C	0.5714645659393361 0.9314889419376359 0.5648242444291188	0.137783
C	0.5170161559077687 0.9870320463376345 0.5671798156716620	-0.122524
C	0.9285918564383124 0.5684281797671245 0.5651919345316739	0.137797
C	0.9830008884376038 0.5127701908141340 0.5672945064734012	-0.122554
H	0.7028984711049397 0.8582620414034463 0.8029887731039811	0.106793
H	0.6113496317876339 0.9532815951860206 0.8109943905361421	0.119183
H	0.5479930004941047 0.8897062162800277 0.3211226048640537	0.117123
H	0.6442689081319859 0.7987713806954975 0.3315467054109949	0.101594
H	0.7965661388629720 0.6422565340841360 0.8001614627583106	0.101418
H	0.8889541248385068 0.5464819277236587 0.8112607698591265	0.118126
H	0.9517554853388449 0.6105622629064417 0.3213261778611699	0.118938
H	0.8564004947263985 0.7008537487690326 0.3290320741267689	0.106672
H	0.6422104541152531 0.7023409571213890 0.8020819573794006	0.105701
H	0.5466715228365971 0.6110727716842175 0.8112122541892695	0.119345
H	0.6103334344119707 0.5482305070430797 0.3210843534801112	0.118744
H	0.7002139241567175 0.6441893651848896 0.3297791347521479	0.105798
H	0.8586919887844818 0.7953644721720550 0.8003766911058823	0.102740
H	0.9535091061976256 0.8886191719130594 0.8110202339299719	0.117881
H	0.8894112409424916 0.9519669988503716 0.3214506903368254	0.117873
H	0.7975245819546718 0.8567066301489157 0.3317311022752709	0.103409
H	0.2953661334297387 0.3586931978363462 0.1996292266123970	0.102820
H	0.3886214708600643 0.4535106735241456 0.1889826461161655	0.117900
H	0.4519669696248031 0.3894091040701265 0.6785519746153185	0.117844
H	0.3567070722933471 0.2975228937048512 0.6682736023750891	0.103408
H	0.2023430892057290 0.1422109988444345 0.1979174122693310	0.105749
H	0.1110745966216065 0.0466730665162317 0.1887898587281427	0.119310
H	0.0482289574164426 0.1103319267926719 0.6789172657103556	0.118705
H	0.1441887651259545 0.2002116614790386 0.6702216016998215	0.105826
H	0.3582632336096765 0.2028988101661358 0.1970096746356380	0.106799
H	0.4532831283613850 0.1113494701875759 0.1890045353804237	0.119216
H	0.3897067177386337 0.0479919383707780 0.6788798999304907	0.117139
H	0.2987714724456048 0.1442682342247169 0.6684551386770861	0.101561
H	0.1422572449444910 0.2965664646488524 0.1998405056752634	0.101441
H	0.0464827727400908 0.3889535754763869 0.1887416454601259	0.118158
H	0.1105618656696330 0.4517552737227481 0.6786718247848827	0.118951
H	0.2008525736964543 0.3564001457100320 0.6709680314606705	0.106705
H	0.5066062431028797 0.0018105558913854 0.3115152655223936	0.102853
H	0.9931369201701690 0.4985773352006400 0.3114944305970238	0.102980
H	0.4983235164298097 0.5066231339595560 0.3115915835712915	0.103578
H	0.0015425736291142 0.9931513367200274 0.3114386345104527	0.102435
H	0.4931496497823599 0.5015407784845259 0.6885625292052278	0.102492
H	0.0066219027818488 0.9983217664420810 0.6884101395933900	0.103546
H	0.5018112209758551 0.0066055553563830 0.6884854296684569	0.102847
H	0.9985779633912684 0.4931367875542407 0.6885061096604738	0.103023
Co	0.2499357621127563 0.2499375338136173 0.4342785882482752	0.581142
Co	0.7499377187372885 0.7499352319065795 0.5657164881995492	0.581209
Ga	0.2506282285323815 0.2506538747795003 0.9352187948007601	1.448149
Ga	0.7506496830804308 0.7506313354960454 0.0647664980993569	1.448052
F	0.2504315485451949 0.2492646096789057 0.1704032951898914	-0.552986
F	0.2489388089711046 0.2502169016723047 0.6996352670034792	-0.551161
F	0.7492619532280489 0.7504310778387276 0.8295829757495339	-0.552978
F	0.7502175962734343 0.7489458688888183 0.3003593420519788	-0.551176
F	0.1803738787981853 0.1815082985197923 0.9356893270291581	-0.591750
F	0.2273067348295303 0.3462331308061916 0.9381654990277953	-0.591626
F	0.3458610724101162 0.2258920329383543 0.9312849589992801	-0.591494
F	0.7258668133262922 0.8458582147217479 0.0686870413797495	-0.591430
F	0.8462429871275348 0.7273438226110330 0.0618557763987591	-0.591581
F	0.6815283887042655 0.6803532485674678 0.0642821301302634	-0.591751
N	0.3251822490368829 0.1774223877090401 0.4339535402777863	-0.182975
N	0.1748955309262253 0.3226823503403842 0.4345948520958718	-0.182868
N	0.3224591866281054 0.3249833318342976 0.4342039798226869	-0.182254
N	0.1772435002435831 0.1747291256745186 0.4342156621087982	-0.184770
N	0.6747291126948530 0.6772433511166960 0.5657836463220551	-0.184872
N	0.8249834853854549 0.8224583909236054 0.5657995806224982	-0.182299
N	0.6774228177385719 0.8251816686541480 0.5660455374767649	-0.183077
N	0.8226823794786557 0.6748949144051396 0.5654052498468084	-0.182803
	  	
