#======================================================================

# CRYSTAL DATA

#----------------------------------------------------------------------

data_VESTA_phase_1


_pd_phase_name                         GaFFIVE_7_Zn
_cell_length_a                         19.28712
_cell_length_b                         19.28712
_cell_length_c                         8.03400
_cell_angle_alpha                      89.96815
_cell_angle_beta                       90.03076
_cell_angle_gamma                      90.01878
_symmetry_space_group_name_H-M         P 1
_symmetry_Int_Tables_number            1

loop_
_symmetry_equiv_pos_as_xyz
   x, y, z

loop_
   _atom_site_label
   _atom_site_fract_x
   _atom_site_fract_y
   _atom_site_fract_z
   _atom_site_charge
C	0.6643184699007791 0.8722769495208174 0.6976872369406522	0.097518
C	0.6137583111902565 0.9235520729919723 0.7015160176172213	-0.179352
C	0.5790316519492356 0.8886111696560448 0.4273291457202026	-0.176493
C	0.6305297671137233 0.8384811410887864 0.4328174039940902	0.101801
C	0.8359268599803606 0.6278115670080754 0.6973969002514202	0.102716
C	0.8863077175767070 0.5763943323925391 0.7018133415985376	-0.179722
C	0.9209464668314483 0.6113991445854779 0.4276366119878095	-0.175334
C	0.8695956770969300 0.6617277555944608 0.4325898792712847	0.094670
C	0.6275804767445807 0.6641671497689425 0.6974467774927552	0.100945
C	0.5762800415587124 0.6136512873114918 0.7015808840613194	-0.179237
C	0.6113366941638146 0.5789124508027697 0.4276594583484618	-0.174900
C	0.6616276596361673 0.6302741848955761 0.4329660822617263	0.098777
C	0.8722265472750098 0.8354532979081737 0.6974364238732873	0.101297
C	0.9234908917382624 0.8860738075438128 0.7016960211839569	-0.181261
C	0.8884027993586331 0.9208643061507528 0.4275209985411087	-0.175790
C	0.8380481488258187 0.8695091689583030 0.4329075299961665	0.098077
C	0.3354536445183974 0.3722279338193679 0.3025664225610671	0.101309
C	0.3860748699694644 0.4234918575226399 0.2983055907814422	-0.181241
C	0.4208641295802280 0.3884020233790686 0.5724799275380344	-0.175861
C	0.3695089202817106 0.3380471789043066 0.5670955764791473	0.098145
C	0.1641692485438652 0.1275813047958491 0.3025529447135753	0.100944
C	0.1136529858122070 0.0762811798230180 0.2984203487054252	-0.179163
C	0.0789125665451012 0.1113363761776895 0.5723409254870083	-0.174909
C	0.1302745711028508 0.1616274929871967 0.5670346199796331	0.098783
C	0.3722766012034892 0.1643182101752003 0.3023096794042660	0.097509
C	0.4235519784584414 0.1137583483386348 0.2984808066668492	-0.179308
C	0.3886108877340009 0.0790315941261339 0.5726709613891769	-0.176456
C	0.3384806870328738 0.1305295535876822 0.5671826594759247	0.101764
C	0.1278111065600626 0.3359269637532559 0.3026029217909938	0.102714
C	0.0763945006729544 0.3863072562962410 0.2981874565910211	-0.179761
C	0.1113991196126974 0.4209459489231632 0.5723614987176011	-0.175358
C	0.1617279908280894 0.3695951283702675 0.5674084388001537	0.094581
C	0.4333325653831800 0.0698162220686512 0.4361889878119790	0.141777
C	0.4872374117438043 0.0167572757020489 0.4324566857578564	-0.122882
C	0.0666324446963059 0.4302178881024739 0.4359474023929986	0.141385
C	0.0126418458942260 0.4832260134584282 0.4323747394725366	-0.122139
C	0.4300598499304633 0.4332185971320687 0.4360379527798112	0.143006
C	0.4831213815993021 0.4871796211778180 0.4324286821843106	-0.125877
C	0.0696916181771532 0.0665554069245057 0.4360307896493112	0.139408
C	0.0166594773481969 0.0125931378545227 0.4323984327980518	-0.119279
C	0.5665548473738200 0.5696906505188423 0.5639700413808736	0.139371
C	0.5125922791631442 0.5166589197265160 0.5676017384495700	-0.119229
C	0.9332183832847661 0.9300595718378972 0.5639627286721879	0.143029
C	0.9871793176247720 0.9831211805814876 0.5675716628240798	-0.125932
C	0.5698159984452333 0.9333328250957965 0.5638098295875815	0.141789
C	0.5167570406117098 0.9872375658687529 0.5675424144631175	-0.122854
C	0.9302184391341142 0.5666325009833042 0.5640515225710931	0.141402
C	0.9832263785453816 0.5126416961167499 0.5676254132329781	-0.122160
H	0.6983332695635073 0.8632895868058991 0.8042703346955953	0.102117
H	0.6090871928540110 0.9559674165136357 0.8120595660547152	0.116079
H	0.5455243600736017 0.8915521592846519 0.3184187853488808	0.115226
H	0.6393618973518559 0.8033896242818485 0.3288560584395133	0.094799
H	0.8014447956888435 0.6369892082068792 0.8023789868815555	0.095350
H	0.8910107706299720 0.5438714026731618 0.8122650729245025	0.114219
H	0.9543141267808959 0.6085372988625487 0.3185646148550803	0.116887
H	0.8610666502162778 0.6965169691409885 0.3272101161429141	0.102505
H	0.6370172306361753 0.6978028241860341 0.8038458308640817	0.100486
H	0.5439495376986784 0.6089213448275430 0.8122696551972716	0.115260
H	0.6083945978376474 0.5456483084151590 0.3184035237685483	0.116188
H	0.6959515468281516 0.6393227135071251 0.3276196269721670	0.099669
H	0.8636389955400341 0.8004517828571397 0.8022475335352296	0.097601
H	0.9560851564738823 0.8907878879856233 0.8120233633035253	0.115923
H	0.8913442253675401 0.9544253092384857 0.3187131554791410	0.115743
H	0.8023544140638987 0.8613064758405365 0.3292851267750738	0.097490
H	0.3004532730991229 0.3636401348491185 0.1977577006765775	0.097584
H	0.3907891107494896 0.4560862243907183 0.1879765526270506	0.115897
H	0.4544244919416324 0.3913425294825545 0.6812866146298634	0.115750
H	0.3613061818438330 0.3023522368159083 0.6707176588001622	0.097485
H	0.1978056087489097 0.1370179671358492 0.1961530754529808	0.100438
H	0.1089232897926235 0.0439514525092781 0.1877313712322156	0.115234
H	0.0456474873712099 0.1083938513359945 0.6815972084862022	0.116144
H	0.1393225967535472 0.1959510837975529 0.6723794250570820	0.099665
H	0.3632895855954922 0.1983340107998995 0.1957264441967846	0.102107
H	0.4559674807823637 0.1090877652387162 0.1879367923757225	0.116060
H	0.3915519130585030 0.0455243539948162 0.6815826842461579	0.115219
H	0.3033890587908880 0.1393620829978077 0.6711451577875202	0.094793
H	0.1369890073004211 0.3014450186269597 0.1976197375046907	0.095337
H	0.0438711499789243 0.3910108036707986 0.1877371113950342	0.114237
H	0.1085371836288266 0.4543131523169227 0.6814320736031120	0.116913
H	0.1965166614505949 0.3610658939007660 0.6727868350253244	0.102529
H	0.5056476040319233 0.0024082850903307 0.3083576300323668	0.102499
H	0.9941903011875340 0.4978070325504598 0.3083842836127951	0.101874
H	0.4976414671980711 0.5056412391176039 0.3084152663697427	0.103020
H	0.0022212414199799 0.9941636178782018 0.3083227003501546	0.101329
H	0.4941615885394228 0.5022194875720890 0.6916769740594561	0.101307
H	0.0056400303706465 0.9976403530615359 0.6915847630722154	0.103062
H	0.5024081575103868 0.0056477252939390 0.6916414356017677	0.102503
H	0.9978071117042113 0.4941901646708523 0.6916160834545845	0.101860
Zn	0.2497959319373221 0.2497542927753383 0.4343013913018504	0.731489
Zn	0.7497531939830735 0.7497946083376503 0.5656969948203049	0.731474
Ga	0.2505258637714996 0.2506052679365082 0.9347676926573343	1.461765
Ga	0.7506041479557198 0.7505240206578162 0.0652335310953290	1.461821
F	0.2505574633190736 0.2493937841749396 0.1765352363074942	-0.553151
F	0.2492571691155275 0.2502858924025466 0.6927364870755265	-0.552145
F	0.7493805008331131 0.7505464489083717 0.8234738784778113	-0.553149
F	0.7502894410146080 0.7492551204067992 0.3072633194260875	-0.552136
F	0.1824836975016597 0.1839800783470119 0.9352921299072581	-0.588641
F	0.2277816125409958 0.3429975683465667 0.9373450148732289	-0.589412
F	0.3424022376390925 0.2259491119668554 0.9311004030558635	-0.589231
F	0.7259393164618795 0.8423991709721748 0.0688851137898892	-0.589280
F	0.8430017078579919 0.7277990762138097 0.0626307849425657	-0.589424
F	0.6839853311862661 0.6824715739586231 0.0647308108421907	-0.588645
N	0.3303787426931208 0.1726168281836445 0.4347500007514143	-0.223770
N	0.1697930833217708 0.3275763935600361 0.4347810741799724	-0.222659
N	0.3273030994311937 0.3301461195465277 0.4347338955431200	-0.220647
N	0.1723968616371314 0.1696195191606046 0.4346471585698993	-0.226855
N	0.6696194020423378 0.6723957210543282 0.5653519921420739	-0.226876
N	0.8301453973414855 0.8273026503558075 0.5652703818017950	-0.220606
N	0.6726172198069437 0.8303790464871206 0.5652476863960207	-0.223770
N	0.8275766928022382 0.6697934162134350 0.5652171809059544	-0.222757
	  	
