#======================================================================

# CRYSTAL DATA

#----------------------------------------------------------------------

data_VESTA_phase_1


_pd_phase_name                         GaFFIVE_14_Co_i
_cell_length_a                         12.94416
_cell_length_b                         12.93382
_cell_length_c                         8.28915
_cell_angle_alpha                      87.73553
_cell_angle_beta                       87.55369
_cell_angle_gamma                      88.08479
_symmetry_space_group_name_H-M         P 1
_symmetry_Int_Tables_number            1

loop_
_symmetry_equiv_pos_as_xyz
   x, y, z

loop_
   _atom_site_label
   _atom_site_fract_x
   _atom_site_fract_y
   _atom_site_fract_z
   _atom_site_charge
C	0.5646578726572670 0.2658387829232249 0.3628238392657563	-0.174664
C	0.4574920621097351 0.2691064626594919 0.3675713117064306	0.094634
C	0.9423123749935763 0.2887827807098863 0.4122394784796943	-0.168734
C	0.0492642620252710 0.2828013704355763 0.3970776931209720	0.099712
C	0.2635070933783928 0.5646726608680074 0.3642134208705194	-0.174288
C	0.2663580514944901 0.4574018189089216 0.3693970203359446	0.093165
C	0.2965833665408513 0.9421874695511813 0.4077921180884457	-0.165367
C	0.2900252298684752 0.0492400419574708 0.3935140083543420	0.096276
C	0.9366905542911994 0.2335191475796120 0.1382537547682335	-0.178698
C	0.0439152407617650 0.2306585077204043 0.1313522708894323	0.093522
C	0.5606189874518273 0.2113566514462484 0.0882566054602065	-0.163888
C	0.4535457025236578 0.2187627285385071 0.1006826308879366	0.090518
C	0.2127174580673780 0.5599926589429565 0.0880027980992877	-0.165683
C	0.2197741114385877 0.4529238069659909 0.1008722556172180	0.091483
C	0.2307070752331125 0.9363778327973892 0.1404242422671866	-0.178311
C	0.2276731610472491 0.0436510415448335 0.1339677834751511	0.095522
C	0.4362544123235604 0.7355702703186455 0.6382819896283388	-0.177857
C	0.5434073697721382 0.7325556115463773 0.6314888018235788	0.093609
C	0.0599857644057347 0.7269234704311125 0.5805447728846733	-0.163281
C	0.9529342680331518 0.7318336249249832 0.5949630832650584	0.089417
C	0.7364314017977923 0.4362568642847987 0.6380457242214298	-0.179249
C	0.7341836489195182 0.5434590632338809 0.6312420915899728	0.096161
C	0.7158669542436396 0.0599205230462602 0.5844781569598604	-0.163065
C	0.7216171882965953 0.9527707195988301 0.5980815028811217	0.090155
C	0.0644535543970462 0.7589692702612666 0.8648484416230203	-0.175391
C	0.9573149411659043 0.7608564248038541 0.8706625160907310	0.091558
C	0.4419096473956687 0.7824617968159698 0.9166065015963033	-0.163490
C	0.5488906843820932 0.7773246384227083 0.9008663650034455	0.097649
C	0.7830930742063088 0.4421039991983185 0.9162857031220604	-0.165922
C	0.7786426000222211 0.5491258722135844 0.9006112912200600	0.098148
C	0.7627282819757473 0.0645932638913387 0.8626576428860214	-0.174840
C	0.7652770407878805 0.9573982725096629 0.8679463068897982	0.095769
C	0.6180630430357074 0.2366937044908903 0.2195576785898538	0.192529
C	0.8840536267541834 0.2625865770530064 0.2821707622337312	0.192339
C	0.2366011333968629 0.6177367970059433 0.2199671041376514	0.192789
C	0.2652034715571872 0.8838203856651800 0.2808340969573878	0.190431
C	0.3836974510123391 0.7606977330310881 0.7842757395477410	0.191321
C	0.1175870335644232 0.7418685758293061 0.7162792241673523	0.193040
C	0.7608503448135941 0.3837627506239469 0.7840462926337395	0.193231
C	0.7379518490928423 0.1176725889419336 0.7173150879147631	0.192581
H	0.6063331464278179 0.2814371342356109 0.4701360367085309	0.110933
H	0.4127582892459387 0.2863829307505749 0.4778019377142382	0.102062
H	0.9039959310524143 0.3126300655991794 0.5245500018746068	0.126503
H	0.0978034849257744 0.3007326287382275 0.4954395542498766	0.103865
H	0.2777275201669140 0.6067741791865973 0.4718266483931418	0.112844
H	0.2816643583071140 0.4130822922994739 0.4805613719313053	0.102754
H	0.3250889343037632 0.9038340325048022 0.5169533956094653	0.125916
H	0.3119384429902753 0.0978048302535446 0.4898588308755583	0.105492
H	0.8944557409590079 0.2168535437257899 0.0319051410319689	0.112782
H	0.0874520963321153 0.2107417602547970 0.0207665928219843	0.103037
H	0.5991778427410374 0.1867382013747393 0.9765093331622635	0.126416
H	0.4070928642043962 0.2022116498542818 -0.0012771434932797	0.111129
H	0.1900512660810652 0.5981979016215205 0.9752426636702792	0.126635
H	0.2049064932748537 0.4062231249979570 -0.0016302354899881	0.110148
H	0.2099850614311139 0.8939868962307772 0.0362629714030152	0.113345
H	0.2039545318225595 0.0872972468287078 0.0258349150980396	0.102470
H	0.3941367780852807 0.7211727426829240 0.5307051439024992	0.108434
H	0.5871528692496707 0.7145723003341510 0.5203195344559463	0.103873
H	0.0982028522560742 0.7124500177354990 0.4639733718138053	0.126170
H	0.9065496003359858 0.7220563803397948 0.4904553916397047	0.108849
H	0.7223491126382721 0.3939061042198250 0.5304611673092999	0.108987
H	0.7169143292339503 0.5872163402462088 0.5201203079511872	0.103539
H	0.6951562956497811 0.0981369135370583 0.4707118956602540	0.126785
H	0.7071606892483860 0.9062969718858302 0.4951391988543036	0.108920
H	0.1061824211025215 0.7673045981573251 0.9747981827736216	0.108254
H	0.9131541346668696 0.7696315109897608 0.9841378724210536	0.105034
H	0.4036823288507582 0.8025927704341607 0.0309324243584752	0.125698
H	0.5974643045902320 0.7923999054576703 0.0004745259715227	0.102928
H	0.8027898160892510 0.4038813082440320 0.0305231715118081	0.126281
H	0.7939537070931888 0.5977463288739883 0.0002175653228592	0.102023
H	0.7763028375611807 0.1064850111708255 0.9708057505763449	0.108851
H	0.7800796788563918 0.9130008134770797 0.9791276823699093	0.103966
N	0.7757245350246483 0.2723005038104342 0.3033584858986400	-0.116450
N	0.2754373768667239 0.7753521166838148 0.3010377634776428	-0.118564
N	0.7263934332001840 0.2265368971758197 0.1994161206146387	-0.111525
N	0.2267541181626435 0.7260753480990630 0.2003200953089142	-0.111928
N	0.2257616303421967 0.7344962010027899 0.6934166960972566	-0.107744
N	0.7298662564938166 0.2260006368325415 0.6956258258053539	-0.109955
N	0.2754071466281343 0.7689213706231840 0.8075523305262359	-0.114594
N	0.7686148218324214 0.2754588467281210 0.8065018700083555	-0.116738
N	0.4023059817738817 0.2473121164010755 0.2384257372861897	-0.176869
N	0.0998170177658118 0.2538198111814162 0.2591450578941369	-0.176522
N	0.2463857221266043 0.4019722882949159 0.2394714659333871	-0.178819
N	0.2556568770104600 0.0996468876436301 0.2590431748764793	-0.175285
N	0.5993936458865646 0.7526886002733704 0.7607739076192576	-0.174380
N	0.9018432191000904 0.7485061983006116 0.7378444200328634	-0.176678
N	0.7543047015012087 0.5995484129232599 0.7606099525036779	-0.175312
N	0.7461773148364973 0.9018259894661166 0.7376389686674863	-0.176613
F	0.3805639226595436 0.1938382826121072 0.7427447102953416	-0.575212
F	0.2069151235850268 0.3830907787758807 0.7425681979291665	-0.573639
F	0.1431422629715921 0.1512801458439405 0.7748180794062394	-0.578288
F	0.6994698941122794 0.8825271669650683 0.2439334571947902	-0.570701
F	0.8818136842192182 0.7016954888565626 0.2418227803647687	-0.568183
F	0.6475942957337650 0.6474638035198574 0.2678460863911374	-0.577773
F	0.2502135981182083 0.2488273387699156 0.5167256748387121	-0.558664
F	0.2508182317895822 0.2498487436420755 0.9856986239256703	-0.553934
F	0.7478388093118731 0.7484493284896528 0.4849415534991164	-0.553559
F	0.7511879811095851 0.7520699478653213 0.0160625262307501	-0.553543
Ga	0.2462988606325491 0.2450987611696276 0.7519894530584254	1.441582
Ga	0.7454789478017533 0.7465702511324592 0.2511812722630711	1.437743
Co	0.2509959428884413 0.2506493744528153 0.2487859077028881	0.607824
Co	0.7505058985057648 0.7505632155292183 0.7489864193413618	0.606568
	  	
