#======================================================================

# CRYSTAL DATA

#----------------------------------------------------------------------

data_VESTA_phase_1


_pd_phase_name                         GaFFIVE_2_Fe_i
_cell_length_a                         14.04359
_cell_length_b                         14.04360
_cell_length_c                         8.09036
_cell_angle_alpha                      89.99984
_cell_angle_beta                       90.00014
_cell_angle_gamma                      89.81194
_symmetry_space_group_name_H-M         P 1
_symmetry_Int_Tables_number            1

loop_
_symmetry_equiv_pos_as_xyz
   x, y, z

loop_
   _atom_site_label
   _atom_site_fract_x
   _atom_site_fract_y
   _atom_site_fract_z
   _atom_site_charge
C	0.0002415003506509 0.3047004401744077 0.3509355610581574	-0.161555
C	0.0001469121856352 0.2059906891039229 0.3566137529092949	0.094708
C	0.5002367923527298 0.8046824156332110 0.8509640316096788	-0.161751
C	0.5001462708568212 0.7059986217320527 0.8566209244265807	0.094993
C	-0.0000570628138360 0.6960632415289124 0.3508892985371695	-0.165481
C	-0.0003536828391171 0.7947926853703029 0.3567920583350283	0.105735
C	0.4999321171555138 0.1960689222258927 0.8509122609303537	-0.165709
C	0.4996382530239895 0.2947734355434650 0.8568045473136445	0.105976
C	0.6960633879755681 -0.0000575852320891 0.3508890776646797	-0.165468
C	0.7947935538477202 -0.0003536361351562 0.3567922582717439	0.105710
C	0.1960684554881720 0.4999320308407108 0.8509127692253470	-0.165712
C	0.2947740700545967 0.4996379831771157 0.8568056828867330	0.105921
C	0.3047006178914072 0.0002409252774379 0.3509357480617232	-0.161505
C	0.2059908121369455 0.0001471493136162 0.3566138846463355	0.094605
C	0.8046814727487693 0.5002368252555446 0.8509658621254074	-0.161785
C	0.7059970759030780 0.5001464849424075 0.8566226329391659	0.095012
C	0.0002414569861830 0.3047002005857812 0.6490635561677459	-0.161611
C	0.0001469300858205 0.2059905865886700 0.6433857956776429	0.094722
C	0.5002363373871223 0.8046823735595546 0.1490344762882858	-0.161814
C	0.5001462275332278 0.7059982919709719 0.1433780425560705	0.094983
C	-0.0000570305402756 0.6960626503476518 0.6491103222092420	-0.165438
C	-0.0003536324421219 0.7947923725361095 0.6432069164250842	0.105688
C	0.4999309264316055 0.1960685233994457 0.1490882239314579	-0.165721
C	0.4996376298035547 0.2947738661303265 0.1431947770662478	0.106033
C	0.3047014245105233 0.0002409159438327 0.6490636420315024	-0.161618
C	0.2059913698244522 0.0001471625561906 0.6433864952534911	0.094743
C	0.8046815626345312 0.5002370599994634 0.1490357331312268	-0.161749
C	0.7059977875393755 0.5001464134374015 0.1433787816553483	0.094985
C	0.6960637954878649 -0.0000576181689362 0.6491100676245976	-0.165476
C	0.7947937599223714 -0.0003536129489479 0.6432068627811365	0.105726
C	0.1960685470828648 0.4999328442402377 0.1490879344594168	-0.165731
C	0.2947735873634695 0.4996382462473010 0.1431962654946720	0.106030
C	0.0004123898977314 0.4569277976864879 0.4999995256852742	-0.092130
C	0.0004055219921451 0.3563903889479195 0.4999993121209219	0.155988
C	0.5003906754194517 0.9569154807711394 0.0000002632289120	-0.092094
C	0.5003945302044902 0.8563495274233257 -0.0000001965407800	0.155992
C	0.0004423281092023 0.5438450635775167 0.4999983692468017	-0.103617
C	0.0002845398414952 0.6443406221814867 0.4999997022218878	0.161452
C	0.5004245131579779 0.0438442762063571 0.0000001049653212	-0.104006
C	0.5002708981015740 0.1443718512540651 0.0000013222048342	0.161678
C	0.5438464297116841 0.0004399869465422 0.4999991764837413	-0.103935
C	0.6443408800876108 0.0002833420679579 0.4999994003614153	0.161539
C	0.0438451136466670 0.5004270084689360 -0.0000000050916430	-0.104112
C	0.1443713248308588 0.5002729828050637 -0.0000008269874329	0.161670
C	0.4569305749669117 0.0004110857578533 0.4999995349106745	-0.091731
C	0.3563918313180959 0.0004039283421276 0.4999994868840058	0.155802
C	0.9569138403430075 0.5003927516250904 0.0000011157690717	-0.091953
C	0.8563493320787802 0.5003954642212797 0.0000000219849088	0.155936
H	-0.0001595341699354 0.3414568056584624 0.2324857655934022	0.117862
H	-0.0011817154225725 0.1645055382465305 0.2429230306466701	0.095733
H	0.4998306564959664 0.8414600611289920 0.7325639492951282	0.117859
H	0.4988124767194809 0.6645517830059721 0.7429218983614415	0.095703
H	-0.0003865897671930 0.6591000745847925 0.2326163274236749	0.118712
H	-0.0018202463400771 0.8369452958787429 0.2438971839574649	0.089468
H	0.4996011285702069 0.1590919511128502 0.7326883548376736	0.118723
H	0.4981667115170011 0.3369125571559855 0.7438880685413300	0.089311
H	0.6591003293172580 -0.0003867155762009 0.2326159187753897	0.118715
H	0.8369456151186973 -0.0018195516871377 0.2438982580512607	0.089471
H	0.1590919477201725 0.4996007987378157 0.7326874707218949	0.118700
H	0.3369118486586156 0.4981641770292987 0.7438872541836468	0.089354
H	0.3414569613177802 -0.0001601032734971 0.2324855850570514	0.117875
H	0.1645052135028279 -0.0011808875916118 0.2429224288305250	0.095780
H	0.8414586376933143 0.4998305828833985 0.7325655636724576	0.117873
H	0.6645499137919221 0.4988105843589929 0.7429249062957991	0.095684
H	-0.0001593717439235 0.3414566142918024 0.7675130901052943	0.117913
H	-0.0011815453150919 0.1645052854414749 0.7570768356871300	0.095734
H	0.4998304406650191 0.8414601034934051 0.2674343344901697	0.117862
H	0.4988121527854436 0.6645516484119274 0.2570768600119488	0.095730
H	-0.0003863579165766 0.6590995869517965 0.7673837577829478	0.118691
H	-0.0018200364468391 0.8369447921196496 0.7561014744043256	0.089497
H	0.4996004255705337 0.1590915951181950 0.2673126846536860	0.118676
H	0.4981663585734351 0.3369125207554435 0.2561112938440861	0.089300
H	0.3414582798468435 -0.0001601137779644 0.7675138345614264	0.117888
H	0.1645064807820470 -0.0011808421028680 0.7570773173729504	0.095717
H	0.8414594083671306 0.4998304334081191 0.2674358140407735	0.117868
H	0.6645506868129557 0.4988106491863541 0.2570775472310690	0.095689
H	0.6591009929501428 -0.0003867029046290 0.7673828269225048	0.118701
H	0.8369462180620059 -0.0018194915251512 0.7561012204220394	0.089486
H	0.1590921008760909 0.4996009868380484 0.2673125365267825	0.118706
H	0.3369117307218052 0.4981644461012876 0.2561144733766479	0.089312
Fe	0.0007220296108609 0.0007214846484249 0.4999998121044598	0.824538
Fe	0.5006991427465021 0.5007012626861662 -0.0000004786938907	0.826872
Ga	-0.0006744792251801 -0.0006746725487077 -0.0000001661313466	1.442059
Ga	0.4992745652110943 0.4992676630935763 0.4999999140792737	1.441129
N	0.0002302079850084 0.1567322625515265 0.4999998894207576	-0.243205
N	0.5002260368212207 0.6566686102411595 -0.0000005836317030	-0.243745
N	-0.0001149406673090 0.8441110607919252 0.4999994983029709	-0.243739
N	0.4998735096682781 0.3441654980098647 -0.0000004783670026	-0.244315
N	0.8441111608376067 -0.0001148406034554 0.4999996463511652	-0.243762
N	0.3441648744446263 0.4998739456702969 0.0000009372587463	-0.244285
N	0.1567339529324252 0.0002303748247713 0.5000001640030820	-0.243102
N	0.6566677546055567 0.5002266603915123 0.0000015935953388	-0.243768
F	0.0002108868912808 0.0002112196903842 0.7528190358429281	-0.530605
F	0.5001683283939963 0.5001634539697293 0.2526509341392578	-0.530735
F	0.0002114872499502 0.0002111618029304 0.2471810732643032	-0.530611
F	0.5001678425546738 0.5001691334001953 0.7473521822380317	-0.530731
F	0.6237356535820965 0.4639956945835957 0.5000063517907507	-0.546866
F	0.4640538739795220 0.6237401958948589 0.4999925295394568	-0.546806
F	0.4080387316269621 0.4081108032144245 0.5000077303261840	-0.560950
F	0.9081507773700823 0.9081531743010758 -0.0000001899389576	-0.561244
F	0.9641129141101654 0.1237483672086194 -0.0000007061115711	-0.546828
F	0.1237484173192075 0.9641105222569009 -0.0000010312029298	-0.546818
	  	
