#======================================================================

# CRYSTAL DATA

#----------------------------------------------------------------------

data_VESTA_phase_1


_pd_phase_name                         GaFFIVE_1_Zn
_cell_length_a                         11.37597
_cell_length_b                         11.37596
_cell_length_c                         7.99893
_cell_angle_alpha                      90.04195
_cell_angle_beta                       89.95789
_cell_angle_gamma                      90.03526
_symmetry_space_group_name_H-M         P 1
_symmetry_Int_Tables_number            1

loop_
_symmetry_equiv_pos_as_xyz
   x, y, z

loop_
   _atom_site_label
   _atom_site_fract_x
   _atom_site_fract_y
   _atom_site_fract_z
   _atom_site_charge
C	0.2509291145448979 0.4578656546554007 0.3669331968207522	0.101975
C	0.1286627495625528 0.4573751132487823 0.3619531332777864	-0.175331
C	0.7502377588870750 0.5407407385512703 0.3669491740104857	0.107251
C	0.8723649520974767 0.5418323159692249 0.3618328614474557	-0.175926
C	0.5415869557156657 0.2508285772979240 0.3681356783523246	0.104305
C	0.5423364562725379 0.1286832272934862 0.3626564604675258	-0.176581
C	0.4589379603565676 0.7499814987769106 0.3671721860397447	0.101180
C	0.4580718228757381 0.8722226282807819 0.3623618872054135	-0.176714
C	0.7499812840578434 0.4589347990877164 0.6328306307538750	0.101205
C	0.8722214574505036 0.4580688723732984 0.6376439321229226	-0.176726
C	0.2508287516028840 0.5415853674829210 0.6318630401560799	0.104254
C	0.1286855183695912 0.5423347436194684 0.6373432827039712	-0.176509
C	0.4578665607322021 0.2509286799768115 0.6330692883287313	0.101925
C	0.4573772374255315 0.1286601364216880 0.6380497214119637	-0.175343
C	0.5407418214321501 0.7502361571941306 0.6330512276361625	0.107212
C	0.5418327766973271 0.8723625738841453 0.6381685069465441	-0.175968
C	0.0653155995724434 0.4998408277243415 0.4997087805896465	0.101177
C	0.9356523922642854 0.4998831055764300 0.4996662111965873	0.099287
C	0.4998434142168371 0.0653118581976249 0.5002937404590991	0.101219
C	0.4998850329166363 0.9356507735753405 0.5003371054136136	0.099352
H	0.3033618158674405 0.4249096889569327 0.2623323167302360	0.100878
H	0.0832884870509270 0.4220114609864303 0.2528320596337566	0.121198
H	0.6977353497054168 0.5710720591494851 0.2618295145761336	0.096909
H	0.9177564798376887 0.5767752524736579 0.2525600226234674	0.119259
H	0.5746782618797984 0.3037092946217911 0.2646870803753006	0.095313
H	0.5775901425732443 0.0831566610069295 0.2536693616332197	0.119772
H	0.4288863211490124 0.6978599525549272 0.2608092359079955	0.103190
H	0.4231527320480520 0.9172725633683458 0.2527798447594132	0.121544
H	0.6978614773136197 0.4288847643780029 0.7391915687026245	0.103183
H	0.9172719284367923 0.4231493335478000 0.7472251856123299	0.121574
H	0.3037092538258106 0.5746757341036752 0.7353115646827608	0.095311
H	0.0831584432434999 0.5775880376842470 0.7463300385792968	0.119720
H	0.4249103379590970 0.3033617811462372 0.7376717580087352	0.100869
H	0.4220134803141464 0.0832843819016107 0.7471708814396234	0.121242
H	0.5710732649607578 0.6977309791776322 0.7381709052461417	0.096897
H	0.5767740247969759 0.9177521362691673 0.7474418561983428	0.119272
Zn	0.5007886351347666 0.5007841138775703 0.5000006408007114	0.730474
Ga	0.4986798317227163 0.4986894922490188 -0.0000064771782614	1.461497
F	0.5021954942746374 0.4983448175055383 0.7578842876622912	-0.550376
F	0.4983341172750732 0.5022010761049197 0.2421080773288470	-0.550464
F	0.3845706403716773 0.3846182434604462 -0.0000195020234102	-0.588401
F	0.6539292237363368 0.4547000148402354 0.0043621781090442	-0.588294
F	0.4547110558743289 0.6539354294890320 0.9956390918058843	-0.588271
N	0.3107353904678163 0.4997607031742903 0.4995229128590834	-0.223374
N	0.6902547069445185 0.4998631143494566 0.4997389671397984	-0.228371
N	0.4997632502903843 0.3107377520635859 0.5004765350712107	-0.223452
N	0.4998662538946997 0.6902535733713263 0.5002602083747359	-0.228345
	  	
