#======================================================================

# CRYSTAL DATA

#----------------------------------------------------------------------

data_VESTA_phase_1


_pd_phase_name                         GaFFIVE_7_Ni
_cell_length_a                         19.13083
_cell_length_b                         19.13061
_cell_length_c                         7.96928
_cell_angle_alpha                      89.99763
_cell_angle_beta                       90.00108
_cell_angle_gamma                      90.01724
_symmetry_space_group_name_H-M         P 1
_symmetry_Int_Tables_number            1

loop_
_symmetry_equiv_pos_as_xyz
   x, y, z

loop_
   _atom_site_label
   _atom_site_fract_x
   _atom_site_fract_y
   _atom_site_fract_z
   _atom_site_charge
C	0.6656802134144482 0.8711540259208209 0.6985516423074405	0.098166
C	0.6146690984890998 0.9228596123836960 0.7027809301168022	-0.179262
C	0.5796093684132165 0.8876369808415909 0.4266874228209657	-0.174545
C	0.6314763565848452 0.8370623557801041 0.4321220275754244	0.101533
C	0.8344790450960214 0.6288870969744214 0.6985413845917894	0.106346
C	0.8853383757413575 0.5770758388545127 0.7032952786100126	-0.180178
C	0.9203350300226872 0.6123242724664855 0.4271901795628589	-0.172601
C	0.8685826899676161 0.6630718137723159 0.4321299874709488	0.092333
C	0.6286265073566379 0.6656259334167532 0.6983422809460034	0.101490
C	0.5769278209956463 0.6145999054551744 0.7029567384187274	-0.178355
C	0.6122854742147896 0.5794706115022831 0.4271318349698618	-0.172462
C	0.6630523974577303 0.6312057861559407 0.4325201674449595	0.096794
C	0.8711059971542419 0.8340917420767280 0.6985148856481077	0.100974
C	0.9227803504826577 0.8851406888048197 0.7030729680744238	-0.179668
C	0.8874574274843541 0.9202477148326201 0.4269682315012639	-0.174793
C	0.8366869044008066 0.8685154746063364 0.4322740733013297	0.097953
C	0.3340931606010316 0.3711068851002545 0.3014946719356442	0.101165
C	0.3851415474902419 0.4227815432885725 0.2969321519595914	-0.179677
C	0.4202464397121123 0.3874569719977743 0.5730368105328483	-0.174741
C	0.3685142972364208 0.3366862548425638 0.5677357505638999	0.098029
C	0.1656263059464240 0.1286263835425073 0.3016568201562866	0.101503
C	0.1146006794392164 0.0769282015940859 0.2970436789999435	-0.178364
C	0.0794706177397202 0.1122846357613443 0.5728691309460548	-0.172458
C	0.1312060928410035 0.1630517093284992 0.5674786175608239	0.096780
C	0.3711540522017271 0.1656806220270033 0.3014431446618047	0.098245
C	0.4228598771940685 0.1146703082272498 0.2972160227552141	-0.179319
C	0.3876370971252521 0.0796097551257436 0.5733131492832065	-0.174605
C	0.3370618769379548 0.1314765475320309 0.5678760717926523	0.101557
C	0.1288871519601082 0.3344787989010176 0.3014604592459224	0.106312
C	0.0770760360282391 0.3853381786927381 0.2967076287434477	-0.180287
C	0.1123239400805661 0.4203350022704674 0.5728095010345661	-0.172541
C	0.1630713953935763 0.3685825022124794 0.5678692574967521	0.092445
C	0.4327713049640877 0.0702962226517130 0.4357679655088453	0.139533
C	0.4871063666258030 0.0168424941371724 0.4319152773539384	-0.121739
C	0.0671734453633471 0.4297107187803417 0.4352861348171180	0.140426
C	0.0127713538228785 0.4831364569509026 0.4317792314826601	-0.121990
C	0.4295637299313496 0.4326590226115540 0.4355014976114236	0.142788
C	0.4830354505182041 0.4870419207290156 0.4318710296279622	-0.124435
C	0.0701870001326367 0.0671052942615811 0.4354903640316108	0.137138
C	0.0167381923675640 0.0127113854016505 0.4318096219072823	-0.119645
C	0.5671054818876333 0.5701868761016804 0.5645107079239982	0.137171
C	0.5127106906008468 0.5167379679466544 0.5681915703823475	-0.119558
C	0.9326585605114843 0.9295633586317531 0.5645019334797889	0.142873
C	0.9870414609276388 0.9830352821036509 0.5681308303712095	-0.124375
C	0.5702955259882490 0.9327709663180356 0.5642317134891655	0.139480
C	0.5168418208292385 0.9871066518684188 0.5680860951160513	-0.121756
C	0.9297107862475085 0.5671738412348630 0.5647160293286673	0.140436
C	0.9831364480640419 0.5127711708851792 0.5682225126205156	-0.122013
H	0.7000259887321295 0.8622100104906796 0.8056399386195806	0.100808
H	0.6101938712574700 0.9555407968368670 0.8144208039159182	0.116295
H	0.5458576173865887 0.8906071217831152 0.3168220761881479	0.114365
H	0.6403009218242176 0.8016215227740702 0.3274779956453509	0.094168
H	0.7995434024250321 0.6380994146598034 0.8040645880661896	0.092999
H	0.8899172167276781 0.5443040165068793 0.8146398522062550	0.114228
H	0.9539682859647015 0.6094904188010846 0.3169783332679963	0.115482
H	0.8601049629328001 0.6980658448730085 0.3261012209331312	0.102113
H	0.6379867761280876 0.6997035594447992 0.8052400996829132	0.099104
H	0.5443665751954635 0.6100497509467727 0.8146873740891538	0.115061
H	0.6093753144141891 0.5459744919555412 0.3167880222303261	0.115081
H	0.6976810168338606 0.6401720656594988 0.3264969092994462	0.099514
H	0.8624894071480385 0.7986909049714997 0.8038397735731629	0.096608
H	0.9556490160624392 0.8897200555596428 0.8143439009061062	0.115174
H	0.8904329070659458 0.9540733294998665 0.3171495219408341	0.114735
H	0.8007192765904169 0.8603075486223120 0.3279927586051056	0.096730
H	0.2986928600009055 0.3624903762407041 0.1961724896775367	0.096496
H	0.3897216139651142 0.4556501469567364 0.1856581001421674	0.115180
H	0.4540723710060859 0.3904307683764923 0.6828526612021462	0.114702
H	0.3603069610981857 0.3007171609685572 0.6720168792908463	0.096667
H	0.1997045792335611 0.1379864516204434 0.1947572324796739	0.099083
H	0.1100511131627143 0.0443666161902648 0.1853143439241196	0.115074
H	0.0459744967977714 0.1093742781708125 0.6832121771897597	0.115076
H	0.1401722221093097 0.1976800607771980 0.6734998388643376	0.099537
H	0.3622100825846584 0.2000273235938732 0.1943550904576610	0.100778
H	0.4555414310209725 0.1101950144541488 0.1855772673711453	0.116272
H	0.3906072224165604 0.0458580826107394 0.6831792162408427	0.114363
H	0.3016212756906263 0.1403007406740077 0.6725205254664257	0.094175
H	0.1380999421934421 0.2995434556566300 0.1959387087940392	0.093031
H	0.0443049120790549 0.3899167259684800 0.1853640065608809	0.114300
H	0.1094898518319255 0.4539681531003167 0.6830202943191984	0.115458
H	0.1980643747255759 0.3601047353854669 0.6738975662586889	0.102064
H	0.5057475499849576 0.0023426466108677 0.3068323215966884	0.101506
H	0.9941307732867030 0.4978539924743050 0.3068659169717246	0.101128
H	0.4976977755452786 0.5057127326054711 0.3069154577550305	0.102180
H	0.0021686104094501 0.9940804353266424 0.3067837217604359	0.100535
H	0.4940785168951873 0.5021672797529761 0.6932170980562374	0.100517
H	0.0057113225730212 0.9976967039340686 0.6930865647430664	0.102191
H	0.5023426146792118 0.0057475863560557 0.6931688552646798	0.101497
H	0.9978542446096624 0.4941306733035826 0.6931358939860890	0.101117
Ni	0.2499171294449586 0.2499026116013557 0.4341857007266873	0.755430
Ni	0.7499027960193663 0.7499167629122818 0.5658075554673727	0.755358
Ga	0.2506005105393175 0.2507154474858628 0.9347358028451528	1.462626
Ga	0.7507156607770180 0.7505997056571763 0.0652534252682289	1.462504
F	0.2504198247851713 0.2494616940049334 0.1799641474009146	-0.558077
F	0.2493051082711709 0.2503114468711935 0.6891265425876537	-0.557612
F	0.7494554861242950 0.7504213394490914 0.8200352535475456	-0.558052
F	0.7503185854600884 0.7493103871365369 0.3108653433835644	-0.557619
F	0.1823777740615583 0.1836791165222127 0.9349945159223830	-0.578295
F	0.2277198362586005 0.3435318873811083 0.9379269561984203	-0.579155
F	0.3429116155195610 0.2260528870365349 0.9305885089795406	-0.578989
F	0.7260277550791165 0.8429066319940385 0.0693916610743440	-0.578998
F	0.8435352350638642 0.7277429017949849 0.0620441491091248	-0.579098
F	0.6837021359436224 0.6823494046495223 0.0650085412554162	-0.578259
N	0.3287206595978003 0.1740871630531315 0.4347736523033876	-0.232551
N	0.1713585606718753 0.3260155387649875 0.4344189467349960	-0.231792
N	0.3258082244277191 0.3285374617893882 0.4345561500921918	-0.230522
N	0.1739285284365720 0.1712235649998927 0.4344859910639519	-0.234856
N	0.6712236271976142 0.6739284707119289 0.5655103233918700	-0.234838
N	0.8285373283513009 0.8258086150363512 0.5654542808588945	-0.230458
N	0.6740873730455242 0.8287212688015592 0.5652207259379274	-0.232537
N	0.8260154593485798 0.6713586129485712 0.5655806182252296	-0.231706
	  	
