#======================================================================

# CRYSTAL DATA

#----------------------------------------------------------------------

data_VESTA_phase_1


_pd_phase_name                         GaFFIVE_16_Co_i
_cell_length_a                         24.76650
_cell_length_b                         24.76715
_cell_length_c                         8.06158
_cell_angle_alpha                      90.00444
_cell_angle_beta                       90.00294
_cell_angle_gamma                      90.05243
_symmetry_space_group_name_H-M         P 1
_symmetry_Int_Tables_number            1

loop_
_symmetry_equiv_pos_as_xyz
   x, y, z

loop_
   _atom_site_label
   _atom_site_fract_x
   _atom_site_fract_y
   _atom_site_fract_z
   _atom_site_charge
C	0.4783858842919710 0.3932627482113448 0.3724005963552059	0.090420
C	0.4776917342192318 0.3373001858343188 0.3686204196138087	-0.168559
C	0.9546358074569481 0.6148076521969096 0.9426657194602714	-0.125035
C	0.9547556703140544 0.5587313689487933 0.9435261246181472	-0.123757
C	0.5213206413966993 0.6070181175870863 0.3701386385602720	0.095034
C	0.5223048197160215 0.6629856708414480 0.3654162635442473	-0.168376
C	0.0453647530569129 0.3855554690720614 0.9427580297364855	-0.124948
C	0.0452201053224460 0.4416340370817366 0.9434051994209686	-0.126238
C	0.6075823832508965 0.4787566920981209 0.3724662656174471	0.087800
C	0.6635592339636669 0.4778034365845683 0.3690986717980610	-0.168335
C	0.3852611380468111 0.9546490865690429 0.9427411237308227	-0.123976
C	0.4413725332814377 0.9547817995706513 0.9437989505473627	-0.125941
C	0.3930923621319860 0.5216021611290768 0.3707957393797563	0.092262
C	0.3370995020592843 0.5224360860057307 0.3661108239158163	-0.169111
C	0.6151312401340682 0.0453371778034750 0.9428663575465646	-0.124466
C	0.5590164926579205 0.0451817254675017 0.9437120126521811	-0.124721
C	0.5216247160914300 0.3935001444045877 0.6291801227771905	0.091272
C	0.5224642285145931 0.3375355555502626 0.6338538625026900	-0.170718
C	0.0453805850697748 0.6148718086702720 0.0572967348800510	-0.124286
C	0.0452233796897582 0.5587903091397642 0.0565093459113066	-0.125199
C	0.4787635376607488 0.6072221771011658 0.6276359059030240	0.087458
C	0.4778384573010727 0.6631856076695902 0.6310013306659339	-0.169362
C	0.9546111405761445 0.3855052983118735 0.0573861150276672	-0.125244
C	0.9547366459597962 0.4415842297667715 0.0563776679699673	-0.126173
C	0.3928583656575531 0.4784173110168468 0.6274727260903855	0.089699
C	0.3368753707169717 0.4776945457868031 0.6312589735799039	-0.168226
C	0.6150705498890272 0.9546819046235763 0.0572220387350810	-0.123817
C	0.5589564662309285 0.9548064657450451 0.0563103517165856	-0.125383
C	0.6073961287723018 0.5212956212112192 0.6298793804641797	0.094940
C	0.6633880957078963 0.5223017004819258 0.6345603724859288	-0.167563
C	0.3853095399548384 0.0453302685961589 0.0571178579323063	-0.125265
C	0.4414199078853701 0.0451852212124512 0.0564209509242236	-0.125555
C	0.5453360435683563 0.8853469325744056 0.5571110898795714	-0.125223
C	0.5452004138068369 0.9414559430110133 0.5564290538834149	-0.125691
C	0.0212857550559355 0.1074046504871011 0.1299085833130106	0.095313
C	0.0223137053984621 0.1633930151910098 0.1345934580937387	-0.167724
C	0.4546644508546506 0.1150437784456034 0.5572260855831626	-0.123152
C	0.4547801234281970 0.0589352807237414 0.5563250590518137	-0.125665
C	0.9784119821196271 0.8928710278174762 0.1273905848762850	0.088930
C	0.9777004976379988 0.8368844316690275 0.1313085151909358	-0.168066
C	0.1148545810812188 0.5453945361855149 0.5573080118801861	-0.124592
C	0.0587742627492803 0.5452341275278750 0.5565149102551780	-0.125498
C	0.8935287673195912 0.0216383857069623 0.1291564586819752	0.091306
C	0.8375538259279255 0.0224744191427014 0.1338307507564743	-0.170817
C	0.8855245588879097 0.4546110147778016 0.5574052157679761	-0.124473
C	0.9415971674362341 0.4547397622571211 0.5563902756224010	-0.126505
C	0.1071796345614058 0.9787538632855411 0.1276664717769083	0.087642
C	0.1631457539107129 0.9778356763279353 0.1310500022503171	-0.169692
C	0.4546309758592781 0.8852949115695091 0.4427331378078966	-0.124340
C	0.4547577279324793 0.9414048337339125 0.4437861637345540	-0.125820
C	0.9787443426257315 0.1075719405362925 0.8725029760245510	0.087679
C	0.9778013350806554 0.1635525947720791 0.8690305711424225	-0.167983
C	0.5453489580883436 0.1151034512988927 0.4428590862495353	-0.123582
C	0.5452017566056825 0.0589936409199845 0.4436969895363508	-0.125246
C	0.0215955459881820 0.8930829841686135 0.8706650379236334	0.092397
C	0.0224504852736310 0.8370856992958741 0.8660371332122629	-0.169052
C	0.8855732212217327 0.5453722829529942 0.4427359375188357	-0.125096
C	0.9416475879346279 0.5452263030640734 0.4433989262387709	-0.126168
C	0.1069823440595470 0.0213293480043841 0.8701578298960443	0.095188
C	0.1629524037001387 0.0223102349116496 0.8654118597819855	-0.168413
C	0.1147890688990541 0.4546345711057294 0.4426474420685891	-0.124963
C	0.0587130224940305 0.4547551152215969 0.4435161426893782	-0.124410
C	0.8932897275160780 0.9783750930888860 0.8723466156511411	0.090185
C	0.8373176369570456 0.9776850274794147 0.8685495378859552	-0.168478
C	0.5000686219268113 0.3079521380726208 0.5013622981954395	0.172693
C	0.5001175572200859 0.2506910479081788 0.5013522816259917	-0.117016
C	0.5000772049357252 0.2014248595573536 0.5005790772670055	-0.095137
C	0.5000274309143529 0.1441182632742916 0.5001535041161991	0.124311
C	0.4999918045749490 0.0299429512565791 0.5000676744315770	0.064287
C	0.0000783860475062 0.8075329532846165 -0.0014159520722730	0.170782
C	0.0001420814582036 0.7502858550481893 -0.0013179852491214	-0.114937
C	0.0000812914912270 0.7010298261024692 -0.0005913363616208	-0.095465
C	0.0000319624604450 0.6437840999205382 -0.0001470489424564	0.123992
C	-0.0000116449301187 0.5298699004579456 -0.0000379161541439	0.063195
C	0.5000633559106126 0.6925264280431774 0.4979974487774779	0.171569
C	0.5001284184353610 0.7497769938481859 0.4980713101241311	-0.115539
C	0.5000621698994692 0.7990289880768375 0.4990064420601246	-0.094956
C	0.5000054306606453 0.8563107230863148 0.4996932070785031	0.123902
C	0.4999853486997028 0.9704374859811042 0.5001133071744438	0.068354
C	0.0000559923326737 0.1929030787566328 0.0019942915696925	0.171332
C	0.0001363123929008 0.2501428870079890 0.0019155791381371	-0.117969
C	0.0000686460665221 0.2993779505124144 0.0010253076746657	-0.093754
C	0.0000109437323367 0.3566038840333443 0.0002852356646224	0.124501
C	-0.0000166643570305 0.4704857918061613 -0.0001115829429091	0.069861
C	0.6929263018323850 0.5000397190024911 0.5020306976508196	0.171471
C	0.7501700559800026 0.5001160252335273 0.5019829483667809	-0.117307
C	0.7994054512230572 0.5000665608274522 0.5010568775903292	-0.094428
C	0.8566379416058529 0.5000122496453810 0.5002875991832764	0.124217
C	0.9704883647865384 0.4999904643319750 0.4998964788630531	0.070181
C	0.1924898639394168 0.0000625573867955 -0.0019729007243883	0.171175
C	0.2497400099528319 0.0001309648314544 -0.0019002832947967	-0.115533
C	0.2989980865794157 0.0000627627982923 -0.0009734142177330	-0.094610
C	0.3562706866822662 0.0000117963122929 -0.0002959874362603	0.124148
C	0.4704240261094722 -0.0000110660341748 0.0001205802848754	0.068295
C	0.3075116973867719 0.5000585768969371 0.4985728226654721	0.170884
C	0.2502618335889141 0.5001187120757729 0.4986483161851589	-0.115683
C	0.2010064756148240 0.5000798092001940 0.4993838042337467	-0.094528
C	0.1437496494818238 0.5000377135745915 0.4998469881791380	0.123594
C	0.0298683812094276 0.4999959618636310 0.4999625550841928	0.063110
C	0.8079756606658091 0.0000732564312560 0.0013179158982710	0.173015
C	0.7507102583076234 0.0001301033015659 0.0013185699172542	-0.117314
C	0.7014437600953618 0.0000824279612356 0.0005814976260593	-0.094800
C	0.6441453072789629 0.0000313739401464 0.0001573887154803	0.125034
C	0.5299449206775977 -0.0000047708080388 0.0000717845918145	0.064529
H	0.4622766932946063 0.4170497433150503 0.2697718758984705	0.107449
H	0.4600158927265037 0.3165993297450072 0.2625394290864178	0.128676
H	0.9196881371929466 0.6369290057938085 0.8966668544010237	0.111370
H	0.9199009649315356 0.5366608675031609 0.8957787648701159	0.106218
H	0.5367197754945118 0.5827709902503619 0.2681114645412218	0.104332
H	0.5398646285771919 0.6835933222754178 0.2591324463732353	0.126891
H	0.0803125989891473 0.3634206598643522 0.8968055815178684	0.111395
H	0.0800710917210382 0.4636767414289514 0.8955893654883850	0.106122
H	0.5838670516603475 0.4637075198601038 0.2683977004755820	0.110320
H	0.6842018360480769 0.4602452935562684 0.2628434013874942	0.128583
H	0.3631164363620936 0.9196850686067873 0.8967332421591194	0.111225
H	0.4632825901217686 0.9198672537936767 0.8961764433301198	0.106074
H	0.4174046657692546 0.5380728916699283 0.2699306501134913	0.104340
H	0.3163766380641326 0.5401920308577968 0.2603971425835455	0.127654
H	0.6372478264645283 0.0803220666895590 0.8968731833232232	0.110729
H	0.5371038356428864 0.0800759405776271 0.8959622829681676	0.105921
H	0.5380807187193580 0.4178413752914257 0.7300364955036979	0.104541
H	0.5402229045820612 0.3168701454423836 0.7396913397924098	0.128386
H	0.0803419958140195 0.6370292207792229 0.1033205569548252	0.110889
H	0.0800588580362831 0.5367659650814391 0.1042915839851426	0.106737
H	0.4637047406297718 0.5835184109524364 0.7316893526320672	0.110266
H	0.4602980645884341 0.6837927288278272 0.7373446248481252	0.129326
H	0.9196673595726634 0.3633284167271425 0.1034037643711535	0.111781
H	0.9198858216672129 0.4635932300324648 0.1040942634942835	0.106493
H	0.4166289944722744 0.4623267050490292 0.7301419115772383	0.107890
H	0.3161301480171446 0.4600290330522316 0.7372479903558137	0.128594
H	0.6371502099714003 0.9197094062814680 0.1031950155998720	0.110824
H	0.5369990426530570 0.9198903468790139 0.1039654915672849	0.106296
H	0.5831852808238233 0.5366782427406853 0.7320172561616519	0.103542
H	0.6840508036241606 0.5398854650312152 0.7407009189149784	0.126691
H	0.3632067730762616 0.0802979762316114 0.1030499423381213	0.111191
H	0.4633641289272806 0.0800955920654403 0.1041888575909881	0.105959
H	0.5802970494498807 0.8632256243555075 0.6030285053464974	0.111322
H	0.5801243077976791 0.9633912935743760 0.6042235091555779	0.106211
H	0.0366471591010937 0.0832312389316268 0.2321382959221682	0.103419
H	0.0399018398930764 0.1840798709279292 0.2407386016895929	0.126911
H	0.4196911031069077 0.1371401000628408 0.6031933499307357	0.110703
H	0.4198493518541993 0.0369800077368301 0.6039972792630824	0.106463
H	0.9623055938045756 0.9166070959926736 0.2300912198156103	0.108096
H	0.9600459080010459 0.8161482989499754 0.2373589362035607	0.128842
H	0.1370312114669412 0.5803457367872074 0.6033180998500624	0.111099
H	0.0367623072785873 0.5800663722149769 0.6043134819136563	0.107603
H	0.9178631604374057 0.0381040952384655 0.2300221983218812	0.104615
H	0.8168893215420833 0.0402374345175918 0.2396956442101610	0.128294
H	0.8633260374344159 0.4196804508567313 0.6034086544016195	0.111692
H	0.9635982638695431 0.4198949902054835 0.6040991553253438	0.106449
H	0.0834854601264945 0.9636923551239543 0.2317654833458782	0.110374
H	0.1837443071350776 0.9602957008136819 0.2374334339798306	0.129462
H	0.4196695731165746 0.8631357321298089 0.3967282116856289	0.111436
H	0.4198319332144773 0.9633096658910782 0.3961406277328898	0.106241
H	0.9636766668174980 0.0838860767470966 0.7684268913335578	0.110272
H	0.9602472444506361 0.1841879045376810 0.7627418096454868	0.128710
H	0.5803331214293986 0.1372366358916219 0.3968785943369091	0.110609
H	0.5801096184492792 0.0370820801898297 0.3959301743131076	0.106143
H	0.0380583573309213 0.9173515486629138 0.7697228502441306	0.104397
H	0.0402130354335465 0.8163409205426300 0.7603249026737462	0.127690
H	0.8634188946211764 0.5803050290537891 0.3968007683604636	0.111557
H	0.9636795367878999 0.5800712867065434 0.3955726448886887	0.105993
H	0.0827368650355737 0.0367275718351572 0.7681109799934468	0.104302
H	0.1835616686260725 0.0398693087491745 0.7591019328538292	0.126968
H	0.1369302282274121 0.4196971818566199 0.3966653015756939	0.111383
H	0.0366558795496451 0.4199033123614883 0.3957854587472227	0.106683
H	0.9170683451327446 0.9622413346631832 0.7697042878250843	0.107574
H	0.8166258912693213 0.9600037980775584 0.7624435882655801	0.128601
Co	0.5001026785936480 0.5001130915669538 0.5000048520605510	0.580831
Co	0.0001014620713451 0.0000920447815680 -0.0000287562998937	0.580666
Ga	0.4980990281573160 0.4980531256740524 0.0000170281309324	1.451323
Ga	-0.0019373249125501 -0.0019482063081159 0.4999772000479699	1.450770
F	0.5021490384122269 0.4979903883745269 0.2354699215105317	-0.550709
F	-0.0019940128528815 0.0022172091257614 0.7354169073934153	-0.550440
F	0.4978744348345034 0.5018652214905354 0.7645356062682592	-0.550673
F	0.0018780522728374 -0.0021724186504302 0.2645113861659925	-0.550494
F	0.4453675217256416 0.4453544598070018 0.0006283280180550	-0.594267
F	0.9454557808555822 0.9451633139242837 0.5008273835239007	-0.594268
F	0.4759933491187417 0.5693359403013232 0.0100069218717325	-0.597835
F	0.9759124312160443 0.0693740997003588 0.4892788716736733	-0.598183
F	0.5693740856819467 0.4759472182211216 0.9896608861355192	-0.598098
F	0.0693919956978005 0.9759345276229826 0.5099988960505920	-0.597918
N	0.4999834180045393 0.4210054053830708 0.5007568341289128	-0.183187
N	-0.0000143407709968 0.9206424037703652 -0.0009372433877495	-0.183833
N	0.5000632825591348 0.5794634554393348 0.4990268206252004	-0.187156
N	0.0000440963691299 0.0797877394088976 0.0010898334623065	-0.187371
N	0.5797887149766721 0.5000565672706978 0.5010374758596337	-0.187303
N	0.0794261867750886 0.0000604885715318 -0.0009580107200459	-0.187289
N	0.4206482533826632 0.5000023193646268 0.4991918355477221	-0.184222
N	0.9210235319747369 -0.0000172856319742 0.0007090017497798	-0.183237
	  	
