#======================================================================

# CRYSTAL DATA

#----------------------------------------------------------------------

data_VESTA_phase_1


_pd_phase_name                         GaFFIVE_5_Cd_i
_cell_length_a                         20.35984
_cell_length_b                         20.35924
_cell_length_c                         16.45351
_cell_angle_alpha                      89.98935
_cell_angle_beta                       89.99953
_cell_angle_gamma                      89.75438
_symmetry_space_group_name_H-M         P 1
_symmetry_Int_Tables_number            1

loop_
_symmetry_equiv_pos_as_xyz
   x, y, z

loop_
   _atom_site_label
   _atom_site_fract_x
   _atom_site_fract_y
   _atom_site_fract_z
   _atom_site_charge
F	0.2905816562130775 0.1589275333193458 0.3568990340433665	-0.591831
F	0.1652446712729946 0.2494301386398498 0.3526541652685595	-0.601837
F	0.3144076578364576 0.3107096681056876 0.3419314847325181	-0.603219
F	0.6895641813310371 0.6852243546652791 0.1580040043319208	-0.602998
F	0.7505957236248403 0.8346744775174552 0.1473409011887484	-0.601616
F	0.8411458194073502 0.7093066544818918 0.1431034611038329	-0.591922
F	0.6651174300628274 0.7496744188652579 0.6470260030195437	-0.601833
F	0.7903524776374737 0.6590761277476245 0.6433997166931194	-0.591893
F	0.8143512370821560 0.8108363890111538 0.6579510733378777	-0.602908
F	0.1895567876839477 0.1851105458936803 0.8422932159587168	-0.602952
F	0.3411379619660618 0.2094378940299208 0.8570397581709595	-0.591964
F	0.2505104215245189 0.3345498585285864 0.8520388618407266	-0.601804
F	0.2556491824755845 0.2536728470270682 0.4661267609811953	-0.564363
F	0.2515458253376082 0.2385532150632126 0.2343986653074259	-0.563360
F	0.7464228046102371 0.7442960009473443 0.0338716850819768	-0.564092
F	0.7614697762288812 0.7485009343150196 0.2656362801502508	-0.563468
F	0.7557632515679662 0.7535449464287534 0.5338132240775546	-0.564192
F	0.7510766832686593 0.7391103587409503 0.7655867266447017	-0.563779
F	0.2463058522553963 0.2447108173212070 0.9661314784107717	-0.564355
F	0.2612662976252225 0.2479629459305000 0.7343687225304856	-0.563541
N	0.3658519743213892 0.2482073176674378 0.6000835036632572	-0.236732
N	0.1352145242968681 0.2560346083377560 0.5998176921414984	-0.243406
N	0.2506791554288917 0.3654243438295461 0.6042740601129856	-0.240092
N	0.2445275330959007 0.1352480699821975 0.6012739283165115	-0.241511
N	0.6345450766714971 0.7493075724597846 0.8958124481443064	-0.240595
N	0.8647390452193069 0.7554251073217774 0.8986652109380504	-0.241744
N	0.7439857615547123 0.8647963604189782 0.9002729901678560	-0.242511
N	0.7517730902826866 0.6341870811764886 0.8998423809055586	-0.237033
N	0.6352178882294475 0.7560123655043979 0.4001666612379153	-0.243640
N	0.8658581411783786 0.7481914845137865 0.3999496918474704	-0.236726
N	0.7445372482299736 0.6352607303452833 0.3987114198683190	-0.241622
N	0.7506697151316282 0.8654407180834908 0.3957578834712220	-0.239950
N	0.3647417698503401 0.2554459562576228 0.1013417684992509	-0.241827
N	0.1345553466560751 0.2493142863352046 0.1042425347299325	-0.239980
N	0.2518057186808957 0.1341617139328089 0.1000474866743308	-0.237064
N	0.2439786818840531 0.3647789881522785 0.0998134579807802	-0.243320
C	0.3983625730040488 0.2266307282042980 0.6661808701949919	0.099224
C	0.4665518475463299 0.2255130216762430 0.6696868429743300	-0.179184
C	0.5032066516673559 0.2487491175410486 0.6035046870483650	0.102948
C	0.4683290927851432 0.2718428980491414 0.5355582203960777	-0.185429
C	0.4000495990683143 0.2701388302704054 0.5356655792007095	0.099692
C	0.5756419490384015 0.2490746354659805 0.6058513251512877	0.055949
C	0.6106432504401520 0.1947023059669097 0.6362223310188856	-0.130535
C	0.6789374148192077 0.1947569886787443 0.6381098509222038	-0.125726
C	0.7142821139451645 0.2498361466959744 0.6115518225085239	0.066510
C	0.6792789818175000 0.3045762580612607 0.5822891968741079	-0.121914
C	0.6110381433073804 0.3038684968791044 0.5785316702461433	-0.126498
C	0.1029934674384623 0.2759027261713773 0.6668206709319703	0.101906
C	0.0348283995807472 0.2763611191197433 0.6715175298711469	-0.181367
C	-0.0022264538897954 0.2537685978799465 0.6053087613920255	0.107461
C	0.0322511841273547 0.2329142730114593 0.5360243021330693	-0.180703
C	0.1005272991294826 0.2355538029740048 0.5350294185863059	0.103352
C	0.9253914148024595 0.2522534449381881 0.6082515457060609	0.052971
C	0.8896513862399666 0.3062138496548128 0.6384182721221778	-0.130459
C	0.8213466562684829 0.3054121361372114 0.6395526437759952	-0.125206
C	0.7866762555118914 0.2500771041330422 0.6123498508537956	0.068954
C	0.8224571835110107 0.1956006620582917 0.5837978467455146	-0.122051
C	0.8907240660757145 0.1970144140540731 0.5808049774922992	-0.126448
C	0.2712065246003164 0.3981269608954321 0.6705811939575794	0.102884
C	0.2732597772302168 0.4664114357137065 0.6729990271361288	-0.179283
C	0.2516436305947667 0.5029760497573729 0.6057544186088747	0.107331
C	0.2294753363568361 0.4679610680684547 0.5376394964524167	-0.184480
C	0.2305974373236553 0.3996839201057493 0.5388735486823518	0.098173
C	0.2514908241904615 0.5753838313705835 0.6071309079858309	0.053993
C	0.3058412866856641 0.6102548516502434 0.6369892237453519	-0.130382
C	0.3056657443412362 0.6785884437235377 0.6382623818369704	-0.127008
C	0.2504758892336976 0.7141833014783416 0.6115516731065758	0.069143
C	0.1958310883814068 0.6793223220274843 0.5826144802092991	-0.121223
C	0.1966653622981472 0.6110334020202048 0.5794433013715592	-0.128778
C	0.2233979437670844 0.1032967336132995 0.6679079015299505	0.100173
C	0.2228303340596401 0.0350752274161266 0.6720850029601383	-0.181849
C	0.2461794640463144 -0.0021301624106511 0.6062071623957110	0.102300
C	0.2683468008621019 0.0322742112717060 0.5376146483235151	-0.180449
C	0.2662086295760812 0.1005480167850481 0.5369337509467276	0.097221
C	0.2476038111956577 0.9253899375099378 0.6087773060414340	0.056657
C	0.1937131683910365 0.8899169940669956 0.6387699631683835	-0.131635
C	0.1946185280201012 0.8215859350620410 0.6396122695547395	-0.125396
C	0.2500095654958914 0.7866076342620284 0.6122569359363476	0.067380
C	0.3043878832075915 0.8221006225927407 0.5837688728751440	-0.122483
C	0.3028595472691876 0.8903861968300865 0.5810920677782502	-0.126778
C	0.6018595762737592 0.7287996055695287 0.8294892342497463	0.103237
C	0.5335761576355003 0.7267493231075044 0.8270333640656485	-0.179307
C	0.4970118613949780 0.7483614048541744 0.8942620490455507	0.107348
C	0.5320157598924427 0.7705238015768933 0.9623912292386658	-0.184605
C	0.6002904472751247 0.7693871338795273 0.9611900889495567	0.098794
C	0.4246006421926706 0.7485147479691706 0.8928645667108169	0.054308
C	0.3897315677786451 0.6941644016953427 0.8630159656343747	-0.130728
C	0.3214017022663864 0.6943377975401394 0.8617398313843042	-0.126784
C	0.2858020767542606 0.7495262235872762 0.8884441997537613	0.069111
C	0.3206666645475965 0.8041688442529497 0.9173742516826789	-0.121140
C	0.3889526536808480 0.8033402309607910 0.9205482521971421	-0.129009
C	0.8966837799038411 0.7765960797112864 0.8320486621308233	0.100020
C	0.9649050246976687 0.7771844371185690 0.8278798596700992	-0.181741
C	0.0021185638242861 0.7538212777936797 0.8937643074905330	0.102210
C	0.9677196801939012 0.7316392675723462 0.9623510140990787	-0.180428
C	0.8994473813248985 0.7337468347782098 0.9630198989540157	0.097417
C	0.0745992236874904 0.7524006176075559 0.8912031180507254	0.056848
C	0.1100713435840981 0.8062955753623835 0.8612202896223660	-0.131883
C	0.1784016864212756 0.8053851965471578 0.8603796066540658	-0.125535
C	0.2133790803208236 0.7499859684769501 0.8877394344525409	0.067472
C	0.1778889916455887 0.6956063482430653 0.9162279710860254	-0.122168
C	0.1096049978595456 0.6971375624883384 0.9188938797516624	-0.126989
C	0.7241233087390593 0.8970043590006119 0.8332449961559802	0.101516
C	0.7236515619617465 0.9651735773201119 0.8285276863881504	-0.181289
C	0.7462348428289330 0.0022380791003533 0.8947248195897902	0.107520
C	0.7670862529008036 0.9677725233769947 0.9640352334156280	-0.180701
C	0.7644510625809638 0.8994933082033395 0.9650614242293840	0.102399
C	0.7477464797306925 0.0746202053463768 0.8917665542793540	0.053286
C	0.6937863320204858 0.1103626396203803 0.8615892524561333	-0.130209
C	0.6945846233399209 0.1786720342190352 0.8604495089348126	-0.125383
C	0.7499191627959405 0.2133418316716845 0.8876516934928951	0.069257
C	0.8043992881915237 0.1775578845222786 0.9162082189198605	-0.122082
C	0.8029863757459860 0.1092870877385125 0.9192035105929385	-0.127051
C	0.7733236213164836 0.6016809877549250 0.8337354205774035	0.099747
C	0.7744589881569770 0.5334893127541863 0.8302410963668457	-0.179286
C	0.7512550412651298 0.4968229699719373 0.8964235340304937	0.102651
C	0.7281697395320658 0.5316982824371609 0.9643719316193331	-0.184466
C	0.7298707035865262 0.5999746460094717 0.9642654384335075	0.099545
C	0.7509293561849996 0.4243893941586682 0.8941038231998972	0.055805
C	0.8052955512926082 0.3893808674252141 0.8637431666628221	-0.129926
C	0.8052379331896315 0.3210843078933215 0.8618749518904185	-0.126457
C	0.7501610137813919 0.2857412588646208 0.8884394539305478	0.066757
C	0.6954293713734547 0.3207493257200863 0.9176996562367894	-0.122290
C	0.6961424686398798 0.3889922343982464 0.9214390966110145	-0.126442
C	0.6029944629274557 0.7758810082217186 0.3331594437472269	0.101953
C	0.5348307744693979 0.7763526611550403 0.3284697456872585	-0.181498
C	0.4977750360789569 0.7537668422953305 0.3946947511595033	0.107556
C	0.5322561773681054 0.7329109122377098 0.4639872156322853	-0.180960
C	0.6005324495091542 0.7355437753758650 0.4649773134533474	0.103659
C	0.4253935746624948 0.7522540868686712 0.3917581882781674	0.053064
C	0.3896556154134014 0.8062236280689340 0.3615831652232164	-0.130380
C	0.3213497068572919 0.8054221011930411 0.3604495817743435	-0.125200
C	0.2866787546203022 0.7500817765895719 0.3876540642623960	0.068992
C	0.3224625790161592 0.6955987812085045 0.4162138285958253	-0.122071
C	0.3907276169647756 0.6970106680330530 0.4192078362041547	-0.126697
C	0.8983701649521736 0.7266169048062825 0.3338592123254615	0.099101
C	0.9665566460781970 0.7255033003448271 0.3303463535454222	-0.178905
C	0.0032115553315006 0.7487468886610530 0.3965059396900175	0.102693
C	0.9683366471846305 0.7718456342986553 0.4644467611183909	-0.185478
C	0.9000588188334364 0.7701324173909582 0.4643469959022880	0.099757
C	0.0756477283727921 0.7490753423764606 0.3941546746387475	0.056031
C	0.1106464375489890 0.6947121265476471 0.3637828798258157	-0.130609
C	0.1789428143435275 0.6947659062909097 0.3618948719653567	-0.125728
C	0.2142849856677291 0.7498392819533976 0.3884522959366659	0.066543
C	0.1792887164655030 0.8045720950485105 0.4177128104673656	-0.121785
C	0.1110476843551455 0.8038642646192548 0.4214669470806035	-0.126535
C	0.7234086479350326 0.6033199666064945 0.3320880479657541	0.100110
C	0.7228324366348505 0.5350982496685969 0.3279250311504194	-0.182121
C	0.7461810317572291 0.4978804343080215 0.3938113306381115	0.102632
C	0.7683468591709135 0.5322743789683861 0.4623952596190026	-0.180379
C	0.7662091948793195 0.6005501651570132 0.4630665216026565	0.097213
C	0.7476031672284378 0.4254010029965837 0.3912453755781679	0.056528
C	0.6937177598127406 0.3899370261671631 0.3612481126781815	-0.131703
C	0.6946240734224651 0.3216055053401691 0.3603954295934805	-0.125374
C	0.7500186618480946 0.2866209127756544 0.3877460703714530	0.067274
C	0.8043917391491591 0.3221047418142569 0.4162410541395310	-0.122278
C	0.8028612450573012 0.3903887913789322 0.4189248652545028	-0.126736
C	0.7711988445763318 0.8981506466822162 0.3294432818398541	0.102702
C	0.7732551212454584 0.9664326900274527 0.3270082093434291	-0.179313
C	0.7516344056473917 0.0029852718453850 0.3942473618581616	0.107282
C	0.7294658312031457 0.9679626974467020 0.4623698111604277	-0.184409
C	0.7305888448798089 0.8996843336759799 0.4611489457181437	0.098453
C	0.7514849536862054 0.0753943231854299 0.3928622918721499	0.054215
C	0.8058397046548689 0.1102718291710725 0.3630096946885050	-0.130602
C	0.8056687960001893 0.1786058322842466 0.3617375458589540	-0.126673
C	0.7504799215912010 0.2141953660608820 0.3884482384906544	0.069100
C	0.6958323369946685 0.1793286655030587 0.4173826693717160	-0.121122
C	0.6966619631078164 0.1110388535695278 0.4205497924449946	-0.128971
C	0.3966894015622649 0.2765912147636084 0.1679556683873092	0.099963
C	0.4649117935686176 0.2771763235975728 0.1721198227581288	-0.181862
C	0.5021215246033794 0.2538263778871852 0.1062386313803438	0.102125
C	0.4677184681243426 0.2316538501269385 0.0376601696226944	-0.180185
C	0.3994456272494593 0.2337718303165674 0.0369932624758438	0.097349
C	0.5746041026739797 0.2524021763214604 0.1087898918079905	0.056847
C	0.6100777258093154 0.3062869917680928 0.1387744389619231	-0.131630
C	0.6784070615123445 0.3053766007290879 0.1396107289271309	-0.125569
C	0.7133827238596104 0.2499881653812421 0.1122542794426972	0.067343
C	0.6778906413164441 0.1956153484933946 0.0837680907374048	-0.122261
C	0.6096071102519659 0.1971483408322058 0.0811017615202489	-0.127224
C	0.1018534495885575 0.2287860971228891 0.1705569947251034	0.102679
C	0.0335723984152386 0.2267382659480086 0.1729944178840288	-0.179259
C	-0.0029856962099572 0.2483598230827614 0.1057507761379247	0.107188
C	0.0320299111602679 0.2705323017018202 0.0376246840198946	-0.184284
C	0.1003074409526018 0.2694046421544235 0.0388471706372300	0.098253
C	0.9246047088082581 0.2485158057509169 0.1071304483036164	0.054337
C	0.8897344076403628 0.1941543555640653 0.1369879038443920	-0.130467
C	0.8214028340116957 0.1943279819250084 0.1382577495086707	-0.126696
C	0.7858088144804058 0.2495246497953370 0.1115470845882541	0.069044
C	0.8206733832257637 0.3041755424294758 0.0826097320291310	-0.121220
C	0.8889580999879076 0.3033454221469792 0.0794407452492797	-0.128934
C	0.2733601690021802 0.1016441028768042 0.1661603314220866	0.099530
C	0.2744732015530665 0.0334540691105183 0.1696837878279331	-0.179366
C	0.2512508668651808 -0.0031976207547965 0.1035135551112259	0.102870
C	0.2281695419965332 0.0316861221797865 0.0355571881815093	-0.185223
C	0.2298825140116200 0.0999651456817059 0.0356430031073172	0.099846
C	0.2509234454948610 0.9243675122482129 0.1058664833915326	0.055856
C	0.3052889316757721 0.8893631880000625 0.1362367038913543	-0.130462
C	0.3052361066321651 0.8210639721792428 0.1381200687820412	-0.125965
C	0.2501634411536086 0.7857217925780121 0.1115537450830748	0.066826
C	0.1954288479011747 0.8207303815600806 0.0822943460779818	-0.122244
C	0.1961350262984908 0.8889746762660052 0.0785422426593401	-0.126365
C	0.2241209242587147 0.3969934963531911 0.1668166291295682	0.102022
C	0.2236515684070450 0.4651584474869899 0.1715066130746200	-0.181349
C	0.2462294331300408 0.5022227937444002 0.1052820762709688	0.107511
C	0.2670771822607597 0.4677506429514450 0.0359906446650789	-0.181104
C	0.2644441717101055 0.3994743003521810 0.0350023021999864	0.103447
C	0.2477448852290375 0.5746060819366110 0.1082264108344708	0.053220
C	0.1937837425030128 0.6103425671020699 0.1384065301928408	-0.130496
C	0.1945868826849604 0.6786511988093742 0.1395509196344513	-0.125194
C	0.2499245730257318 0.7133249440592800 0.1123461650401427	0.068948
C	0.3044011350139470 0.6775461564105645 0.0837935385804602	-0.122048
C	0.3029861907396367 0.6092768750963425 0.0807880390729282	-0.126724
H	0.3686281549718224 0.2113444939900851 0.7180223129338895	0.101072
H	0.4907637143691248 0.2083887243058797 0.7248982212592824	0.114826
H	0.4942867609053301 0.2894573489797587 0.4819531373113020	0.113934
H	0.3712544855531471 0.2859601043542596 0.4830205747494706	0.099209
H	0.5836861987439289 0.1517055157324859 0.6571716443936472	0.100600
H	0.7054734936833424 0.1522285967026030 0.6617832987557966	0.100637
H	0.7061296536516182 0.3472604299057682 0.5602048324806395	0.101848
H	0.5845919804209454 0.3466580372992845 0.5554947670282615	0.104510
H	0.1334928044214468 0.2910032110746235 0.7180771225329693	0.093406
H	0.0106812606100077 0.2924132241291583 0.7272078497444089	0.113558
H	0.0059899350800105 0.2162420222557159 0.4821277422988341	0.115550
H	0.1286048604689645 0.2227927541574860 0.4805263450993718	0.103673
H	0.9158862561441867 0.3496666802425115 0.6594176751495193	0.100903
H	0.7941187079788657 0.3476971852661701 0.6627825041453285	0.102737
H	0.7961376282000763 0.1526712045851057 0.5613976454131490	0.101981
H	0.9177141199909460 0.1545054995584528 0.5579819223727248	0.104679
H	0.2843560204700050 0.3683239053441444 0.7234665163521077	0.103382
H	0.2897332926335984 0.4909524771141908 0.7281867029934425	0.114466
H	0.2129626245603010 0.4938075474736326 0.4832944387686310	0.112491
H	0.2158764637692952 0.3705409571456738 0.4862474767410128	0.096497
H	0.3489953842715822 0.5831701025449531 0.6580467678487090	0.100569
H	0.3481809071893864 0.7049910940524212 0.6615712955814439	0.102136
H	0.1530298160465800 0.7063470818434585 0.5604226816632618	0.101889
H	0.1538627226145736 0.5848081365876745 0.5567047828604516	0.104759
H	0.2076925533806752 0.1335318696834173 0.7194017832367654	0.101597
H	0.2060750011516158 0.0110915501517517 0.7275043520094543	0.113885
H	0.2859108623380774 0.0061141616534845 0.4839786566971829	0.115376
H	0.2813193879913872 0.1283112790945306 0.4831764924856299	0.101503
H	0.1502914027422547 0.9164336027112577 0.6599936453661510	0.101520
H	0.1523876982537267 0.7946696051350842 0.6628561604781209	0.101694
H	0.3473638181522890 0.7956393855960622 0.5611785420632950	0.101184
H	0.3452779717127122 0.9171739483307851 0.5583362139440545	0.104624
H	0.6316880354321043 0.7156483681385040 0.7766410381049211	0.103161
H	0.5090470161365501 0.7102848464591363 0.7718302108900031	0.114514
H	0.5061617673936356 0.7870415264936981 0.0167167451443861	0.112454
H	0.6294329439425468 0.7841127548094291 0.0138173952841735	0.096129
H	0.4168159998305435 0.6510184845556348 0.8419674034647033	0.100752
H	0.2949950971054096 0.6518200621671834 0.8384353930214272	0.102032
H	0.2936411049101554 0.8469666185976730 0.9395633785794433	0.101864
H	0.4151816013471495 0.8461419657209494 0.9432822094908779	0.104765
H	0.8664437762604528 0.7923570138572487 0.7805733741377970	0.101519
H	0.9888855636522070 0.7939631695448880 0.7724707742756732	0.113835
H	0.9938904211919317 0.7140771583806208 0.0159919775912458	0.115544
H	0.8716882038172069 0.7186264395965939 0.0167703560239045	0.101704
H	0.0835563944905167 0.8497223831253925 0.8399936747159915	0.101709
H	0.2053195986807050 0.8476204936586923 0.8371421703343105	0.101771
H	0.2043482631319682 0.6526285724323767 0.9388249833347299	0.101080
H	0.0828148735874296 0.6547181350046983 0.9416558572296103	0.104609
H	0.7090520658176288 0.8664912141765566 0.7819960969812204	0.093752
H	0.7076088129022708 0.9893098212539373 0.7728208294690901	0.113567
H	0.7837502447069543 0.9940429992445297 0.0179287229599560	0.115484
H	0.7771978516725224 0.8714202756751206 0.0195824928170517	0.103788
H	0.6503321489783390 0.0841289265337538 0.8405876112809753	0.100826
H	0.6522917897591328 0.2058960150900214 0.8372090680352370	0.102731
H	0.8473305810195007 0.2038772980119193 0.9386019729700572	0.102005
H	0.8455013384679000 0.0823013001327623 0.9420328380694675	0.104808
H	0.7885713151048604 0.6314051431850692 0.7818529223120915	0.100726
H	0.7915726361325002 0.5092854695385387 0.7750266259350286	0.114736
H	0.7105682557190988 0.5057352754206288 0.0179789469109867	0.113518
H	0.7140746409784826 0.6287578480085361 0.0169221396360544	0.099221
H	0.8482940349299710 0.4163345610176205 0.8427956258138213	0.100587
H	0.8477652586088018 0.2945467098485616 0.8382173705088207	0.100766
H	0.6527480345012070 0.2939025123402146 0.9397983249786043	0.102048
H	0.6533602824721753 0.4154381594666411 0.9444730459575351	0.104623
H	0.6334948549924607 0.7909709616551497 0.2818966754196336	0.093368
H	0.5106840535322287 0.7924087386290893 0.2727732024195519	0.113532
H	0.5059915165023033 0.7162526441281492 0.5179008945569343	0.115710
H	0.6286044650986667 0.7228012234900758 0.5194937365842717	0.103718
H	0.4158907964869994 0.8496829123774738 0.3405841194039050	0.100908
H	0.2941220825887843 0.8477143182915295 0.3372162356230979	0.102749
H	0.2961391111709561 0.6526647984169442 0.4386190309484048	0.101968
H	0.4177147063279817 0.6544965673968268 0.4420400088355417	0.104744
H	0.8686368729942066 0.7113324352161480 0.2820228076410687	0.101174
H	0.9907682693590338 0.7083882747879141 0.2751376070062067	0.114618
H	0.9942979069478325 0.7894683417152543 0.5180318317677346	0.113878
H	0.8712668974360825 0.7859607069194284 0.5169876183321209	0.099212
H	0.0836877176671372 0.6517228524618283 0.3428361413963001	0.100619
H	0.2054770315653088 0.6522435645792394 0.3382215941430315	0.100557
H	0.2061367993660394 0.8472466234544443 0.4397927491223130	0.101824
H	0.0845968196638937 0.8466496908654790 0.4445060152189190	0.104459
H	0.7076998176152121 0.6335602196796741 0.2805843934675911	0.101716
H	0.7060782244347299 0.5111278702445448 0.2725098884562948	0.114010
H	0.7859045062489989 0.5061021400158295 0.5160384621359295	0.115287
H	0.7813047118667517 0.6283106307511849 0.5168169093905778	0.101662
H	0.6502901827235157 0.4164561828609729 0.3400256168924053	0.101529
H	0.6523966880731343 0.2946936719599499 0.3371554652998602	0.101754
H	0.8473691000401111 0.2956363001364306 0.4388331515940340	0.101168
H	0.8452792982890447 0.4171687234788690 0.4416828625892828	0.104583
H	0.7843661203354275 0.8683438383328581 0.2765876174645756	0.103281
H	0.7897374134748222 0.9909851463041166 0.2718144286320198	0.114539
H	0.7129525110098358 0.9937967890005770 0.5167037234278797	0.112500
H	0.7158591140800332 0.8705369882688728 0.5137891084123652	0.096260
H	0.8489911568669548 0.0831912876720045 0.3419548072433430	0.100724
H	0.8481855244808947 0.2050136300072495 0.3384297514417797	0.101947
H	0.6530327912164346 0.2063509138707725 0.4395762109089587	0.101875
H	0.6538571103016879 0.0848096573047470 0.4432868637224800	0.104752
H	0.3664507905543683 0.2923194152694203 0.2194434186249509	0.101772
H	0.4888940250642761 0.2939402459674344 0.2275240742358799	0.113901
H	0.4938812793338433 0.2140931170910603 0.9840176972001594	0.115294
H	0.3716875576205730 0.2186630766225971 0.9832442960560778	0.101730
H	0.5835641225832001 0.3497115862012941 0.1599980271805151	0.101497
H	0.7053265443503002 0.3476029672375425 0.1628430428049216	0.101853
H	0.7043519523527495 0.1526427739178471 0.0611741053170063	0.101229
H	0.5828187373366073 0.1547340501412401 0.0583470585583911	0.104815
H	0.1316641586269261 0.2156182987259043 0.2234148935148174	0.103362
H	0.0090292998380798 0.2102620856692927 0.2281887102409903	0.114517
H	0.0061879667130262 0.2870546822455304 0.9832863856809257	0.112366
H	0.1294601493693143 0.2841327203784661 0.9862202611210610	0.096345
H	0.9168188900305377 0.1509992090881525 0.1580413185308826	0.100623
H	0.7949965274414504 0.1518059431370490 0.1615660934856728	0.101914
H	0.7936485898302069 0.3469771111526893 0.0604214132528891	0.101963
H	0.9151870910752699 0.3461496756033328 0.0567055201414180	0.104671
H	0.2886289818449875 0.1313714902875245 0.2180061726179813	0.101195
H	0.2915808301086168 0.0092410383673390 0.2249051747162996	0.114832
H	0.2105544050783094 0.0057282787086267 0.9819640887901897	0.113978
H	0.2140585782468657 0.1287494555921233 0.9829779383040989	0.098925
H	0.3482837140506377 0.9163177185676793 0.1571845947934951	0.100658
H	0.3477607944082591 0.7945261333736102 0.1617919906578344	0.100643
H	0.1527472928553505 0.7938847269113677 0.0602061742818881	0.101943
H	0.1533492924359359 0.9154229553483719 0.0555089309143327	0.104603
H	0.2090447430831646 0.3664874676392625 0.2180922668668068	0.093549
H	0.2076045745086656 0.4892972044487086 0.2272006447889140	0.113631
H	0.2837434204231321 0.4940218182818747 0.9820840096611689	0.115720
H	0.2772069837980806 0.3713909795521091 0.9805139021320841	0.103521
H	0.1503274054727584 0.5841064803085239 0.1594090443172860	0.100895
H	0.1522979291657625 0.7058719010244775 0.1627848436222421	0.102756
H	0.3473334118872166 0.7038711182947991 0.0613939219829771	0.101978
H	0.3454988087347499 0.5822992513639987 0.0579602543167762	0.104779
Cd	0.2506028413237251 0.2497695795956917 0.6003711178253618	0.823742
Cd	0.7502153846709032 0.7494384853907915 0.8997041830340482	0.823579
Cd	0.7505895873109613 0.7497915148385894 0.3995897686221875	0.823740
Cd	0.2502221611899749 0.2494082797268677 0.1003649562564668	0.823521
Ga	0.2557576349697817 0.2423079046950817 0.3505702344362657	1.472764
Ga	0.7577504362846735 0.7441595219126396 0.1494378105237313	1.472667
Ga	0.7556275439424135 0.7425301338598416 0.6493861864683437	1.472585
Ga	0.2576929931319008 0.2440776168821552 0.8505716304636041	1.472967
	  	
