#======================================================================

# CRYSTAL DATA

#----------------------------------------------------------------------

data_VESTA_phase_1


_pd_phase_name                         GaFFIVE_2_Cu_i
_cell_length_a                         13.72376
_cell_length_b                         13.72375
_cell_length_c                         8.33818
_cell_angle_alpha                      89.99989
_cell_angle_beta                       90.00019
_cell_angle_gamma                      89.82267
_symmetry_space_group_name_H-M         P 1
_symmetry_Int_Tables_number            1

loop_
_symmetry_equiv_pos_as_xyz
   x, y, z

loop_
   _atom_site_label
   _atom_site_fract_x
   _atom_site_fract_y
   _atom_site_fract_z
   _atom_site_charge
C	0.0000829476888910 0.3004960205030807 0.3551190722529536	-0.157068
C	-0.0003095265598766 0.1994003584996154 0.3601487395706470	0.096385
C	0.5000834429810780 0.8005501861229626 0.8551289021624120	-0.157620
C	0.4996967386871953 0.6994530628834525 0.8602204933101236	0.096507
C	-0.0002570816186664 0.7003666980425339 0.3550682541432864	-0.157658
C	-0.0007446488288197 0.8014245746701898 0.3603016243530515	0.101526
C	0.4997394600802346 0.2003752923050331 0.8551037757210620	-0.157915
C	0.4992515455533102 0.3014357146149458 0.8603419955418570	0.101410
C	0.7003659602031134 -0.0002590123559105 0.3550658484061196	-0.157603
C	0.8014241458120052 -0.0007462051751805 0.3602997284891503	0.101516
C	0.2003774507642309 0.4997388127661161 0.8551031184890180	-0.158054
C	0.3014385734066069 0.4992511025635663 0.8603398814055394	0.101525
C	0.3004962480531424 0.0000814939510855 0.3551192306211386	-0.157158
C	0.1994003569278300 -0.0003107955417365 0.3601489331722847	0.096425
C	0.8005523128262644 0.5000818954940957 0.8551300873586111	-0.157596
C	0.6994549237474739 0.4996951520668466 0.8602201224833534	0.096609
C	0.0000827519954945 0.3004952764065280 0.6448820163748384	-0.157046
C	-0.0003098837889133 0.1993997917739794 0.6398523624752687	0.096381
C	0.5000834936786617 0.8005495094306296 0.1448711250563648	-0.157600
C	0.4996967966817282 0.6994524421488050 0.1397793357911570	0.096471
C	-0.0002572513063469 0.7003660892105088 0.6449313887459835	-0.157618
C	-0.0007448417196204 0.8014241683275513 0.6396977125324900	0.101510
C	0.4997389147090175 0.2003746352257704 0.1448969269364648	-0.157877
C	0.4992508107150264 0.3014351908885239 0.1396588020287660	0.101429
C	0.3004963669986532 0.0000816953799117 0.6448830239024543	-0.157156
C	0.1994004406369592 -0.0003106282028397 0.6398524082190913	0.096423
C	0.8005511820861916 0.5000824297036818 0.1448710042686185	-0.157549
C	0.6994547991136136 0.4996952597958036 0.1397793540813810	0.096624
C	0.7003662098379211 -0.0002591470629815 0.6449300870352467	-0.157663
C	0.8014247690041013 -0.0007467655853736 0.6396970772673406	0.101486
C	0.2003779942509113 0.4997388905373806 0.1448973326529785	-0.158017
C	0.3014391941120371 0.4992509633944963 0.1396604480213959	0.101522
C	0.0009803648415651 0.4559920232933097 0.5000001370013997	-0.087047
C	0.0005087176370096 0.3530568169461906 0.5000009388114011	0.161411
C	0.5009656808952053 0.9560367761210392 0.0000001013832449	-0.086426
C	0.5004997528357703 0.8531401354922385 0.0000002694184742	0.161668
C	0.0009986532837623 0.5448220879036644 0.4999999683360363	-0.100394
C	0.0003568665751757 0.6477229530188420 0.4999995633978983	0.162073
C	0.5009956809645286 0.0448552618876849 0.0000001386791182	-0.100903
C	0.5003582584938769 0.1477270084615566 0.0000000799162399	0.162379
C	0.5448239106467528 0.0009967734446090 0.4999977414003397	-0.100631
C	0.6477228323046093 0.0003550246789789 0.4999975038496132	0.162112
C	0.0448582109619737 0.5009955880858221 0.0000008553420148	-0.101240
C	0.1477293969455153 0.5003584016304859 0.0000001198201136	0.162535
C	0.4559920671014069 0.0009788966671956 0.5000007724080141	-0.086887
C	0.3530587119961487 0.0005071360075989 0.5000014475693287	0.161546
C	0.9560391120196284 0.5009652759987229 0.0000010768995096	-0.086176
C	0.8531430648847216 0.5004988462031765 0.0000026187016812	0.161558
H	-0.0002192285400915 0.3382116739878274 0.2401515732992188	0.120896
H	-0.0016781754350643 0.1563452971427917 0.2502853936835916	0.106459
H	0.4997757963117199 0.8381671080824379 0.7401368456747157	0.121238
H	0.4983279909225588 0.6564394513175147 0.7502899660249005	0.106258
H	-0.0005569351168319 0.6625180543265653 0.2402292212520946	0.120644
H	-0.0022803919293743 0.8454279744318658 0.2515823362396070	0.102374
H	0.4994355202895771 0.1626040341795120 0.7402034432094462	0.120794
H	0.4977138393533742 0.3454305749847727 0.7515909304658021	0.102353
H	0.6625161620649901 -0.0005591146532145 0.2402267032363391	0.120601
H	0.8454282339114165 -0.0022812573467012 0.2515812394276333	0.102365
H	0.1626057507494495 0.4994330510011418 0.7402031526699218	0.120865
H	0.3454284120522894 0.4977064675802341 0.7515828229271621	0.102357
H	0.3382120697862948 -0.0002208485559371 0.2401513761213715	0.120894
H	0.1563441575766788 -0.0016791773912877 0.2502846832770011	0.106464
H	0.8381698190253211 0.4997734900522646 0.7401384789989495	0.121223
H	0.6564383580051212 0.4983211154606485 0.7502939518330972	0.106269
H	-0.0002191173647693 0.3382106410372099 0.7598502515005602	0.120890
H	-0.0016783959350956 0.1563441250566858 0.7497162639709992	0.106443
H	0.4997758678384287 0.8381661166600318 0.2598633459370148	0.121241
H	0.4983278488668781 0.6564388093084427 0.2497100302466063	0.106288
H	-0.0005570968470650 0.6625180641900794 0.7597710936420048	0.120635
H	-0.0022805071158233 0.8454276374054681 0.7484163088045865	0.102406
H	0.4994347886236100 0.1626031195520444 0.2597967294930927	0.120777
H	0.4977127806748123 0.3454293614103297 0.2484099570818692	0.102349
H	0.3382123305064335 -0.0002206528309267 0.7598511277736069	0.120887
H	0.1563443201997453 -0.0016788858184953 0.7497163518712170	0.106449
H	0.8381691277930172 0.4997736802108351 0.2598646486558601	0.121216
H	0.6564378512634520 0.4983219860093620 0.2497054229064005	0.106246
H	0.6625167201212688 -0.0005600920146506 0.7597697905489538	0.120667
H	0.8454283088409908 -0.0022825280375283 0.7484172640093051	0.102374
H	0.1626069361666824 0.4994332522692672 0.2597969559203082	0.120868
H	0.3454289805003370 0.4977060687296947 0.2484174284684888	0.102332
Cu	0.0004807921231159 0.0004810376021202 0.5000009549706453	0.711820
Cu	0.5005083918443247 0.5005085013366656 -0.0000010075069310	0.712167
Ga	-0.0004289428710866 -0.0004303757999579 -0.0000004272515244	1.443479
Ga	0.4998071835089529 0.4998083940022970 0.4999984813988059	1.447184
N	-0.0002253970229072 0.1498911902063393 0.5000004492548985	-0.217915
N	0.4997844820263179 0.6499174780434112 -0.0000001612320113	-0.217464
N	-0.0004523381839762 0.8510000292296823 0.4999996556016699	-0.216154
N	0.4995540073509961 0.3510512634748418 0.0000004570616967	-0.215872
N	0.8510002001467513 -0.0004537722661768 0.4999985994728336	-0.216079
N	0.3510538076801996 0.4995545373548431 0.0000001723396378	-0.215972
N	0.1498908352793492 -0.0002259879848094 0.5000003856297797	-0.217893
N	0.6499186725239937 0.4997834106086912 0.0000001985980608	-0.217599
F	0.0002478100464129 0.0002461903449789 0.7685813914519941	-0.577798
F	0.5005126222137745 0.5004910016520071 0.2686281873237283	-0.578726
F	0.0002474640476048 0.0002484467500024 0.2314168132945804	-0.577810
F	0.5005144005792047 0.5004964964989329 0.7313701447241474	-0.578726
F	0.6290751914919026 0.4636036046271491 0.4999942721053747	-0.576282
F	0.4637749152835749 0.6290962926548169 0.4999932058844614	-0.576314
F	0.4051391118663690 0.4054527931891627 0.5000077468683628	-0.587511
F	0.9049047738901946 0.9049104208342875 -0.0000015507768678	-0.587014
F	0.9634826361545684 0.1290520230981952 0.0000018606189638	-0.575884
F	0.1290513747429433 0.9634752311800534 0.0000016101911167	-0.575882
	  	
