#======================================================================

# CRYSTAL DATA

#----------------------------------------------------------------------

data_VESTA_phase_1


_pd_phase_name                         GaFFIVE_7_Fe
_cell_length_a                         19.43745
_cell_length_b                         19.43751
_cell_length_c                         7.94927
_cell_angle_alpha                      90.01016
_cell_angle_beta                       89.98860
_cell_angle_gamma                      90.01242
_symmetry_space_group_name_H-M         P 1
_symmetry_Int_Tables_number            1

loop_
_symmetry_equiv_pos_as_xyz
   x, y, z

loop_
   _atom_site_label
   _atom_site_fract_x
   _atom_site_fract_y
   _atom_site_fract_z
   _atom_site_charge
C	0.6630926812046292 0.8733857973761753 0.6983174278054612	0.098308
C	0.6128492489487027 0.9242509693234039 0.7026577459286614	-0.180252
C	0.5783008094781295 0.8895339424163984 0.4257942437390688	-0.175980
C	0.6293237282874455 0.8397000149164503 0.4314369483068310	0.102441
C	0.8370594814037152 0.6265949496088450 0.6982331197018787	0.105905
C	0.8871926181501659 0.5757040198768781 0.7030440388649131	-0.182581
C	0.9217378096523716 0.6104316696387410 0.4261826868917410	-0.175491
C	0.8707662775034739 0.6604184023680446 0.4313723718192710	0.095888
C	0.6263740314124366 0.6628343130336904 0.6983539879971482	0.101254
C	0.5754930592057125 0.6126311394436463 0.7029015776735156	-0.180473
C	0.6102889630526060 0.5780680942380447 0.4261755445867282	-0.175687
C	0.6602305008636824 0.6290328548969750 0.4316504617012766	0.097527
C	0.8734490875774966 0.8364286066188675 0.6979089160855360	0.102505
C	0.9241897270926954 0.8867941222591535 0.7026822473441992	-0.180443
C	0.8891928202964052 0.9216414702614827 0.4261322605564353	-0.174593
C	0.8391132977250076 0.8707739216628221 0.4317851719107323	0.098268
C	0.3364302483806652 0.3734530699553266 0.3020977576620387	0.102377
C	0.3867945148435007 0.4241923468622251 0.2973229600285512	-0.180382
C	0.4216394994794987 0.3891926835720005 0.5738740831796731	-0.174712
C	0.3707728993866234 0.3391131430207036 0.5682279487140238	0.098367
C	0.1628352615505141 0.1263773074644834 0.3016456442853535	0.101152
C	0.1126310237673644 0.0754951962723718 0.2970996488443178	-0.180398
C	0.0780657726627037 0.1102876199283905 0.5738253800656971	-0.175748
C	0.1290319186255486 0.1602292535916400 0.5683437244904498	0.097584
C	0.3733857170401866 0.1630939718946459 0.3016822576339315	0.098299
C	0.4242482083083077 0.1128504766524656 0.2973417935673145	-0.180188
C	0.3895322642075502 0.0782999476643800 0.5742100353036610	-0.176065
C	0.3396986378498829 0.1293258402129256 0.5685666897440572	0.102493
C	0.1265957288318519 0.3370598768844211 0.3017688987869074	0.105957
C	0.0757025959472347 0.3871929705093498 0.2969572512574331	-0.182646
C	0.1104300522483476 0.4217352604384465 0.5738137565205560	-0.175584
C	0.1604167813214437 0.3707666611062309 0.5686255177126877	0.095938
C	0.4338815295856292 0.0690983471658710 0.4360580605143176	0.138337
C	0.4873343700630124 0.0165369260979936 0.4316883587518262	-0.124383
C	0.0661017338503446 0.4309720795343458 0.4357137290591169	0.139839
C	0.0126142663314904 0.4834961774511680 0.4315068480397938	-0.124582
C	0.4307183284822610 0.4336659982673460 0.4358832730029600	0.139912
C	0.4832946109092332 0.4871613386908817 0.4316051100580679	-0.126866
C	0.0688611942850509 0.0659184388057258 0.4357933399214031	0.136802
C	0.0163245043976503 0.0124500133217569 0.4315716292772538	-0.121565
C	0.5659188469024555 0.5688626556978462 0.5642090138352372	0.136831
C	0.5124483883799931 0.5163262549902956 0.5684318954427207	-0.121765
C	0.9336654394555292 0.9307190837311933 0.5641212138653698	0.139891
C	0.9871593373454909 0.9832946522720972 0.5683945346310361	-0.126998
C	0.5690974284616390 0.9338828665158502 0.5639433205427326	0.138414
C	0.5165349111911083 0.9873350483950402 0.5683126926203277	-0.124338
C	0.9309720112900004 0.5661023262258966 0.5642849320190867	0.139640
C	0.9834951522927642 0.5126141878130797 0.5684932319274840	-0.124572
H	0.6970601679088857 0.8648493310235738 0.8057022132459806	0.099206
H	0.6080088031586681 0.9568669593900250 0.8137486641211480	0.114590
H	0.5449612578959961 0.8925265008838378 0.3158901073550733	0.113414
H	0.6376867396170970 0.8045639673897980 0.3267185273523331	0.090134
H	0.8026089292240908 0.6352621715224612 0.8042207051739706	0.090217
H	0.8920545563791611 0.5430824280414520 0.8139983952054798	0.113659
H	0.9550594516741685 0.6075175015810600 0.3161176949050126	0.115158
H	0.8626709191745529 0.6952692700561897 0.3254504002379762	0.098005
H	0.6354443190769105 0.6963384660412366 0.8058679247727979	0.096725
H	0.5429875571318489 0.6077513834416787 0.8141067043937674	0.113991
H	0.6072991565851767 0.5449002293812505 0.3159195693919626	0.114672
H	0.6945185934423970 0.6377590720177611 0.3254505818200488	0.097756
H	0.8655199847421133 0.8013344265257215 0.8033933043222224	0.093607
H	0.9569649635092335 0.8916086177915764 0.8134583162943979	0.113620
H	0.8920966094809396 0.9551342351861154 0.3164273106332592	0.113508
H	0.8032105005765546 0.8632136381901430 0.3278109963043397	0.093215
H	0.3013369130846330 0.3655226761683628 0.1966170801388743	0.093583
H	0.3916111325509217 0.4569652565729782 0.1865471303561868	0.113602
H	0.4551326027802163 0.3920967724813075 0.6835717392289350	0.113518
H	0.3632132709454597 0.3032116768337091 0.6722082882553571	0.093158
H	0.1963398267202015 0.1354455906866121 0.1941298084642890	0.096752
H	0.1077520458595606 0.0429888583845725 0.1858951531475558	0.113952
H	0.0448979440690181 0.1072984603379781 0.6840861400423119	0.114687
H	0.1377593576280354 0.1945167527517205 0.6745393954797906	0.097709
H	0.3648480039535694 0.1970619415188593 0.1942999842490009	0.099214
H	0.4568656285372948 0.1080107910095738 0.1862518906395468	0.114602
H	0.3925263386224335 0.0449604301001628 0.6841194181441269	0.113460
H	0.3045623574140048 0.1376854913582384 0.6732892780640126	0.090164
H	0.1352611459340780 0.3026107551738980 0.1957804499397516	0.090186
H	0.0430826278067174 0.3920564576521909 0.1860017115897332	0.113644
H	0.1075168654579510 0.4550573161501083 0.6838717982128925	0.115128
H	0.1952672814569769 0.3626683896175618 0.6745427349247521	0.097989
H	0.5058480535178176 0.0022259718989700 0.3063360450138810	0.101464
H	0.9940876721243215 0.4979280385230028 0.3062579367734155	0.101206
H	0.4977045551929817 0.5056913426921246 0.3063295244305769	0.101928
H	0.0019773267321429 0.9939169713447450 0.3062602284824500	0.100724
H	0.4939123326916175 0.5019753310494756 0.6937456086083019	0.100785
H	0.0056863080664814 0.9977022293268164 0.6936677013198748	0.101954
H	0.5022256174003185 0.0058501711249905 0.6936649742991563	0.101431
H	0.9979275968679351 0.4940888522718013 0.6937416370870220	0.101231
Fe	0.2497562504036499 0.2498080024552633 0.4339992059822142	0.797175
Fe	0.7498022167275471 0.7497496100199693 0.5660090405356721	0.797083
Ga	0.2508920521749480 0.2510917130994972 0.9344319473089485	1.460560
Ga	0.7511060387783598 0.7508834509163926 0.0655638106588262	1.460619
F	0.2508757654923097 0.2493952734172923 0.1813786218650321	-0.528450
F	0.2488241210056664 0.2508799213113498 0.6873142066214840	-0.528973
F	0.7494020533096925 0.7508849557403866 0.8186162442306644	-0.528448
F	0.7508810515456320 0.7488206918106146 0.3126726841023249	-0.528923
F	0.1838336069435011 0.1854871692017918 0.9350534493200821	-0.577535
F	0.2288212667041432 0.3422840351455916 0.9379788660165296	-0.578696
F	0.3415310379661646 0.2269527073376216 0.9299956352967905	-0.578361
F	0.7269478365491354 0.8415200518607991 0.0699979614429184	-0.578475
F	0.8422920852616981 0.7288260490992834 0.0619803853016325	-0.578651
F	0.6855077065854325 0.6838168630629465 0.0649091337747333	-0.577544
N	0.3313873268859115 0.1713650101466993 0.4351594066490383	-0.243957
N	0.1686073884582715 0.3287093944702478 0.4348012866560773	-0.243648
N	0.3284486867042699 0.3311758845262525 0.4349999368484440	-0.242187
N	0.1711082890969606 0.1684306846291526 0.4347752396724170	-0.246485
N	0.6684290470191470 0.6711068036336189 0.5652229874314668	-0.246493
N	0.8311726214986146 0.8284467272957743 0.5650088800122206	-0.242330
N	0.6713630179239255 0.8313866866725369 0.5648464100083107	-0.243854
N	0.8287076314430045 0.6686069817072878 0.5651939116238229	-0.243612
	  	
