#======================================================================

# CRYSTAL DATA

#----------------------------------------------------------------------

data_VESTA_phase_1


_pd_phase_name                         GaFFIVE_5_Zn_i
_cell_length_a                         19.99047
_cell_length_b                         19.99045
_cell_length_c                         15.73999
_cell_angle_alpha                      89.99976
_cell_angle_beta                       89.99992
_cell_angle_gamma                      89.98376
_symmetry_space_group_name_H-M         P 1
_symmetry_Int_Tables_number            1

loop_
_symmetry_equiv_pos_as_xyz
   x, y, z

loop_
   _atom_site_label
   _atom_site_fract_x
   _atom_site_fract_y
   _atom_site_fract_z
   _atom_site_charge
F	0.2871186060242943 0.1656575512994381 0.3516089939127217	-0.588785
F	0.1598365294597580 0.2634085258064279 0.3511249100127175	-0.599130
F	0.3084176379929965 0.3220990095780282 0.3512292481037371	-0.594912
F	0.6779018520596369 0.6915839329608882 0.1487592630221873	-0.594967
F	0.7365896846338290 0.8401635588908278 0.1488843980955012	-0.599131
F	0.8343389201795812 0.7128732713016583 0.1483855738512932	-0.588831
F	0.6598417517044305 0.7634178057828743 0.6488833479511522	-0.599170
F	0.7871145933155754 0.6656600437494992 0.6483909171165150	-0.588814
F	0.8084202343472769 0.8221061769449284 0.6487754118474922	-0.594954
F	0.1779056729580303 0.1915851041164932 0.8512436309494263	-0.595006
F	0.3343418873813414 0.2129012218603087 0.8516282574530452	-0.588823
F	0.2365710710452947 0.3401646848663530 0.8511113726617168	-0.599176
F	0.2497381936579028 0.2498646143844069 0.4728257372362224	-0.548439
F	0.2498458669746418 0.2496635210473145 0.2295457120868797	-0.549687
F	0.7501431962463054 0.7502785969537173 0.0271741829128245	-0.548583
F	0.7503398207230996 0.7501516116068502 0.2704484040588071	-0.549744
F	0.7497375657223935 0.7498690763493195 0.5271762285045243	-0.548480
F	0.7498473354903362 0.7496601621427028 0.7704555285634306	-0.549695
F	0.2501419765952121 0.2502772977304413 0.9728221681746890	-0.548556
F	0.2503501360942846 0.2501471476438130 0.7295468774525772	-0.549733
N	0.3579297218581395 0.2475905670938178 0.6005157971889625	-0.228704
N	0.1421991177117316 0.2525460357836133 0.6017039360972517	-0.225910
N	0.2524640498270826 0.3578097863951513 0.6010667690447384	-0.227064
N	0.2474373348298372 0.1420850698578807 0.6020159730127022	-0.229183
N	0.6421901046491446 0.7475348882979860 0.8989338029935698	-0.227019
N	0.8579143407026348 0.7525617837420301 0.8979830611899184	-0.229112
N	0.7474549508556493 0.8578007771135785 0.8982936441050303	-0.225822
N	0.7524110669538590 0.6420698742982529 0.8994858396172645	-0.228707
N	0.6421987358104769 0.7525452330608621 0.3982958488914001	-0.225883
N	0.8579300839091432 0.7475893140533909 0.3994847767086019	-0.228665
N	0.7474374419961738 0.6420857274053400 0.3979838822366316	-0.229176
N	0.7524637786261957 0.8578097663952904 0.3989332169922167	-0.227140
N	0.3579136555689487 0.2525617614278085 0.1020168642701684	-0.229149
N	0.1421895669326183 0.2475350060018042 0.1010663540094287	-0.227058
N	0.2524110964527108 0.1420697345879223 0.1005140114128277	-0.228663
N	0.2474540710949156 0.3578006782539934 0.1017054723295044	-0.225904
C	0.3909321980332295 0.2182825115205661 0.6651213571010214	0.100084
C	0.4603578280917601 0.2166144094681847 0.6688816428899031	-0.182015
C	0.4981620746747603 0.2470685227696068 0.6045148385081951	0.104804
C	0.4628452876452051 0.2775181335029668 0.5377371799874784	-0.187200
C	0.3932843044466818 0.2764651402088897 0.5376001281314404	0.100572
C	0.5717812423558220 0.2478197700781350 0.6078984039143834	0.055561
C	0.6077129391181391 0.1919637748352360 0.6373191317929634	-0.131277
C	0.6772367016238082 0.1927401792690963 0.6399879670469700	-0.123071
C	0.7132250406273898 0.2498099727015012 0.6149392147125053	0.066907
C	0.6772491040672816 0.3060269515074887 0.5869392436212731	-0.118000
C	0.6077819760186128 0.3048051824634825 0.5826332253272284	-0.128509
C	0.1091317312996909 0.2818208742880300 0.6661760719467540	0.103155
C	0.0397205412670678 0.2833731710579383 0.6700493789194334	-0.183223
C	0.0019409585009098 0.2527642410041452 0.6056720408918714	0.108410
C	0.0373028992575874 0.2225324922654285 0.5388498664278456	-0.181723
C	0.1068061787974662 0.2238317082178286 0.5388236058977086	0.106418
C	0.9282978640368974 0.2521412099742968 0.6085395860243311	0.054425
C	0.8923113011150297 0.3080693791923130 0.6376049069399853	-0.130786
C	0.8227872813086156 0.3073043282917067 0.6399979328769695	-0.123030
C	0.7868408445575145 0.2502320647023219 0.6149427528699267	0.067475
C	0.8228482328774019 0.1940349588833123 0.5869637338052823	-0.118438
C	0.8923234224305547 0.1952227402869659 0.5829428084065209	-0.126994
C	0.2817050224680102 0.3909021956856553 0.6655109463767498	0.108944
C	0.2834068626351471 0.4602995828074216 0.6692895057145977	-0.180544
C	0.2529741564137528 0.4980822579963890 0.6048457627426820	0.107203
C	0.2225673376653843 0.4627180384344927 0.5380878002963806	-0.185099
C	0.2236701967294540 0.3932019969980589 0.5382408538609913	0.105429
C	0.2522203700672298 0.5717153839070420 0.6080484405444764	0.055186
C	0.3080769428460477 0.6076568792286013 0.6373835745950646	-0.131262
C	0.3072819194254027 0.6771750890921201 0.6399762747269739	-0.123311
C	0.2502108891820896 0.7131606268782780 0.6149055670744795	0.068073
C	0.1940167518239009 0.6771912026589806 0.5869302731075325	-0.118255
C	0.1952387088980168 0.6077196942712930 0.5827102517089233	-0.127900
C	0.2181250965038646 0.1090611434961974 0.6666156271555725	0.098732
C	0.2165660781510118 0.0396048538723297 0.6702033853545182	-0.183858
C	0.2471662505944837 0.0018616326070339 0.6057814544588478	0.104611
C	0.2774196298086141 0.0372348420415573 0.5390159688097432	-0.182518
C	0.2761754115591873 0.1067706616970317 0.5389417296002033	0.098586
C	0.2478119394300149 0.9282278575655166 0.6085771637818012	0.054645
C	0.1918930572707010 0.8922572153339402 0.6376340531209613	-0.130977
C	0.1926721155050283 0.8227293830489473 0.6399921176823214	-0.123339
C	0.2497623783872913 0.7867744918689714 0.6149140326555042	0.067095
C	0.3059648295559215 0.8227756833194090 0.5869530051920306	-0.118389
C	0.3047448169607976 0.8922532068243260 0.5829553375372178	-0.127918
C	0.6090975211809538 0.7182943088695269 0.8344893543704199	0.108948
C	0.5397002377785463 0.7165929809870585 0.8307102264695098	-0.180559
C	0.5019177448138177 0.7470256396954962 0.8951539484856373	0.107115
C	0.5372818376305976 0.7774323270492206 0.9619119564310311	-0.185065
C	0.6067978268851488 0.7763291740791314 0.9617593781070034	0.105403
C	0.4282844287036730 0.7477793754935556 0.8919510657246624	0.055235
C	0.3923426427910565 0.6919230317854448 0.8626159166981534	-0.131187
C	0.3228245291590540 0.6927177672193450 0.8600232250484942	-0.123341
C	0.2868389000511488 0.7497886299601455 0.8850939171024208	0.067973
C	0.3228083738978972 0.8059827497078375 0.9130692588894457	-0.118241
C	0.3922797249625718 0.8047607470004630 0.9172892017003300	-0.127925
C	0.8909384189425811 0.7818742536277037 0.8333833391399957	0.098674
C	0.9603948278436288 0.7834332156188520 0.8297961424265862	-0.183865
C	0.9981378589152452 0.7528334499542032 0.8942183149503199	0.104624
C	0.9627649033557529 0.7225801532956632 0.9609844941498060	-0.182639
C	0.8932292556313920 0.7238238935571710 0.9610580817709522	0.098591
C	0.0717717799586004 0.7521877120005643 0.8914225572815050	0.054769
C	0.1077422827099463 0.8081065569111373 0.8623655835301172	-0.130974
C	0.1772699771006491 0.8073275407920282 0.8600073810136717	-0.123426
C	0.2132248660235099 0.7502370942943016 0.8850854623825612	0.067178
C	0.1772237699300209 0.6940345809433823 0.9130466989635474	-0.118450
C	0.1077463988707937 0.6952548274123679 0.9170444426453074	-0.127944
C	0.7181798011271038 0.8908683490256120 0.8338219272700766	0.103105
C	0.7166269953028339 0.9602800224480713 0.8299492649836270	-0.183170
C	0.7472356301979735 0.9980585136043073 0.8943265375593923	0.108335
C	0.7774681009079822 0.9626967489183981 0.9611496863023798	-0.181710
C	0.7761691315511892 0.8931939629309887 0.9611754485465317	0.106370
C	0.7478589017396708 0.0717018776439251 0.8914596961440056	0.054446
C	0.6919305283231110 0.1076887243688752 0.8623947968448838	-0.130777
C	0.6926953247074958 0.1772126899551245 0.8600020195203346	-0.123059
C	0.7497677889284149 0.2131586397706265 0.8850570356005457	0.067349
C	0.8059650542158010 0.1771513903748763 0.9130363653817239	-0.118425
C	0.8047769170055362 0.1076760992840604 0.9170579281892371	-0.126926
C	0.7817180346838707 0.6090672729960479 0.8348792807680901	0.100102
C	0.7833853450177829 0.5396417046653871 0.8311181394367788	-0.182013
C	0.7529312501854354 0.5018374566251903 0.8954847199576211	0.104745
C	0.7224821303991454 0.5371536843282398 0.9622627950362894	-0.187144
C	0.7235363712650924 0.6067148327925521 0.9624011638380454	0.100522
C	0.7521799950844027 0.4282177346270339 0.8921011792520083	0.055703
C	0.8080361066106576 0.3922865049403378 0.8626807084546363	-0.131272
C	0.8072598245901046 0.3227630298175866 0.8600120572156829	-0.123109
C	0.7501899210967571 0.2867748070545026 0.8850605715996245	0.066988
C	0.6939728775907535 0.3227503881534241 0.9130603683303412	-0.118064
C	0.6951946397049815 0.3922173561033552 0.9173662996436884	-0.128637
C	0.6091318840431859 0.7818202518860280 0.3338235559025874	0.103164
C	0.5397208307986181 0.7833724184299221 0.3299502487856980	-0.183287
C	0.5019414051471841 0.7527637998622011 0.3943279471221351	0.108444
C	0.5373030944640845 0.7225317316688289 0.4611504586435644	-0.181754
C	0.6068061292397804 0.7238309250039827 0.4611766966235505	0.106355
C	0.4282983236141168 0.7521405874487785 0.3914604994252148	0.054444
C	0.3923116368661166 0.8080691468723327 0.3623953315232416	-0.130720
C	0.3227875702756563 0.8073046402957561 0.3600021939021328	-0.123075
C	0.2868412936002611 0.7502319286861775 0.3850569829441068	0.067434
C	0.3228482653923559 0.6940344205251749 0.4130364322011085	-0.118478
C	0.3923234391780532 0.6952222434219459 0.4170574044099834	-0.127020
C	0.8909329732420859 0.7182817393775894 0.3348790370865433	0.100053
C	0.9603584319518760 0.7166141834244567 0.3311179709886778	-0.181936
C	0.9981623280251073 0.7470680582279535 0.3954841901203221	0.104831
C	0.9628458429739742 0.7775171828466761 0.4622618558678611	-0.187253
C	0.8932849263504100 0.7764637937149488 0.4623998514285465	0.100523
C	0.0717819592273012 0.7478195377412281 0.3921009428307307	0.055524
C	0.1077137042766592 0.6919636694834309 0.3626805458424530	-0.131307
C	0.1772372439665429 0.6927399884345624 0.3600119009987885	-0.123001
C	0.2132251923228168 0.7498098407864157 0.3850603810944280	0.066890
C	0.1772494053654135 0.8060268062773758 0.4130602062183910	-0.118036
C	0.1077824421876766 0.8048048609414458 0.4173659644426094	-0.128499
C	0.7181250505785182 0.6090620222489369 0.3333842989418799	0.098658
C	0.7165664362369238 0.5396055111694344 0.3297967435358860	-0.183754
C	0.7471663619733988 0.5018621232762694 0.3942183070606274	0.104552
C	0.7774197907288415 0.5372349455764103 0.4609840766264300	-0.182571
C	0.7761757876920887 0.6067706129493229 0.4610583390681902	0.098565
C	0.7478119823227658 0.4282282346634922 0.3914223830482311	0.054776
C	0.6918932962718209 0.3922576476032913 0.3623655454240505	-0.130976
C	0.6926722779855025 0.3227297596663586 0.3600074109904410	-0.123405
C	0.7497624990840575 0.2867746933714944 0.3850854137509842	0.067149
C	0.8059648991796553 0.3227757101714518 0.4130464290094630	-0.118394
C	0.8047446336722468 0.3922532632635660 0.4170441182969929	-0.127996
C	0.7817053759978357 0.8909025393411129 0.3344893867114140	0.108977
C	0.7834070477743532 0.9602998454050937 0.3307105406959396	-0.180528
C	0.7529743688688249 0.9980819808489410 0.3951541523552127	0.107212
C	0.7225674139764026 0.9627176294699019 0.4619120803965909	-0.185092
C	0.7236696317004085 0.8932016421667981 0.4617590494765058	0.105429
C	0.7522204705935364 0.0717150929341873 0.3919512394336993	0.055182
C	0.8080768616377967 0.1076570550933944 0.3626161444238576	-0.131230
C	0.8072820674312323 0.1771752997875657 0.3600232802153056	-0.123331
C	0.7502109759949375 0.2131606508154913 0.3850938876763639	0.067998
C	0.6940167867261344 0.1771910935853297 0.4130691923356855	-0.118249
C	0.6952389335603667 0.1077195561533609 0.4172892219429842	-0.127866
C	0.3909380666579174 0.2818742237354511 0.1666159282396227	0.098717
C	0.4603944100536701 0.2834331150611428 0.1702033194800399	-0.183836
C	0.4981376935864766 0.2528332598288646 0.1057815172655066	0.104583
C	0.4627647458177001 0.2225802731755238 0.0390157459607939	-0.182548
C	0.3932288708825077 0.2238241063289035 0.0389422355388432	0.098533
C	0.5717716786228064 0.2521875793107404 0.1085770829212265	0.054768
C	0.6077422214629205 0.3081063426656987 0.1376339279186862	-0.130888
C	0.6772699281637873 0.3073272799939493 0.1399921115507386	-0.123540
C	0.7132249518964815 0.2502370697210215 0.1149140882729531	0.067227
C	0.6772238980859916 0.1940347230454331 0.0869529484473505	-0.118386
C	0.6077465390388244 0.1952548208417968 0.0829552569751301	-0.127967
C	0.1090971227225409 0.2182942142746880 0.1655107744406908	0.108971
C	0.0396998287871093 0.2165928748074122 0.1692896102892197	-0.180540
C	0.0019176882215521 0.2470255383448345 0.1048455400872968	0.107225
C	0.0372822361709235 0.2774330395452581 0.0380878929573090	-0.185105
C	0.1067981126076614 0.2763294976782718 0.0382404217690765	0.105397
C	0.9282845455892392 0.2477792764207024 0.1080483871778036	0.055185
C	0.8923427104389651 0.1919226781344469 0.1373837013174733	-0.131233
C	0.8228246011687073 0.1927176538316744 0.1399762397041305	-0.123342
C	0.7868390127665679 0.2497887024461385 0.1149056073004945	0.068009
C	0.8228085755719974 0.3059828827764290 0.0869303118024633	-0.118264
C	0.8922799432955004 0.3047609231486985 0.0827102426871443	-0.127894
C	0.2817187723623498 0.1090673301454291 0.1651202564667967	0.100049
C	0.2833858313265767 0.0396414736225012 0.1688813042980749	-0.182023
C	0.2529314821746331 0.0018374004668177 0.1045153501807771	0.104838
C	0.2224825926191470 0.0371542677076061 0.0377370578526220	-0.187145
C	0.2235363972893933 0.1067151600324535 0.0375987366820014	0.100476
C	0.2521799820619873 0.9282181654379559 0.1078990898030498	0.055618
C	0.3080358819365325 0.8922864272296306 0.1373194836515824	-0.131254
C	0.3072594929688832 0.8227627606974238 0.1399881791341289	-0.123056
C	0.2501898049886316 0.7867745718928714 0.1149393818080327	0.067008
C	0.1939729387447342 0.8227505832073534 0.0869394003466167	-0.118039
C	0.1951947831210201 0.8922176641227996 0.0826335760952315	-0.128536
C	0.2181795850488690 0.3908682550594104 0.1661772588511181	0.103152
C	0.2166269306992624 0.4602790961931021 0.1700500502535316	-0.183206
C	0.2472354043068078 0.4980585348076043 0.1056721142903301	0.108425
C	0.2774672162445228 0.4626965620359786 0.0388500318501643	-0.181791
C	0.2761679543218264 0.3931933415483765 0.0388246699497315	0.106424
C	0.2478586776440391 0.5717016059463569 0.1085393807632062	0.054426
C	0.1919302959614309 0.6076882479323448 0.1376045667958240	-0.130774
C	0.1926953030146309 0.6772122682809678 0.1399977743127946	-0.123058
C	0.2497677590102280 0.7131585137720668 0.1149427169409554	0.067330
C	0.3059650637179652 0.6771513925542526 0.0869634265054305	-0.118495
C	0.3047771920605956 0.6076762627821249 0.0829424723224009	-0.126843
H	0.3605407336858345 0.1977681876684896 0.7165515337418050	0.102490
H	0.4845696659607399 0.1936327854098847 0.7236217571634027	0.114472
H	0.4892901790521148 0.3010554595961399 0.4850740418413658	0.112590
H	0.3644038094424187 0.2986751282767944 0.4857586982545217	0.099646
H	0.5806353316591127 0.1471061380318447 0.6568866672818825	0.099642
H	0.7042749677532935 0.1489225519939956 0.6629449251465912	0.100273
H	0.7042430754554050 0.3504192535457963 0.5657616639188536	0.100981
H	0.5808325410290939 0.3489469712219602 0.5604177741370987	0.103376
H	0.1400176478277740 0.3036527308024823 0.7161570878067973	0.095235
H	0.0152544557924914 0.3067472572054407 0.7243062096068772	0.111692
H	0.0109775951844823 0.1995802711952883 0.4857042399958930	0.113946
H	0.1356733242306471 0.2029992137044264 0.4863464598865996	0.098993
H	0.9193098799662482 0.3530219587890747 0.6570216018792207	0.099673
H	0.7957245575933353 0.3511425316447241 0.6628229768611874	0.101142
H	0.7958892441405681 0.1496520568174404 0.5656973672410898	0.101452
H	0.9192794704838807 0.1510846787135622 0.5606998718332462	0.103392
H	0.3023304944691167 0.3602423409407346 0.7164106041667216	0.096948
H	0.3062960970249157 0.4846188103223411 0.7239692892274012	0.113864
H	0.1991821667243295 0.4891398419406486 0.4853141687758377	0.112359
H	0.2015094052368408 0.3640892633740953 0.4867943027738523	0.094592
H	0.3529811213503320 0.5805988128211469 0.6569079710994581	0.099524
H	0.3510939923417545 0.7042109765656626 0.6628883520994582	0.100972
H	0.1496245012136265 0.7041893475696382 0.5657326969777773	0.101032
H	0.1510681931000807 0.5808068027011477 0.5605374265515498	0.103384
H	0.1964699805150179 0.1396577817148687 0.7172202573175210	0.100320
H	0.1930933659811991 0.0151542186106496 0.7244225476349372	0.112477
H	0.3005130693293295 0.0109683818794355 0.4858807924328161	0.113706
H	0.2970543024325142 0.1354268626225187 0.4860881723994321	0.103332
H	0.1469780987963600 0.9193061327368911 0.6570987513907779	0.099967
H	0.1488425022940789 0.7956763607137530 0.6628350655542743	0.100722
H	0.3503654378491016 0.7958043508505476 0.5656919939844273	0.101281
H	0.3488431246205095 0.9192215334110609 0.5606838402706120	0.103957
H	0.6397574861810364 0.6976695370815200 0.7835897411196346	0.096982
H	0.5153810612701837 0.6937041085412242 0.7760304880867798	0.113858
H	0.5108602780965636 0.8008174748289556 0.0146852678249787	0.112349
H	0.6359107718969415 0.7984900952307366 0.0132057892722617	0.094591
H	0.4194007106315306 0.6470189714518609 0.8430916947368640	0.099516
H	0.2957887245417080 0.6489057124047923 0.8371112222893128	0.100969
H	0.2958102521616197 0.8503749327613430 0.9342668882368680	0.101061
H	0.4191925997099077 0.8489311499037768 0.9394622053421017	0.103391
H	0.8603418075145201 0.8035296616604251 0.7827785640234166	0.100325
H	0.9848452165613713 0.8069061104414711 0.7755769384566419	0.112474
H	0.9890315862397290 0.6994865695983503 0.0141197359446481	0.113742
H	0.8645733622532481 0.7029448480144312 0.0139114826885606	0.103342
H	0.0806933818807761 0.8530215575909835 0.8429009594544239	0.099973
H	0.2043230980194364 0.8511572136251856 0.8371644577281749	0.100753
H	0.2041952379089819 0.6496338927909170 0.9343077557286057	0.101284
H	0.0807781097893049 0.6511566449661825 0.9393161350710271	0.103958
H	0.6963477654311874 0.8599824601103596 0.7838419804111885	0.095222
H	0.6932520248536849 0.9847454949705611 0.7756926157228259	0.111696
H	0.8004191280880119 0.9890222794890176 0.0142955031507652	0.113963
H	0.7970007428473137 0.8643265783607497 0.0136525456162054	0.098993
H	0.6469780855789354 0.0806900252806476 0.8429782144850415	0.099667
H	0.6488573425262411 0.2042754940763987 0.8371768343290359	0.101184
H	0.8503482103882024 0.2041105338064003 0.9343025400765528	0.101430
H	0.8489149365453734 0.0807201626171807 0.9392998074036114	0.103391
H	0.8022317870841092 0.6394588451709844 0.7834482221519365	0.102500
H	0.8063662579778246 0.5154299086189763 0.7763775183372706	0.114455
H	0.6989448342510108 0.5107082525373342 0.0149259031633846	0.112576
H	0.7013266833039380 0.6355948744291496 0.0142434943227425	0.099647
H	0.8528933758347076 0.4193640843715071 0.8431130836994897	0.099645
H	0.8510771413128854 0.2957245326756042 0.8370550645869143	0.100274
H	0.6495806828079496 0.2957561725554079 0.9342380948903743	0.101055
H	0.6510529668707012 0.4191666571380485 0.9395813596144895	0.103405
H	0.6400178889237121 0.8036522887139053 0.2838425004379627	0.095212
H	0.5152550841087511 0.8067470970888235 0.2756933914353366	0.111723
H	0.5109774873355233 0.6995799999442718 0.5142962412353386	0.113933
H	0.6356730378864693 0.7029980848745018 0.5136545130734474	0.099042
H	0.4193102720456257 0.8530216335096491 0.3429787712251082	0.099675
H	0.2957248205128630 0.8511431159842747 0.3371771636141162	0.101174
H	0.2958887869218818 0.6496514967579230 0.4343023453288083	0.101483
H	0.4192791807381119 0.6510840301740234 0.4393000268749016	0.103404
H	0.8605418384924156 0.6977668564626980 0.2834481185910389	0.102492
H	0.9845701276602573 0.6936331441571688 0.2763777910162751	0.114441
H	0.9892909224365291 0.8010542590544211 0.5149246557773803	0.112614
H	0.8644048353341292 0.7986737269088152 0.5142421976265710	0.099668
H	0.0806361906825671 0.6471062877491975 0.3431131486409548	0.099652
H	0.2042757969467987 0.6489226971513818 0.3370549077735369	0.100246
H	0.2042434169637305 0.8504189360652169 0.4342380365524747	0.101015
H	0.0808329316562028 0.8489462913670324 0.4395812770958961	0.103400
H	0.6964700118213694 0.6396585936672489 0.2827790403453470	0.100372
H	0.6930939434856213 0.5151556296261826 0.2755772748418138	0.112442
H	0.8005130881270346 0.5109679641457773 0.5141188739699724	0.113718
H	0.7970545260149642 0.6354263059830383 0.5139123360171226	0.103351
H	0.6469781422184785 0.4193063683811709 0.3429007973534968	0.099967
H	0.6488426019962946 0.2956766939804372 0.3371645356237445	0.100741
H	0.8503655424985389 0.2958041464280283 0.4343077037517682	0.101285
H	0.8488429365197706 0.4192213016530421 0.4393159187912412	0.103984
H	0.8023306495130781 0.8602431389939700 0.2835891597928565	0.096943
H	0.8062960266804305 0.9846189635485308 0.2760306922680297	0.113851
H	0.6991822325980351 0.9891388290460590 0.5146855557213759	0.112375
H	0.7015083417350544 0.8640891179398679 0.5132061815594489	0.094575
H	0.8529810725162168 0.0805990441045902 0.3430917503655065	0.099524
H	0.8510942742300955 0.2042111683224996 0.3371111664373734	0.100981
H	0.6496244139299385 0.2041891673982844 0.4342668795239303	0.101043
H	0.6510682494288798 0.0808066924723102 0.4394622642440403	0.103359
H	0.3603415596102628 0.3035295388994451 0.2172208023575106	0.100310
H	0.4848448229828423 0.3069057841251808 0.2244220407091347	0.112460
H	0.4890316828391638 0.1994869796815670 0.9858806039074454	0.113714
H	0.3645732685506587 0.2029461580264564 0.9860882236425194	0.103378
H	0.5806932332701403 0.3530212670387151 0.1570985956991887	0.099933
H	0.7043229369705379 0.3511570618452396 0.1628351576642481	0.100759
H	0.7041952438403315 0.1496342167882657 0.0656919499802622	0.101271
H	0.5807781666494262 0.1511567173958023 0.0606836790205570	0.103952
H	0.1397569471289220 0.1976693355098287 0.2164109482887525	0.096956
H	0.0153807882523399 0.1937037966695262 0.2239697991328852	0.113844
H	0.0108607539624761 0.3008175868267948 0.9853137713703720	0.112364
H	0.1359110728232004 0.2984906937064160 0.9867937838221414	0.094597
H	0.9194006615701664 0.1470184717132140 0.1569081580926792	0.099524
H	0.7957886644148729 0.1489054073636069 0.1628875931807858	0.100957
H	0.7958105633080677 0.3503750578854523 0.0657326996000385	0.101046
H	0.9191928412777740 0.3489315581813310 0.0605372591872507	0.103402
H	0.3022321149087318 0.1394587646703561 0.2165517374972733	0.102507
H	0.3063663028448214 0.0154295786977020 0.2236222342269332	0.114462
H	0.1989451946867419 0.0107089144105586 0.9850742104685634	0.112570
H	0.2013264794733512 0.1355952605935169 0.9857565157960583	0.099645
H	0.3528933487549446 0.9193638443334919 0.1568869492928389	0.099640
H	0.3510770400480819 0.7957241827687023 0.1629448377177547	0.100240
H	0.1495808787058414 0.7957565771820414 0.0657616182468544	0.100983
H	0.1510530987703763 0.9191670886584861 0.0604181211125740	0.103386
H	0.1963477031092152 0.3599821067062529 0.2161583743321887	0.095210
H	0.1932524194124668 0.4847449864152151 0.2243066753672895	0.111684
H	0.3004189730595125 0.4890221988161483 0.9857034536798071	0.113966
H	0.2970003554618149 0.3643260354164463 0.9863476184152650	0.099003
H	0.1469778105810079 0.5806896271642707 0.1570213678160406	0.099680
H	0.1488571722476912 0.7042749246117123 0.1628230052520245	0.101179
H	0.3503478543895005 0.7041107035330956 0.0656973169467046	0.101437
H	0.3489151980449205 0.5807204824288311 0.0606996447198630	0.103373
Zn	0.2502182616135696 0.2497324090953648 0.6007761754511703	0.735374
Zn	0.7502681209832989 0.7497807455681148 0.8992203498837577	0.735355
Zn	0.7502186845357512 0.7497323856097291 0.3992246687514113	0.735417
Zn	0.2502659669634011 0.2497792103513915 0.1007797518814622	0.735336
Ga	0.2509194879395515 0.2503769447076661 0.3512136997047333	1.470402
Ga	0.7496234787759077 0.7490823307927634 0.1487844399925279	1.470569
Ga	0.7509236074312337 0.7503823537683499 0.6487862233851243	1.470553
Ga	0.2496215134304616 0.2490869077935435 0.8512136008403856	1.470625
	  	
