#======================================================================

# CRYSTAL DATA

#----------------------------------------------------------------------

data_VESTA_phase_1


_pd_phase_name                         GaFFIVE_1_Co
_cell_length_a                         11.00913
_cell_length_b                         11.00913
_cell_length_c                         8.16976
_cell_angle_alpha                      90.07330
_cell_angle_beta                       89.92567
_cell_angle_gamma                      90.00629
_symmetry_space_group_name_H-M         P 1
_symmetry_Int_Tables_number            1

loop_
_symmetry_equiv_pos_as_xyz
   x, y, z

loop_
   _atom_site_label
   _atom_site_fract_x
   _atom_site_fract_y
   _atom_site_fract_z
   _atom_site_charge
C	0.2594266577688076 0.4573877179016512 0.3692088081889118	0.092163
C	0.1331227800532774 0.4568177761957558 0.3652751646942169	-0.171283
C	0.7410371488936334 0.5423846689321479 0.3697740110203288	0.095933
C	0.8672510173331712 0.5432671342334421 0.3654301587401215	-0.170565
C	0.5423747798737871 0.2592322467882935 0.3697922118346578	0.095606
C	0.5432090272425696 0.1329703860475023 0.3653836336704726	-0.171883
C	0.4574088688781459 0.7408165366495553 0.3697790300808837	0.091011
C	0.4567668792773464 0.8670563276042094 0.3656793146525020	-0.170515
C	0.7408142670127649 0.4574092667223538 0.6302220506035984	0.090945
C	0.8670541840968594 0.4567678399404780 0.6343205079070826	-0.170517
C	0.2592306230623537 0.5423753465301261 0.6302048050939363	0.095533
C	0.1329684652223679 0.5432100484372185 0.6346142006785211	-0.171934
C	0.4573867857824616 0.2594257633161834 0.6307891848672856	0.092106
C	0.4568162861840139 0.1331222719614976 0.6347244980799738	-0.171224
C	0.5423838810445143 0.7410365009375801 0.6302246520203388	0.095873
C	0.5432659017987564 0.8672505553453043 0.6345679111712041	-0.170481
C	0.0671463557253386 0.5000701278181584 0.4999240175201737	0.099902
C	0.9330645671732166 0.5000494924401329 0.4998993513656374	0.095852
C	0.5000687299503386 0.0671471687799251 0.5000750152785520	0.099890
C	0.5000481810361248 0.9330654282727033 0.5000995277922560	0.095769
H	0.3134473456114240 0.4251908055822269 0.2657617904584397	0.106770
H	0.0866811236890183 0.4208782619843820 0.2579382134208825	0.124528
H	0.6867972422617543 0.5730394543534655 0.2666548334867815	0.104047
H	0.9136403693378877 0.5788075493286760 0.2577290594462742	0.121988
H	0.5744639911664342 0.3139962094587875 0.2675155488187819	0.102481
H	0.5789977497562354 0.0862945083504692 0.2579305971287107	0.122451
H	0.4270738745864519 0.6873545061770397 0.2652615214912150	0.108122
H	0.4211918989796015 0.9130649737193616 0.2579023774321347	0.124283
H	0.6873524877060737 0.4270730524785970 0.7347410700287770	0.108147
H	0.9130622278438084 0.4211924901922939 0.7420975811893650	0.124278
H	0.3139936084396462 0.5744635919738866 0.7324805358125214	0.102520
H	0.0862921921319805 0.5789983456363734 0.7420678531440329	0.122448
H	0.4251894537355350 0.3134472150062093 0.7342350067082191	0.106764
H	0.4208767735833862 0.0866798335597636 0.7420626489064472	0.124522
H	0.5730382605522258 0.6867973735927877 0.7333454391316150	0.104060
H	0.5788058464935322 0.9136389463705087 0.7422683648015225	0.121979
Co	0.5000064724110378 0.5000069729127058 0.4999985640127660	0.568090
Ga	0.4997013622562389 0.4996929752672976 0.0000014974015691	1.446216
F	0.5006717170171130 0.4999104209722264 0.7640091747771107	-0.553873
F	0.4999175368872628 0.5006745263978193 0.2359923778315755	-0.553921
F	0.3811880612939041 0.3812244770346635 0.0000233792999370	-0.591338
F	0.6613537450897942 0.4557512164678547 0.0016769170467082	-0.591509
F	0.4558101140948477 0.6613564585979743 0.9983205266719556	-0.591538
N	0.3214962989983712 0.4998936473181971 0.4997417980443947	-0.181867
N	0.6787195265539733 0.4999026704704019 0.4999656293506763	-0.184958
N	0.4998928755722615 0.3214970302002968 0.5002554929065437	-0.181932
N	0.4999024745403333 0.6787199427415035 0.5000343059903859	-0.184940
	  	
