#======================================================================

# CRYSTAL DATA

#----------------------------------------------------------------------

data_VESTA_phase_1


_pd_phase_name                         GaFFIVE_2_Co
_cell_length_a                         13.56199
_cell_length_b                         13.56189
_cell_length_c                         8.20384
_cell_angle_alpha                      90.07860
_cell_angle_beta                       89.92237
_cell_angle_gamma                      90.01498
_symmetry_space_group_name_H-M         P 1
_symmetry_Int_Tables_number            1

loop_
_symmetry_equiv_pos_as_xyz
   x, y, z

loop_
   _atom_site_label
   _atom_site_fract_x
   _atom_site_fract_y
   _atom_site_fract_z
   _atom_site_charge
C	0.5303594642280048 0.6950504407244069 0.1326721115364103	0.089429
C	0.5311521413870488 0.7971643747564487 0.1378254966963031	-0.163918
C	0.4689287705798096 0.3056186470735138 0.1329128455018670	0.086629
C	0.4686746482412210 0.2034554576743549 0.1374456868890411	-0.164525
C	0.3056237149941354 0.5307813316518913 0.1320005578606345	0.089630
C	0.2035076656316094 0.5313030340669694 0.1374383900253301	-0.165020
C	0.6949666364671885 0.4696986034299357 0.1324466766763324	0.084020
C	0.7971056956744021 0.4689706054665247 0.1368989433981860	-0.163732
C	0.4696997368819125 0.6949618594817989 0.8675533535568479	0.083843
C	0.4689728880071786 0.7971029996223794 0.8630995157407489	-0.163635
C	0.5307837341849994 0.3056201339820407 0.8680020521431832	0.089582
C	0.5313058296726628 0.2035030229561540 0.8625635297278388	-0.164861
C	0.6950527888067553 0.5303565702457204 0.8673287465345935	0.089455
C	0.7971660151353434 0.5311494618474060 0.8621770250185055	-0.163884
C	0.3056196322623711 0.4689254185119686 0.8670883903160357	0.086672
C	0.2034572430252000 0.4686711056889030 0.8625548906992981	-0.164528
C	0.5000769942705865 0.1495256184765826 -0.0000863084825291	0.167235
C	0.5001477407848174 0.0453200041930783 -0.0000861432555379	-0.096860
C	0.5000496708175629 0.8511288374804539 0.0005700339342555	0.164339
C	0.5001040810175815 0.9553437089427265 0.0005156678622604	-0.090134
C	0.8511316304802108 0.5000464402464281 -0.0005676064992386	0.164367
C	0.9553483099949738 0.5001011390488882 -0.0005141668283757	-0.090347
C	0.1495284720128786 0.5000735979479968 0.0000871346722417	0.167377
C	0.0453217822939551 0.5001445223341786 0.0000862667481926	-0.096711
H	0.5522535291549590 0.6513450354423057 0.2373515353077753	0.104257
H	0.5561086489155407 0.8344115253464041 0.2478955016371057	0.129139
H	0.4446924100904714 0.3490833116394058 0.2373979818010354	0.107015
H	0.4433870278693772 0.1660783898477437 0.2471776025993540	0.130042
H	0.3498662938183872 0.5546171754600537 0.2353224384426105	0.103000
H	0.1660151974935352 0.5563864850462339 0.2473206498609345	0.129265
H	0.6519295957527301 0.4477187884826493 0.2384009966816480	0.108014
H	0.8340312388993899 0.4439340558272069 0.2470571116470804	0.130265
H	0.4477169465961318 0.6519257898274667 0.7615986181170495	0.108049
H	0.4439360704975420 0.8340267145923990 0.7529422429446476	0.130237
H	0.5546169834472452 0.3498625626233650 0.7646809671719152	0.102978
H	0.5563889123081975 0.1660101415887112 0.7526802069648201	0.129228
H	0.6513472507291341 0.5522494240338451 0.7626477298003103	0.104226
H	0.8344119087770930 0.5561056043172026 0.7521071313850008	0.129171
H	0.3490848773369382 0.4446885171239316 0.7626050523793457	0.106993
H	0.1660800726284824 0.4433837186723679 0.7528214453852264	0.130016
Co	0.5001586961569131 0.5001563172624912 0.0000018694779182	0.584549
Ga	0.4988967848188694 0.4989233088043658 0.4999960922553356	1.442647
F	0.4991447522093561 0.5014402556094409 0.7351976983483332	-0.551825
F	0.5014479743508031 0.4991594220817910 0.2647942269156372	-0.551894
F	0.4617352014136813 0.6293454044415800 0.4960313435140407	-0.586105
F	0.4030854070663991 0.4030646962091274 0.4999906811566293	-0.587283
F	0.6293473863151788 0.4618460590196353 0.5039663402311667	-0.586069
N	0.4999260870508191 0.3562763855174269 0.0005289507697340	-0.179006
N	0.5000745368513643 0.6442788931623925 0.0000735728736579	-0.181073
N	0.6442824857993529 0.5000718929113279 -0.0000749450801475	-0.181160
N	0.3562785027996809 0.4999232202583634 -0.0005260430605750	-0.179095
	  	
