#======================================================================

# CRYSTAL DATA

#----------------------------------------------------------------------

data_VESTA_phase_1


_pd_phase_name                         GaFFIVE_16_Cu_i
_cell_length_a                         24.90522
_cell_length_b                         24.90538
_cell_length_c                         8.02774
_cell_angle_alpha                      90.00020
_cell_angle_beta                       90.00019
_cell_angle_gamma                      90.03867
_symmetry_space_group_name_H-M         P 1
_symmetry_Int_Tables_number            1

loop_
_symmetry_equiv_pos_as_xyz
   x, y, z

loop_
   _atom_site_label
   _atom_site_fract_x
   _atom_site_fract_y
   _atom_site_fract_z
   _atom_site_charge
C	0.4786524764565834 0.3907866087142807 0.3712760517402521	0.098738
C	0.4777883342841510 0.3350597425931983 0.3673595307477569	-0.168135
C	0.9548302795813902 0.6142742122394909 0.9430339595360238	-0.124739
C	0.9549573372686890 0.5585060861607803 0.9438492270472779	-0.124618
C	0.5208739861014685 0.6094794241557360 0.3696310689262359	0.102946
C	0.5220598275182626 0.6651770494967831 0.3649816666199590	-0.169417
C	0.0451562402012895 0.3860398071773807 0.9431178356361675	-0.125929
C	0.0450135164014700 0.4418088091552486 0.9437898327081903	-0.124693
C	0.6095959237920366 0.4791631562485673 0.3709927323404988	0.098037
C	0.6652950025434513 0.4780362999654406 0.3674299407656435	-0.169085
C	0.3860070558077910 0.9548048326213804 0.9429720477249773	-0.126711
C	0.4417751484890526 0.9549458537005255 0.9439139954918470	-0.123497
C	0.3909648636380657 0.5213249793249026 0.3706059481549415	0.101205
C	0.3352473786546767 0.5223218705323192 0.3657882772025407	-0.168624
C	0.6143255929675053 0.0451792194037636 0.9431078281742946	-0.125360
C	0.5585541953699701 0.0450200419252689 0.9438553143483306	-0.124320
C	0.5213247599243314 0.3909627057176985 0.6293904633800077	0.101215
C	0.5223211242233635 0.3352465072230488 0.6342125097520839	-0.168663
C	0.0451785469329656 0.6143258079283024 0.0568907036085519	-0.125412
C	0.0450197441321807 0.5585542287041537 0.0561433829719107	-0.124219
C	0.4791635863400743 0.6095966481753597 0.6290040924084987	0.098198
C	0.4780355017786624 0.6652966511589545 0.6325692594946118	-0.169040
C	0.9548043891720795 0.3860103129152230 0.0570313005861016	-0.126557
C	0.9549456883934642 0.4417779749130588 0.0560867440618200	-0.123605
C	0.3907900488180280 0.4786527095899533 0.6287205713068593	0.098589
C	0.3350622542548765 0.4777884737871085 0.6326348790720719	-0.168149
C	0.6142752555087946 0.9548318430799295 0.0569633482520126	-0.124714
C	0.5585065528504053 0.9549584249317854 0.0561487686321323	-0.124689
C	0.6094761874131958 0.5208740489034923 0.6303655712638376	0.103028
C	0.6651733543295038 0.5220605091614665 0.6350191038622278	-0.169405
C	0.3860370249020468 0.0451562604724200 0.0568834574302950	-0.126084
C	0.4418070951027422 0.0450134076375142 0.0562101113522439	-0.124644
C	0.5451585879106646 0.8860467717734459 0.5568867184136056	-0.126016
C	0.5450154225001953 0.9418191366225598 0.5562143033069189	-0.124854
C	0.0208739361746367 0.1094778042976083 0.1303706930077274	0.103014
C	0.0220496225356662 0.1651781464572352 0.1350104449761718	-0.169343
C	0.4548268881478510 0.1142657785455733 0.5569726468448080	-0.124941
C	0.4549563609141736 0.0584958313963470 0.5561595594154041	-0.124635
C	0.9786532575162693 0.8907862425699425 0.1287685979411918	0.098973
C	0.9777860727997862 0.8350567620595570 0.1326549155299447	-0.168265
C	0.1143174085364044 0.5451813435035874 0.5568926254003844	-0.125380
C	0.0585461128160315 0.5450218793644943 0.5561459197550424	-0.123847
C	0.8909658162954279 0.0213282472621332 0.1293764308305323	0.101303
C	0.8352505890766029 0.0223205361572079 0.1341767976557877	-0.168573
C	0.8860190119535684 0.4548036165164911 0.5570269070974524	-0.126354
C	0.9417874796141245 0.4549472196715439 0.5560833442029660	-0.123742
C	0.1095935787848905 0.9791664435466401 0.1290363046328687	0.098009
C	0.1652922787284894 0.9780452834803343 0.1325905710215356	-0.168905
C	0.4548025504017734 0.8860198073886966 0.4429727217486404	-0.126340
C	0.4549462739836325 0.9417875876225416 0.4439159596942034	-0.123855
C	0.9791662905096977 0.1095982870660448 0.8709618000119431	0.098005
C	0.9780449490223393 0.1652970344331544 0.8674116593411514	-0.168884
C	0.5451798276147553 0.1143160548419530 0.4431097710614855	-0.125336
C	0.5450210833421143 0.0585452389094809 0.4438563702257714	-0.123900
C	0.0213262485285832 0.8909637904058766 0.8706220942456625	0.101262
C	0.0223189011879600 0.8352474177667388 0.8658203212288179	-0.168541
C	0.8860455230424308 0.5451588138026322 0.4431164464824133	-0.126069
C	0.9418190792032883 0.5450156686571379 0.4437884572039362	-0.124772
C	0.1094743638981858 0.0208764624308816 0.8696297898983363	0.103049
C	0.1651740713848279 0.0220513878838902 0.8649923540778353	-0.169342
C	0.1142675243896238 0.4548285665845384 0.4430307743280748	-0.125008
C	0.0584970387189032 0.4549571604337327 0.4438433635146783	-0.124710
C	0.8907886927859772 0.9786531726519417 0.8712310858255308	0.098881
C	0.8350591042518399 0.9777855930908970 0.8673433662148612	-0.168254
C	0.5000450831739021 0.3059830936902795 0.5009145954877096	0.174812
C	0.5000909806133281 0.2490308712413218 0.5009763910129523	-0.116584
C	0.5000561828914821 0.2000607350340966 0.5004869927837692	-0.093290
C	0.5000195881722027 0.1431093158357776 0.5001463982638708	0.123096
C	0.4999933468936866 0.0297199985059417 0.5000432431968151	0.066264
C	0.0000437828924430 0.8059812383820951 -0.0009081161403622	0.174907
C	0.0000886821903866 0.7490354086579019 -0.0009667138075127	-0.116559
C	0.0000564298827845 0.7000635529454932 -0.0004785716446472	-0.093088
C	0.0000194429346503 0.6431212621102486 -0.0001444889682086	0.122772
C	-0.0000084584574823 0.5297216673994449 -0.0000410064500197	0.066615
C	0.5000264703538495 0.6944038054875528 0.4986106648833726	0.173983
C	0.5000699479462457 0.7513449325052672 0.4985823116628507	-0.115135
C	0.5000299297254051 0.8003091318765606 0.4992372390596099	-0.095204
C	0.4999933310897913 0.8572305343520120 0.4997591140929826	0.125345
C	0.4999873432116883 0.9706051666504013 0.5000679526619847	0.065069
C	0.0000242879700505 0.1944053149871791 0.0013781880051108	0.174015
C	0.0000670332867909 0.2513354872205139 0.0014126979705486	-0.115115
C	0.0000281339317596 0.3003072855658444 0.0007543510017206	-0.095342
C	-0.0000048391479099 0.3572195530916810 0.0002414067232176	0.125531
C	-0.0000138627116964 0.4705986503819902 -0.0000645442089989	0.064716
C	0.6944017637396944 0.5000279905237481 0.5013927353910829	0.173974
C	0.7513428867606183 0.5000716534079930 0.5014257094312323	-0.115158
C	0.8003080152953661 0.5000310040270360 0.5007679200996530	-0.095250
C	0.8572295471921114 0.4999939370331120 0.5002435927886397	0.125449
C	0.9706052685656136 0.4999877327217123 0.4999335229357940	0.064881
C	0.1944010800002364 0.0000252493464882 -0.0013750200443748	0.174015
C	0.2513322881409430 0.0000684533513909 -0.0014065132013955	-0.115023
C	0.3003040606960212 0.0000284914361587 -0.0007488286153172	-0.095436
C	0.3572172380926754 -0.0000049807803030 -0.0002381640647238	0.125712
C	0.4705972074524545 -0.0000138212128167 0.0000656264423349	0.064756
C	0.3059856910572945 0.5000449634360346 0.4990836088758546	0.174848
C	0.2490330530248377 0.5000913678564333 0.4990217635745925	-0.116666
C	0.2000627283180419 0.5000577819782978 0.4995130130245168	-0.093187
C	0.1431106733460834 0.5000210143739471 0.4998555681199251	0.123108
C	0.0297209139303870 0.4999940641427366 0.4999590862866685	0.066378
C	0.8059835054180979 0.0000447174193748 0.0009080201649548	0.174976
C	0.7490362260972372 0.0000891814874490 0.0009647846085760	-0.116725
C	0.7000652426892349 0.0000582317265016 0.0004765785820493	-0.093116
C	0.6431209842479694 0.0000207485722578 0.0001437886031229	0.122978
C	0.5297213760673085 -0.0000076323749978 0.0000388442732808	0.066655
H	0.4627720810179963 0.4145800596596631 0.2681707811772241	0.107260
H	0.4601689455865267 0.3142997211840176 0.2612048541956751	0.127401
H	0.9200049539457436 0.6362616737540160 0.8972957497288320	0.111728
H	0.9201980563090265 0.5366729368902751 0.8962580428705580	0.106231
H	0.5358536787602263 0.5853340970907762 0.2666555544206105	0.102507
H	0.5394562468583927 0.6858442546517610 0.2583954545116466	0.126152
H	0.0799775334136258 0.3640376260398244 0.8973979482203068	0.111675
H	0.0797716173742735 0.4636155894699735 0.8960982757936572	0.106365
H	0.5858963833340233 0.4645214356823180 0.2661624074006375	0.109215
H	0.6859470326784826 0.4606066934651004 0.2608189064300608	0.127809
H	0.3639731250243617 0.9199841054464997 0.8972207642681517	0.112369
H	0.4635608669151739 0.9201853696533572 0.8963547867975423	0.106402
H	0.4152470399009919 0.5375516542943122 0.2692304182982394	0.102211
H	0.3145406152190322 0.5399900145068438 0.2597594514915829	0.126440
H	0.6363412843749879 0.0800094789603285 0.8973459561088449	0.111607
H	0.5367545019398176 0.0797610030291202 0.8961890103691348	0.105730
H	0.5375521862480956 0.4152447832470690 0.7307676771967003	0.102224
H	0.5399902042304945 0.3145393453844590 0.7402411756162677	0.126428
H	0.0800091079203455 0.6363416040370570 0.1026534885278126	0.111655
H	0.0797610050615277 0.5367547027365905 0.1038104053114504	0.105734
H	0.4645239241986591 0.5858964666084088 0.7338315059719184	0.109074
H	0.4606059111318641 0.6859472834658022 0.7391831879025430	0.127793
H	0.9199836514677242 0.3639764604713686 0.1027822310454780	0.112371
H	0.9201853193238668 0.4635639295590090 0.1036453806456708	0.106453
H	0.4145850969624646 0.4627727755085275 0.7318243211969504	0.107327
H	0.3143033773433396 0.4601689667281578 0.7387911069768670	0.127470
H	0.6362628422062735 0.9200071012512707 0.1027016365073993	0.111706
H	0.5366741461134756 0.9201993876136095 0.1037396478557478	0.106242
H	0.5853283720918653 0.5358546330029120 0.7333339058571893	0.102469
H	0.6858398901780038 0.5394565250435567 0.7416093360938077	0.126170
H	0.3640358005994256 0.0799772358060889 0.1026029221195555	0.111789
H	0.4636142565899964 0.0797717165434745 0.1039013636744738	0.106307
H	0.5799746806285816 0.8640350747059266 0.6025948012004044	0.111735
H	0.5797779692607226 0.9636147957513387 0.6039073112312898	0.106434
H	0.0358563561373879 0.0853392067211547 0.2333637487767356	0.102549
H	0.0394371034804533 0.1858378599311387 0.2416112228403716	0.126087
H	0.4200060409939991 0.1362625582660988 0.6027086674282167	0.111737
H	0.4201948092599317 0.0366732425037020 0.6037530367806565	0.106333
H	0.9627652625038176 0.9145716587626150 0.2319142154563250	0.107252
H	0.9601678965629791 0.8143045261643201 0.2387968129738620	0.127362
H	0.1363444479726315 0.5800071675150779 0.6026484999169780	0.111488
H	0.0367565171702513 0.5797667586738542 0.6038177422359902	0.105599
H	0.9152465699842601 0.0375584085294680 0.2307628265610412	0.102280
H	0.8145479760953784 0.0399891049474542 0.2402180936707283	0.126385
H	0.8639756415031817 0.4199854048603833 0.6027794168706340	0.112327
H	0.9635645476571861 0.4201819343535561 0.6036447475033339	0.106457
H	0.0859043876303630 0.9645300370033841 0.2339267030120447	0.109190
H	0.1859312751992559 0.9606217216392311 0.2392180101433490	0.127792
H	0.4199841079739344 0.8639760972024483 0.3972192948094067	0.112314
H	0.4201810971704231 0.9635649276469405 0.3963541287086286	0.106545
H	0.9645300739344905 0.0859088680043219 0.7660684294026096	0.109227
H	0.9606210557173420 0.1859352050852269 0.7607821450507374	0.127827
H	0.5800056438865139 0.1363431891637625 0.3973526318661100	0.111485
H	0.5797661354597566 0.0367557951514319 0.3961843738881397	0.105604
H	0.0375557495830996 0.9152434162104127 0.7692325522998129	0.102306
H	0.0399877183897604 0.8145456183493565 0.7597807106768883	0.126411
H	0.8640343330179341 0.5799746043225221 0.3974093882478290	0.111733
H	0.9636143429027908 0.5797778746258423 0.3960956720955748	0.106462
H	0.0853355207672478 0.0358587232522648 0.7666381314101742	0.102534
H	0.1858349775610564 0.0394382213981380 0.7583934390269989	0.126089
H	0.1362647791272870 0.4200080031891923 0.3972948721176464	0.111764
H	0.0366750864247222 0.4201955717923515 0.3962499394703924	0.106343
H	0.9145739317896240 0.9627648044086147 0.7680879404030445	0.107293
H	0.8143063921858036 0.9601673040954588 0.7612026138829572	0.127379
Cu	0.5001245418714727 0.5001244151417089 0.4999983293064533	0.739419
Cu	0.0001251972330593 0.0001260367837212 0.0000016345361025	0.739418
Ga	0.4984604207143793 0.4984346647814104 -0.0000035511440934	1.465085
Ga	-0.0015069886946356 -0.0015003107208826 0.5000079836717519	1.465430
F	0.5019550379890720 0.4980780819791552 0.2356294528472219	-0.583317
F	-0.0018392437023251 0.0019202652536056 0.7354598967635779	-0.583149
F	0.4980834634149220 0.5019508063156782 0.7643633119886521	-0.583267
F	0.0019109305448952 -0.0018291897092670 0.2645489910280180	-0.582558
F	0.4458472224237300 0.4458381207834722 -0.0000391761461298	-0.600921
F	0.9458765377540080 0.9458706006785483 0.5000106770599901	-0.601619
F	0.4766144754834383 0.5696474088170749 0.0090881432779787	-0.603817
F	0.9766620966100837 0.0697756431583146 0.4909912695838871	-0.604194
F	0.5696553881329344 0.4765357657396013 0.9909246103966691	-0.603920
F	0.0697692191869504 0.9766789010555291 0.5090145426607855	-0.604157
N	0.4999720753919332 0.4180886362251082 0.5003495903567946	-0.223059
N	-0.0000274490420804 0.9180871469977856 -0.0003095186596219	-0.223532
N	0.5000378473873550 0.5822788200825064 0.4993523667998041	-0.226929
N	0.0000383031194222 0.0822806622436644 0.0006178019461737	-0.227182
N	0.5822767828034588 0.5000367064238724 0.5006396060253359	-0.226932
N	0.0822771621588270 0.0000395686306140 -0.0006177497129066	-0.227201
N	0.4180912828697379 0.4999727825298199 0.4996456012246293	-0.223070
N	0.9180892853982403 -0.0000266815070892 0.0003100470483401	-0.223421
	  	
