#======================================================================

# CRYSTAL DATA

#----------------------------------------------------------------------

data_VESTA_phase_1


_pd_phase_name                         GaFFIVE_13_Zn_i
_cell_length_a                         15.40531
_cell_length_b                         15.40285
_cell_length_c                         7.96177
_cell_angle_alpha                      90.10916
_cell_angle_beta                       89.82751
_cell_angle_gamma                      89.91869
_symmetry_space_group_name_H-M         P 1
_symmetry_Int_Tables_number            1

loop_
_symmetry_equiv_pos_as_xyz
   x, y, z

loop_
   _atom_site_label
   _atom_site_fract_x
   _atom_site_fract_y
   _atom_site_fract_z
   _atom_site_charge
C	0.5396913172785317 0.6861268105743770 0.8713520911369848	0.111300
C	0.5430981366288773 0.7764309568662527 0.8693465988886837	-0.150074
C	0.4637739014602406 0.3168900770389537 0.8789913881382276	0.105264
C	0.4603953447958105 0.2265662787751097 0.8787367643090698	-0.146363
C	0.8163802511299660 0.9738384913914283 0.3660217662054771	0.107216
C	0.7261831371566547 0.9707434633551471 0.3625227850933044	-0.142090
C	0.3165796544475276 0.5407477638757165 0.8691524222606026	0.107115
C	0.2262793313135233 0.5449518834714894 0.8668155816113459	-0.154071
C	0.1866670840380328 0.9712183458225867 0.3579619498910293	0.095396
C	0.2769184081849376 0.9699945321064221 0.3550192437054923	-0.140142
C	0.6854432607190631 0.4634596621097285 0.8841323943065132	0.105487
C	0.7756690689604797 0.4603213814751266 0.8829280253814697	-0.143668
C	0.4552709262250533 0.6863534352006472 0.1136412526209067	0.108302
C	0.4519012191749408 0.7765960388031878 0.1161520232994843	-0.142833
C	0.5393248084177981 0.3186411412338130 0.1313030172856779	0.104009
C	0.5419765222967833 0.2283091624015691 0.1367356484410010	-0.152577
C	0.1843914552634410 0.0193200835718433 0.6347961492444301	0.107651
C	0.2744557079738646 0.0219941020633532 0.6413421318520814	-0.139298
C	0.6837747888385992 0.5431388644288065 0.1321999925406264	0.111633
C	0.7740950827379917 0.5465274021334315 0.1361297882848916	-0.150151
C	0.8158171673308169 0.0293523611502523 0.6375383282763601	0.106088
C	0.7256464099025791 0.0301597972185165 0.6436952182523485	-0.142730
C	0.3154525597156049 0.4587184240451240 0.1138198254170604	0.107451
C	0.2251441215372582 0.4562707683733642 0.1161425464148158	-0.145427
C	0.9656640753079573 0.8141909139727915 0.6338580121936725	0.106759
C	0.9647533721188040 0.7238753665425608 0.6400417961897034	-0.139132
C	0.9841370535325874 0.1832182223366660 0.6380187437461838	0.093915
C	0.9800308350131477 0.2732995734186531 0.6412922220740573	-0.140122
C	0.0203660486790794 0.8129311759381653 0.3615995078021517	0.105908
C	0.0236828356272695 0.7228757776940893 0.3583894856581252	-0.142256
C	0.0310283043608310 0.1827399333127473 0.3602932086974410	0.109975
C	0.0309175968622205 0.2729693726311659 0.3540471546549539	-0.138258
C	0.0038526354232827 0.3191962921913008 0.4967524236100868	0.041400
C	0.0010295660536935 0.4142234750158248 0.4969100071471546	0.256582
C	0.4977252551002075 0.8225847169856966 0.9931540821792770	0.056402
C	0.4988507075676663 0.9183899200355581 0.9981444186198458	0.248927
C	0.9951560130703244 0.6772572525089295 0.5002755146315737	0.040370
C	0.9972336699082547 0.5820356347342188 0.5002153369561489	0.247960
C	0.5009550010517808 0.1813569043358589 0.0091084350248283	0.058398
C	0.5003712906936147 0.0854130924664209 0.0096027046998197	0.250023
C	0.6798197423614171 -0.0002453727408309 0.5036435656710517	0.042005
C	0.5846208766970240 0.9977664180087429 0.5045905250392048	0.244832
C	0.1796339552608195 0.5011494962503044 0.9915318629961671	0.057271
C	0.0837757335795008 0.5022656398241682 0.9944072965691646	0.248966
C	0.3217917757685511 0.9960646115716357 0.4992645687109807	0.040636
C	0.4168279452561777 0.9961857017071870 0.5021184444585401	0.256672
C	0.8209306978778033 0.5035363278507481 0.0101840795538441	0.054609
C	0.9167930051283277 0.5034662759007730 0.0073670330698535	0.251871
H	0.5705008152306457 0.6471904608538428 0.7735593433679538	0.100754
H	0.5795878558186567 0.8096673072317011 0.7714048954830778	0.121485
H	0.4367152628417967 0.3548791819249043 0.7756262921447068	0.106826
H	0.4292388939058211 0.1917602460707827 0.7761946472738859	0.118074
H	0.8549775006356340 0.9528985507417287 0.2579454458417432	0.102960
H	0.6929200817578330 0.9469134282948442 0.2511539412024724	0.120502
H	0.3559607780228607 0.5711744846293074 0.7713818855688869	0.099834
H	0.1933233632430993 0.5809300952079935 0.7680432670233044	0.122906
H	0.1499290812664370 0.9551735665668316 0.2451934246939357	0.103505
H	0.3108090360811170 0.9507024912500301 0.2406191925052241	0.115259
H	0.6474598182873950 0.4355728257934461 0.7820531407092595	0.106928
H	0.8103422089406971 0.4276426528855632 0.7815669536014441	0.117311
H	0.4256412591185759 0.6478231344661953 0.2132312847701073	0.106295
H	0.4176465650150304 0.8106416823295802 0.2162824546959139	0.116881
H	0.5676676887476373 0.3582628184705324 0.2308722300788583	0.100747
H	0.5743175088109971 0.1956082442639254 0.2404170944871253	0.122070
H	0.1451799871544129 0.0356995543574329 0.7442305958534389	0.102234
H	0.3067093128464905 0.0423972051016233 0.7562413354380274	0.117969
H	0.6444645763887925 0.5718025875687294 0.2318544242551797	0.101758
H	0.8066440817628694 0.5808577309293297 0.2376691686302957	0.122331
H	0.8541832428351167 0.0498298802467757 0.7452178453186411	0.092911
H	0.6921269292973639 0.0525487840599603 0.7563687684042260	0.119639
H	0.3537347725949549 0.4290298894865607 0.2138911815320745	0.105803
H	0.1905813317834551 0.4231169779820834 0.2167398725963693	0.116564
H	0.9445169716131157 0.8530537863802039 0.7414400065445037	0.104280
H	0.9422229541233502 0.6910050823192344 0.7530276767078683	0.118634
H	0.9693580569966889 0.1458116940353672 0.7507063726055183	0.101942
H	0.9597867920422771 0.3065307250111442 0.7556821746500546	0.118971
H	0.0393658682172387 0.8510528447538483 0.2525666877691176	0.093911
H	0.0471691787394407 0.6891047869356346 0.2469639612607926	0.117311
H	0.0481983290715053 0.1441307023992763 0.2504920627025545	0.101938
H	0.0496287032777729 0.3060498210319715 0.2387444581325590	0.116280
N	0.9454174321845735 0.5393705487378719 0.6098500429231865	-0.136668
N	0.4222441724442430 0.0456214018157452 0.0086342523516070	-0.149979
N	0.5423275882512161 0.0494236563168447 0.6155076670293792	-0.137497
N	0.9569402728283105 0.4253791658423103 0.0024821557054806	-0.144784
N	0.0507831381156826 0.5423481467482023 0.3888690720848256	-0.137539
N	0.5777035226470177 0.0440001257630695 0.0111666161723563	-0.151247
N	0.9578327331412303 0.5809180725745723 0.0051303112573649	-0.149243
N	0.5446573558480307 0.9435616127370358 0.3955603745559260	-0.133347
N	0.0530725407856534 0.4569553338348294 0.3879689218756109	-0.131785
N	0.5769689697633726 0.9582079723124773 0.0009724126236993	-0.147590
N	0.4592379844763645 0.9427439340578748 0.3945405642317439	-0.129425
N	0.0436103472596092 0.5802862402959723 0.9945021344190390	-0.149507
N	0.9469698478563526 0.4539117288401157 0.6072265646474964	-0.129759
N	0.4215224992627519 0.9597722462025443 0.0063148535932759	-0.140941
N	0.0427582413716653 0.4247872887914882 0.9990706796335631	-0.147334
N	0.4568846979388494 0.0486906674958837 0.6139603483195433	-0.134952
N	0.0079191224782576 0.1387494011049532 0.4994117824792225	-0.214973
N	0.4976492448339056 0.6421915837694810 0.9925029023057221	-0.220444
N	0.9930871858872083 0.8578177139380977 0.4970615867805188	-0.211833
N	0.5016847251527049 0.3618130880870344 0.0040771217291816	-0.217411
N	0.8603459437887118 0.0023269698100768 0.5013518387697841	-0.209682
N	0.3600603602641144 0.4993537443924373 0.9914809363071757	-0.217690
N	0.1413201240544475 0.9945905179712776 0.4958434723474442	-0.213134
N	0.6405369005546356 0.5032616898577006 0.0075875333827926	-0.221299
Zn	0.0011602709110667 0.9984419342462957 0.4980867517610114	0.727328
Zn	0.5004632281405845 0.5022017349740648 0.9992013694435454	0.729907
Ga	0.9982061458005465 0.9958267604677500 0.9983271741579004	1.451336
Ga	0.4982784921048415 0.5023940615541458 0.4992236116801636	1.468795
F	0.0004842111769172 -0.0016311426008607 0.2415156307003885	-0.549452
F	0.5069734417800453 0.4985356427801758 0.7429868708159892	-0.556385
F	-0.0003592667509941 0.9964292488992006 0.7548951969679337	-0.549179
F	0.4920172076283174 0.5070127010580083 0.2552420753570233	-0.556447
F	0.9138538537705835 0.9122017824096736 0.0007386505738439	-0.575312
F	0.4165749680552814 0.4159415815536320 0.5035944288728909	-0.595616
F	0.9660418685681957 0.1105074452200210 0.9962942149267683	-0.569540
F	0.4635256604980968 0.6161504906150889 0.5114890475429462	-0.596662
F	0.1127560897977576 0.9633366815085661 -0.0016625710004025	-0.570040
F	0.6136323440320277 0.4734369894563678 0.4834440240132250	-0.596682
	  	
