#======================================================================

# CRYSTAL DATA

#----------------------------------------------------------------------

data_VESTA_phase_1


_pd_phase_name                         GaFFIVE_16_Ni_i
_cell_length_a                         25.03788
_cell_length_b                         25.03782
_cell_length_c                         7.77565
_cell_angle_alpha                      90.00027
_cell_angle_beta                       89.99821
_cell_angle_gamma                      90.03532
_symmetry_space_group_name_H-M         P 1
_symmetry_Int_Tables_number            1

loop_
_symmetry_equiv_pos_as_xyz
   x, y, z

loop_
   _atom_site_label
   _atom_site_fract_x
   _atom_site_fract_y
   _atom_site_fract_z
   _atom_site_charge
C	0.4779464955151768 0.3887738368835877 0.3696537002306679	0.100135
C	0.4770828176236723 0.3333147091792866 0.3648111417830828	-0.173002
C	0.9548404050807221 0.6135665567356449 0.9430860002442090	-0.125846
C	0.9549743520432290 0.5580981066139328 0.9438512091961300	-0.124618
C	0.5221601628794494 0.6116185756349960 0.3676184559055165	0.106290
C	0.5232360138955214 0.6670479006637214 0.3625824276518660	-0.172695
C	0.0451762815365732 0.3866345817250859 0.9430801849003788	-0.125717
C	0.0450207414015453 0.4421052307249394 0.9437784386055573	-0.125440
C	0.6115325679322179 0.4779126956595777 0.3705170499909752	0.097259
C	0.6669576215420636 0.4769592548934302 0.3655324725052019	-0.172099
C	0.3866009911434051 0.9548228981385900 0.9430661362064977	-0.125299
C	0.4420666610716209 0.9549668141155153 0.9439237333991298	-0.124649
C	0.3888035225836738 0.5220579581093053 0.3679425566568241	0.102357
C	0.3333467440371465 0.5230707456517645 0.3627868007707850	-0.172924
C	0.6136093617905881 0.0451807058311423 0.9430717225729925	-0.126215
C	0.5581374831644188 0.0450177877629540 0.9438007530822067	-0.124725
C	0.5220579029639582 0.3888028378571558 0.6320594152558170	0.102219
C	0.5230717015013358 0.3333456358189806 0.6372116444877253	-0.172813
C	0.0451798284094716 0.6136090979950217 0.0569242449018150	-0.126223
C	0.0450174619607207 0.5581369976502280 0.0561952826729354	-0.124632
C	0.4779125234844998 0.6115330754740278 0.6294975436259193	0.097261
C	0.4769587199848212 0.6669574348337003 0.6344720469424570	-0.172184
C	0.9548224542798219 0.3866005932795514 0.0569319500478557	-0.125343
C	0.9549664625788445 0.4420662699490476 0.0560749830544260	-0.124584
C	0.3887717063542998 0.4779453789945663 0.6303487254696789	0.100245
C	0.3333123890247524 0.4770808268060327 0.6351896297260891	-0.173094
C	0.6135665593993831 0.9548405117820916 0.0569112716750694	-0.125838
C	0.5580982807301655 0.9549740728594297 0.0561458207785295	-0.124605
C	0.6116191123355668 0.5221591179628439 0.6323942116512610	0.106325
C	0.6670486983580628 0.5232363599353076 0.6374190080978666	-0.172714
C	0.3866345523291308 0.0451761092591830 0.0569164947020804	-0.125736
C	0.4421047705551301 0.0450202551114877 0.0562189909151868	-0.125430
C	0.5451824623994563 0.8866316654256275 0.5569211727775566	-0.125601
C	0.5450130551889086 0.9420975406685352 0.5562062987502111	-0.125500
C	0.0221565133115050 0.1115878201135835 0.1323800824043417	0.105521
C	0.0232584496386175 0.1670166871163364 0.1373217653567345	-0.172206
C	0.4548399716397267 0.1135730284196338 0.5569152956085118	-0.126223
C	0.4549866067102099 0.0581078955075034 0.5561353867859976	-0.124575
C	0.9779474346540568 0.8887858764048894 0.1303802576888988	0.099832
C	0.9770979069115080 0.8333301050680652 0.1351791130714030	-0.173110
C	0.1136158817510786 0.5451836321343666 0.5569227672977822	-0.125730
C	0.0581473045739048 0.5450041463517870 0.5561749332389733	-0.125084
C	0.8888212990234780 0.0220475248117564 0.1320432428467799	0.102246
C	0.8333669288016090 0.0230614538492851 0.1371825469380540	-0.173026
C	0.8865962318096184 0.4548178852469210 0.5569459501076323	-0.125388
C	0.9420590793582501 0.4549725520972601 0.5560726409231715	-0.124580
C	0.1115178087072563 0.9779091507198748 0.1295053514963157	0.096755
C	0.1669402996696359 0.9769508752444465 0.1344228014621375	-0.172194
C	0.4548183406410584 0.8865969130033204 0.4430530353312661	-0.125470
C	0.4549727547898956 0.9420596536309433 0.4439260370183599	-0.124513
C	0.9779098740825271 0.1115186826760241 0.8704932344206746	0.096710
C	0.9769510733566708 0.1669408868761940 0.8655743297229455	-0.172163
C	0.5451837782107969 0.1136165068941696 0.4430732256329806	-0.125703
C	0.5450042003804005 0.0581477203720470 0.4438206241130757	-0.125104
C	0.0220481377351973 0.8888214308146249 0.8679536491105251	0.102274
C	0.0230616715695566 0.8333668168911099 0.8628156983618817	-0.173076
C	0.8866320327028800 0.5451829892161568 0.4430776985889813	-0.125535
C	0.9420978097441247 0.5450136995444710 0.4437920833941942	-0.125483
C	0.1115884957419735 0.0221566509315448 0.8676161191313545	0.105750
C	0.1670174860434913 0.0232587297022796 0.8626724683343685	-0.172492
C	0.1135731197358235 0.4548407120925889 0.4430821495163302	-0.126051
C	0.0581078993270212 0.4549872871500735 0.4438603610672231	-0.124535
C	0.8887869444767291 0.9779475977686929 0.8696194965625383	0.099843
C	0.8333311080010157 0.9770982296860685 0.8648224525483320	-0.173136
C	0.5000554258635287 0.3042586447328693 0.5010771479620558	0.174082
C	0.5000565579283207 0.2476016716802864 0.5009034506032878	-0.115918
C	0.5000321481943294 0.1988838704006101 0.5004227197078591	-0.096350
C	0.5000239347884026 0.1422675903524547 0.5000812693915264	0.124789
C	0.4999965333556720 0.0294874003333867 0.5000179425516691	0.068274
C	0.0000582423895344 0.8042731140336676 -0.0010611472398574	0.174046
C	0.0000511182482497 0.7476110798009192 -0.0008821751973563	-0.115994
C	0.0000303578505485 0.6988909556012194 -0.0004350824658923	-0.096133
C	0.0000213512231616 0.6422665408281978 -0.0000846221483087	0.124699
C	-0.0000031180065256 0.5294869404377606 -0.0000177110616957	0.068174
C	0.5000643014127215 0.6960312639239568 0.4985410366696268	0.172942
C	0.5000524208393854 0.7526647016937678 0.4988144730523220	-0.114870
C	0.5000086979323259 0.8013696876244676 0.4994544041177972	-0.098330
C	0.5000065902639717 0.8579654334214369 0.4998713188386225	0.125409
C	0.4999962474403046 0.9707139051216035 0.5000676610184418	0.065497
C	0.0000717599859727 0.1960128598094103 0.0014413782950621	0.172909
C	0.0000451266592938 0.2526500454553744 0.0011386431173661	-0.114700
C	0.0000043803789310 0.3013575353747225 0.0005533634498136	-0.098432
C	0.0000059148358300 0.3579594436176288 0.0001257091576015	0.125648
C	-0.0000031034965423 0.4707159053080876 -0.0000720714023074	0.065229
C	0.6960314150422113 0.5000646194683952 0.5014584341519528	0.172962
C	0.7526646915106153 0.5000534396617350 0.5011784659519513	-0.114881
C	0.8013695579132152 0.5000093996408372 0.5005415924116414	-0.098320
C	0.8579652243930138 0.5000068032744492 0.5001272788098586	0.125356
C	0.9707138754508409 0.4999964716176189 0.4999311165498534	0.065366
C	0.1960129190616670 0.0000719482071204 -0.0014440068588664	0.172889
C	0.2526501186413684 0.0000450946110661 -0.0011443556164222	-0.114583
C	0.3013574275783983 0.0000045563784233 -0.0005564911966412	-0.098549
C	0.3579594460544448 0.0000060034535847 -0.0001287162213907	0.125701
C	0.4707160142066083 -0.0000032934045361 0.0000708784456525	0.065290
C	0.3042580608310017 0.5000542348087356 0.4989223588079066	0.174105
C	0.2476012019552242 0.5000565028987365 0.4990949306028417	-0.115832
C	0.1988836479048623 0.5000316175866351 0.4995784213659397	-0.096474
C	0.1422673276516745 0.5000240247567519 0.4999164516593661	0.124769
C	0.0294871863965859 0.4999967748115385 0.4999789793712165	0.068274
C	0.8042734207615925 0.0000586384283929 0.0010614414490456	0.173977
C	0.7476112166403358 0.0000521764012366 0.0008827777404029	-0.116022
C	0.6988912241578167 0.0000318292358554 0.0004349374533596	-0.096094
C	0.6422666292755960 0.0000223079068338 0.0000840403287888	0.124672
C	0.5294870983339824 -0.0000031974569631 0.0000148194603498	0.068200
H	0.4611770088124234 0.4123183217439311 0.2645529228963948	0.100901
H	0.4589164529351932 0.3126193877637641 0.2563749867041628	0.125044
H	0.9200337832596918 0.6354756295886517 0.8972674291053746	0.111403
H	0.9202370984895433 0.5363661029593570 0.8960374299933423	0.106068
H	0.5385216374763160 0.5878370070779166 0.2630953361565802	0.095164
H	0.5413155780506217 0.6877747901813217 0.2541252170370248	0.123787
H	0.0799994995316608 0.3647427176223984 0.8972588302714669	0.111066
H	0.0797519789605893 0.4638530608161928 0.8959887736008405	0.106472
H	0.5880290969838857 0.4621075975664156 0.2641948890028919	0.103965
H	0.6875264714203809 0.4589528705224989 0.2566018579499480	0.125504
H	0.3646546687396409 0.9200128158248281 0.8972438452148592	0.111197
H	0.4637694778723867 0.9202360895555275 0.8961289349182330	0.106449
H	0.4127432592701231 0.5393057624220228 0.2647044434446911	0.095466
H	0.3126213367071310 0.5413445851117010 0.2546977537121842	0.124145
H	0.6355232067105219 0.0800129925669079 0.8972399701657082	0.111352
H	0.5364144163004099 0.0797408334402320 0.8960178339313493	0.105938
H	0.5393060510281206 0.4127415480895951 0.7352968483215379	0.095503
H	0.5413451119153434 0.3126196293885822 0.7453002817093243	0.124104
H	0.0800117776288131 0.6355225683309740 0.1027561823821082	0.111305
H	0.0797402465072436 0.5364137597474495 0.1039792910462147	0.105849
H	0.4621065659788942 0.5880300260239703 0.7358211092986855	0.104007
H	0.4589503461133992 0.6875272585037239 0.7433989646377270	0.125528
H	0.9200120707957516 0.3646543199732085 0.1027552177252093	0.111238
H	0.9202355032775558 0.4637687264988787 0.1038701564552270	0.106435
H	0.4123146500422477 0.4611753588588312 0.7354512529598256	0.100904
H	0.3126152623674033 0.4589149152935599 0.7436285014400753	0.125068
H	0.6354754175762698 0.9200336141550720 0.1027297843465612	0.111331
H	0.5363659997939962 0.9202365409968646 0.1039598053673427	0.106059
H	0.5878382604572544 0.5385196499902337 0.7369197184588081	0.095150
H	0.6877760513911155 0.5413168512323062 0.7458729437971776	0.123765
H	0.3647419679130557 0.0799986598211324 0.1027372285328630	0.111058
H	0.4638521306337383 0.0797511947897265 0.1040083855993586	0.106468
H	0.5800094023256682 0.8647364984885639 0.6027421518913400	0.111060
H	0.5797368068138412 0.9638385781357872 0.6039851657858805	0.106466
H	0.0385190876572233 0.0878558876377389 0.2370239448708031	0.095263
H	0.0412695938472640 0.1877826464507313 0.2458033983846207	0.123594
H	0.4200273075107795 0.1354778532212866 0.6027423407822577	0.111538
H	0.4202591794028053 0.0363808913925110 0.6039277496389931	0.106058
H	0.9611581361742780 0.9122756670019657 0.2355874320197904	0.101309
H	0.9589382087360986 0.8126024509396275 0.2435315814431697	0.124844
H	0.1355264461084635 0.5800206217293044 0.6027690298321126	0.111321
H	0.0364302704164808 0.5797162227604520 0.6039515340873335	0.105847
H	0.9127063035370465 0.0393156213726332 0.2353646857965485	0.095421
H	0.8125986433594050 0.0413233829603543 0.2452068055480190	0.124169
H	0.8646520043819566 0.4200005747302188 0.6027703502935375	0.111333
H	0.9637601558496002 0.4202483807443666 0.6038472430225487	0.106380
H	0.0880677567224016 0.9621003609560230 0.2359669465775545	0.104194
H	0.1875386791970288 0.9589895047358900 0.2433342042239646	0.125339
H	0.4200014460248604 0.8646528354991948 0.3972292776707919	0.111325
H	0.4202488931831863 0.9637607432037768 0.3961497281236943	0.106363
H	0.9621011700863160 0.0880690775808799 0.7640329283050249	0.104148
H	0.9589894062880281 0.1875400594329385 0.7566643306131010	0.125350
H	0.5800212569970223 0.1355268973872830 0.3972281792698443	0.111328
H	0.5797167011130204 0.0364308625389223 0.3960444445706038	0.105822
H	0.0393162382025492 0.9127068178552163 0.7646303048866773	0.095408
H	0.0413237172779903 0.8125994412404680 0.7547896712472465	0.124185
H	0.8647372310981255 0.5800101523728083 0.3972566460543448	0.111105
H	0.9638393410894273 0.5797379427239622 0.3960127567719166	0.106440
H	0.0878570886716402 0.0385194466865944 0.7629708838949746	0.095227
H	0.1877843309852936 0.0412695039909763 0.7541882361747740	0.123692
H	0.1354783088747580 0.4200281269299759 0.3972562029129585	0.111447
H	0.0363812438072306 0.4202599949486514 0.3960703425326582	0.106057
H	0.9122771779537713 0.9611578293062141 0.7644121918225137	0.101275
H	0.8126037706758518 0.9589389842101502 0.7564715532272602	0.124902
Ni	0.5001300656578314 0.5001304425986982 0.5000000372422689	0.758654
Ni	0.0001403371701284 0.0001389863486392 0.0000026814673617	0.758406
Ga	0.4986062432643089 0.4986090177179167 0.0000086617206664	1.467832
Ga	-0.0014150988439102 -0.0014139725080923 0.5000003832045102	1.469149
F	0.5017501850430038 0.4981840045919483 0.2468657422890895	-0.552473
F	-0.0018236735905268 0.0017237293171137 0.7469444812314222	-0.553059
F	0.4981780365885314 0.5017425104595242 0.7531466070889336	-0.552444
F	0.0017267896759095 -0.0018267958888148 0.2530558179705417	-0.553035
F	0.4467271617823169 0.4467328290840646 0.0000502132017856	-0.581076
F	0.9467707644139103 0.9467597965695588 0.5000057077332543	-0.581026
F	0.4775392212318826 0.5688544847873569 0.0091822337484401	-0.583743
F	0.9775995313124741 0.0687459076209710 0.4908345401574047	-0.583800
F	0.5688530757457437 0.4775441015630668 0.9908148940861761	-0.583754
F	0.0687446494384735 0.9775988282834195 0.5091535474299309	-0.583784
N	0.4999509497702054 0.4161548662729074 0.5010290916333370	-0.232611
N	-0.0000560243230334 0.9161760025810072 -0.0010085423888624	-0.232221
N	0.5000031960403923 0.5841717498883081 0.4983056975510570	-0.235945
N	-0.0000145955341424 0.0841484937090812 0.0016979326283509	-0.234948
N	0.5841718408549177 0.5000020507675258 0.5017113712513239	-0.235964
N	0.0841486561800239 -0.0000151874172828 -0.0016994562222055	-0.235021
N	0.4161542297224295 0.4999515300124708 0.4989763045187438	-0.232727
N	0.9161767470615702 -0.0000563281432007 0.0010063215957854	-0.232204
	  	
