#======================================================================

# CRYSTAL DATA

#----------------------------------------------------------------------

data_VESTA_phase_1


_pd_phase_name                         GaFFIVE_2_Zn_i
_cell_length_a                         13.97529
_cell_length_b                         13.97528
_cell_length_c                         8.16480
_cell_angle_alpha                      89.99987
_cell_angle_beta                       90.00025
_cell_angle_gamma                      89.86297
_symmetry_space_group_name_H-M         P 1
_symmetry_Int_Tables_number            1

loop_
_symmetry_equiv_pos_as_xyz
   x, y, z

loop_
   _atom_site_label
   _atom_site_fract_x
   _atom_site_fract_y
   _atom_site_fract_z
   _atom_site_charge
C	0.0002227486653564 0.3036723601715926 0.3522587039455378	-0.159576
C	0.0000968230493822 0.2043757682993716 0.3577435486531194	0.097072
C	0.5002178325360098 0.8036558849699288 0.8522534002796478	-0.159620
C	0.5000918444648782 0.7043488211942857 0.8577191266932893	0.096527
C	0.0000122399042824 0.6969239441969322 0.3522143230634701	-0.165637
C	-0.0003074405009402 0.7962057175517263 0.3579220284214272	0.104871
C	0.5000001308801472 0.1969361589627155 0.8522218280536130	-0.166020
C	0.4996757214995048 0.2962318673528984 0.8579062489004826	0.104857
C	0.6969223552733534 0.0000117876758013 0.3522145108092367	-0.165611
C	0.7962042877056942 -0.0003071551628651 0.3579220588159658	0.104827
C	0.1969353211493093 0.5000004672587550 0.8522224851044673	-0.166042
C	0.2962308686201888 0.4996758860110624 0.8579068601568537	0.104815
C	0.3036723597038715 0.0002225795502310 0.3522592916734587	-0.159589
C	0.2043756399727917 0.0000970341885626 0.3577439070967816	0.097087
C	0.8036553806661155 0.5002182099498192 0.8522548941869071	-0.159622
C	0.7043487153039867 0.5000921314080213 0.8577210385899923	0.096494
C	0.0002228239379287 0.3036721223991533 0.6477415151518890	-0.159563
C	0.0000968629501201 0.2043756282418827 0.6422568079942833	0.097062
C	0.5002177425836195 0.8036556196933388 0.1477465643847378	-0.159620
C	0.5000919880577567 0.7043485995041224 0.1422806790198894	0.096501
C	0.0000120813659432 0.6969238693084717 0.6477855429909131	-0.165642
C	-0.0003075539315082 0.7962056380144140 0.6420773671233698	0.104870
C	0.5000011141691755 0.1969362403428273 0.1477761621154648	-0.166047
C	0.4996758195382849 0.2962319714839999 0.1420913540043610	0.104891
C	0.3036729208542185 0.0002228235931957 0.6477418695641901	-0.159535
C	0.2043761620384760 0.0000972146219954 0.6422569798428699	0.097072
C	0.8036561138603733 0.5002179385343469 0.1477481299005052	-0.159642
C	0.7043493615171819 0.5000919167571608 0.1422819949334384	0.096548
C	0.6969228281827070 0.0000115163088690 0.6477847196083388	-0.165708
C	0.7962047655647546 -0.0003072155062955 0.6420776941127234	0.104897
C	0.1969363506887683 0.5000004365324959 0.1477770157112555	-0.166060
C	0.2962318894936194 0.4996758471535159 0.1420923625203203	0.104857
C	0.0003010611034968 0.4566798513652460 0.4999999911993454	-0.091865
C	0.0003359072492209 0.3554801764704452 0.5000000954792442	0.159760
C	0.5003068413772827 0.9566685082054747 0.0000001038581055	-0.091800
C	0.5003384692329055 0.8554755382147172 0.0000000014599599	0.159609
C	0.0003508247885751 0.5439020029927771 0.5000002477461070	-0.099674
C	0.0002956831774297 0.6450791140958196 0.5000001088499408	0.165539
C	0.5003579158680503 0.0439172821534232 -0.0000000890062156	-0.099820
C	0.5002924973602079 0.1450766983019731 -0.0000010103531389	0.165953
C	0.5439061003608401 0.0003490851522443 0.4999996941434088	-0.099875
C	0.6450775067133371 0.0002947007794643 0.4999994622177107	0.165620
C	0.0439134402278058 0.5003585836267139 0.0000005009657279	-0.100146
C	0.1450772337380589 0.5002927762797201 -0.0000002022261998	0.166100
C	0.4566746867422571 0.0002995577649140 0.5000005345832241	-0.091706
C	0.3554809553082414 0.0003352221962172 0.5000007842837383	0.159716
C	0.9566723045466106 0.5003076134839943 0.0000012038012554	-0.091530
C	0.8554747392430546 0.5003390644413878 0.0000014377185539	0.159581
H	-0.0001882665134629 0.3404219534015212 0.2347116810221219	0.118726
H	-0.0012587414765984 0.1624932613827382 0.2451885869564251	0.099653
H	0.4998174543016912 0.8404495036777682 0.7347358870189629	0.118725
H	0.4987427417181601 0.6625073469901280 0.7450917083277850	0.099982
H	-0.0003415599924447 0.6598824275920195 0.2349281176008803	0.119520
H	-0.0017872238576574 0.8389140812692327 0.2463327652248712	0.095049
H	0.4996524308911157 0.1598631882425935 0.7349598845332532	0.119401
H	0.4981929168064407 0.3389162547781249 0.7462487238947842	0.094884
H	0.6598805921080778 -0.0003421571705494 0.2349285097633060	0.119519
H	0.8389128125419479 -0.0017866524815342 0.2463330220238665	0.095071
H	0.1598618063571869 0.4996523786070522 0.7349606014988207	0.119424
H	0.3389149100683834 0.4981921084121000 0.7462489772984547	0.094884
H	0.3404217292406707 -0.0001883575138262 0.2347118163157984	0.118745
H	0.1624930012922957 -0.0012586292926025 0.2451882231052149	0.099657
H	0.8404483797445740 0.4998175406801627 0.7347376616427459	0.118698
H	0.6625068792527623 0.4987421841556050 0.7450942428224691	0.099959
H	-0.0001882466833596 0.3404215317279464 0.7652884537109970	0.118725
H	-0.0012586972181473 0.1624931785339883 0.7548118879156230	0.099667
H	0.4998170559959861 0.8404490858960726 0.2652638342120640	0.118724
H	0.4987428037157521 0.6625069504274997 0.2549080310920294	0.099975
H	-0.0003417865061771 0.6598823797150480 0.7650722546499266	0.119514
H	-0.0017874096444301 0.8389136772938314 0.7536662700982178	0.095059
H	0.4996525344029441 0.1598634532088646 0.2650385457507994	0.119387
H	0.4981924257714144 0.3389165603052446 0.2537486080405503	0.094892
H	0.3404224346653899 -0.0001881003204177 0.7652891690078756	0.118721
H	0.1624937990953037 -0.0012582593683709 0.7548118285408114	0.099662
H	0.8404499857964972 0.4998170870438440 0.2652650755223132	0.118710
H	0.6625081806836053 0.4987417200464402 0.2549089779702969	0.099950
H	0.6598814335989714 -0.0003422721600414 0.7650706633451108	0.119515
H	0.8389133453229554 -0.0017867928556912 0.7536672288787495	0.095068
H	0.1598636021916341 0.4996523633297947 0.2650391944237747	0.119397
H	0.3389165056149463 0.4981920984002558 0.2537500528707646	0.094888
Zn	0.0008244153091591 0.0008252803783199 0.4999986485887854	0.733758
Zn	0.5008402504008891 0.5008408000393261 -0.0000006461573368	0.733224
Ga	-0.0003775454004145 -0.0003770913257547 0.0000017066761287	1.447285
Ga	0.4996674762885579 0.4996627596995832 0.4999954618839377	1.446605
N	0.0001254698891116 0.1553353056281082 0.5000001282545964	-0.222777
N	0.5001214043108863 0.6553070513993791 0.0000000703060151	-0.222228
N	-0.0001553410693992 0.8453510429611368 0.4999995929312044	-0.219555
N	0.4998310085464510 0.3453928677319097 -0.0000014578488172	-0.218911
N	0.8453498160521350 -0.0001548256585625 0.5000001032807448	-0.219547
N	0.3453922848821331 0.4998315126215283 -0.0000003987307219	-0.218861
N	0.1553353944805339 0.0001256596021985 0.5000000642953956	-0.222795
N	0.6553074252827350 0.5001216078815447 0.0000015024780024	-0.222186
F	0.0002492571302903 0.0002499680984063 0.7593924537826845	-0.551534
F	0.5002624900912083 0.5002631926018856 0.2588959368814358	-0.551269
F	0.0002488545089993 0.0002503493088953 0.2406130480261368	-0.551513
F	0.5002675885434379 0.5002647121555281 0.7411064219992156	-0.551287
F	0.6257078978975380 0.4644363237862464 0.4999998193822364	-0.561127
F	0.4644408330492534 0.6257015142203836 0.4999937845404434	-0.561107
F	0.4073932109833074 0.4074051767167198 0.4999998129200383	-0.575566
F	0.9074007522368357 0.9073997570491117 -0.0000000879871122	-0.576321
F	0.9643477058033387 0.1255943376654217 -0.0000007239604727	-0.561595
F	0.1255992516938715 0.9643441603969855 0.0000004702342529	-0.561617
	  	
