#======================================================================

# CRYSTAL DATA

#----------------------------------------------------------------------

data_VESTA_phase_1


_pd_phase_name                         GaFFIVE_15_Ni_i
_cell_length_a                         29.79607
_cell_length_b                         28.89548
_cell_length_c                         8.07486
_cell_angle_alpha                      89.99966
_cell_angle_beta                       89.99966
_cell_angle_gamma                      90.00160
_symmetry_space_group_name_H-M         P 1
_symmetry_Int_Tables_number            1

loop_
_symmetry_equiv_pos_as_xyz
   x, y, z

loop_
   _atom_site_label
   _atom_site_fract_x
   _atom_site_fract_y
   _atom_site_fract_z
   _atom_site_charge
C	0.9339784451509812 0.1033577030257019 0.8936287728093777	0.094551
C	0.9016753731551034 0.0687755878831614 0.8993494447760627	-0.168054
C	0.7700746500795871 0.9362081708263447 0.9011943454126515	-0.116074
C	0.7357791458762268 0.9038652334893961 0.9009441845995799	-0.116863
C	0.5673917699062113 0.7409703924032105 0.8934697900593043	0.091519
C	0.6010312221339249 0.7741741962690605 0.8989777438359563	-0.169047
C	0.4344523527731441 0.6031484052303105 0.8934851635284162	0.103729
C	0.4020692526505107 0.5686566658144682 0.8994293715835587	-0.166884
C	0.2700080257579227 0.4362835780910723 0.9010902916942666	-0.113775
C	0.2357248472345447 0.4039001858531477 0.9008514438372204	-0.116273
C	0.0675707986629735 0.2404825725251502 0.8933359057424379	0.103161
C	0.1011666877558484 0.2737147784040994 0.8990550349296972	-0.170291
C	0.0659679636687474 0.8963999684302096 0.3934749747645000	0.104798
C	0.0980530969359624 0.9311883410750921 0.3994269899876598	-0.167003
C	0.2299535525291674 0.0637406643175413 0.4010729283918538	-0.113729
C	0.2642438139393474 0.0961169779208430 0.4008359272267320	-0.115568
C	0.4328409679136928 0.2590873960580579 0.3933557186451980	0.102171
C	0.3990035027483584 0.2261117989975583 0.3990667628749735	-0.169652
C	0.5657883249768159 0.3968901971274525 0.3936180497639180	0.094795
C	0.5978807278863714 0.4316816028375275 0.3993438328099371	-0.167159
C	0.7299682493296439 0.5637132209313112 0.4011847182355872	-0.115608
C	0.7642902802212558 0.5960242973826854 0.4009458771827752	-0.115944
C	0.9323281919278305 0.7592917278502438 0.3934857568950824	0.092872
C	0.8985395169534242 0.7262499004863645 0.3989896739222537	-0.169809
C	0.0658560770780312 0.1037262588640565 0.6065006720445243	0.105269
C	0.0979253848011589 0.0689398156324207 0.6005418266629159	-0.166264
C	0.2296992188474496 0.9364680553468056 0.5988825827122874	-0.115324
C	0.2640010824998567 0.9041223509876268 0.5991221237916086	-0.116479
C	0.4324683658444732 0.7410814406144087 0.6065605939047056	0.091662
C	0.3988225444680030 0.7742937081428010 0.6010678945748471	-0.169232
C	0.5654311015045808 0.6032652241580576 0.6064897789530803	0.104495
C	0.5977913872732677 0.5687713094918756 0.6005317009638746	-0.166581
C	0.7297801268481597 0.4365394780404145 0.5988650666332468	-0.114383
C	0.7640546272745703 0.4041628445891731 0.5991125558555408	-0.117503
C	0.9322286708282786 0.2408306385815723 0.6065373445614305	0.093513
C	0.8984232424490681 0.2738677396870239 0.6010450681802034	-0.170079
C	0.9338738905970527 0.8967851731059562 0.1063867216658082	0.094990
C	0.9015534225557518 0.9313675231994669 0.1006801215649977	-0.166116
C	0.7698146722049581 0.0639732105647204 0.0988973844796843	-0.118473
C	0.7355354685935617 0.0963523018687246 0.0991214332583119	-0.116295
C	0.5670177523472485 0.2592112217848957 0.1066174953361300	0.101444
C	0.6008527766964030 0.2262536685899588 0.1009064056061551	-0.171204
C	0.4340720733032886 0.3970099953675887 0.1064065400827752	0.095639
C	0.4019557769310409 0.4317938888126927 0.1006877986460280	-0.166400
C	0.2697944579418299 0.5639502175263084 0.0989023969789422	-0.118263
C	0.2354653285964982 0.5962722862872173 0.0991153234140936	-0.115624
C	0.0674557105071630 0.7596507404797501 0.1066281184177947	0.102607
C	0.1010382312439583 0.7264178340167690 0.1009137860440557	-0.170490
C	0.0659685773007999 0.8964010804196562 0.1065199782124283	0.104847
C	0.0980538371018556 0.9311893936441049 0.1005701500827096	-0.167028
C	0.2299538596407219 0.0637406124273844 0.0989303744570279	-0.113765
C	0.2642439328255211 0.0961169468972036 0.0991641899435248	-0.115586
C	0.4328414752769313 0.2590873606360541 0.1066406898765667	0.102079
C	0.3990040722119075 0.2261119848222603 0.1009310865107483	-0.169597
C	0.5657894523689286 0.3968900483187998 0.1063812161884479	0.094778
C	0.5978820189088723 0.4316815093950200 0.1006547660452365	-0.167161
C	0.7299688250389493 0.5637135943595303 0.0988177522230310	-0.115649
C	0.7642907763636964 0.5960244598425499 0.0990546906050697	-0.115880
C	0.9323287551535505 0.7592918545679187 0.1065114790452504	0.092858
C	0.8985396975767544 0.7262500966075827 0.1010061158706570	-0.169837
C	0.9339790985216628 0.1033574915857265 0.6063707485212165	0.094472
C	0.9016759543187565 0.0687754675166600 0.6006520295582656	-0.168013
C	0.7700749891594976 0.9362090054570404 0.5988086485773739	-0.116032
C	0.7357794576858917 0.9038659767387446 0.5990586222994551	-0.116826
C	0.5673920168935508 0.7409710513582325 0.6065345650457336	0.091074
C	0.6010314687057305 0.7741747492299899 0.6010263858920164	-0.169005
C	0.4344527281070842 0.6031483984733941 0.6065167626366770	0.103761
C	0.4020697866176399 0.5686568093303392 0.6005738409550107	-0.166941
C	0.2700081676301693 0.4362836482180537 0.5989164141903615	-0.113848
C	0.2357251876676620 0.4039002687152122 0.5991571438381501	-0.116357
C	0.0675714133904064 0.2404830336215377 0.6066675697779613	0.103269
C	0.1011674769839951 0.2737153333586332 0.6009488024064090	-0.170402
C	0.9338744778893109 0.8967843916952489 0.3936033242210222	0.095111
C	0.9015539126368718 0.9313667775141846 0.3993135507906336	-0.166124
C	0.7698145933459483 0.0639734131371943 0.4011045515106170	-0.118515
C	0.7355351639510020 0.0963527280135284 0.4008793991529064	-0.116327
C	0.5670179277212259 0.2592114296576427 0.3933797274381771	0.101516
C	0.6008529166623130 0.2262537730056799 0.3990900691733305	-0.171160
C	0.4340729781303801 0.3970104551009154 0.3935931227986481	0.095758
C	0.4019565954149159 0.4317942065505665 0.3993141909035792	-0.166468
C	0.2697945634756098 0.5639505441422222 0.4011002234453647	-0.118478
C	0.2354653940450910 0.5962726264387984 0.4008877989546899	-0.115636
C	0.0674555762864996 0.7596512688834165 0.3933720644729231	0.102574
C	0.1010379346890224 0.7264183368641990 0.3990903903755728	-0.170517
C	0.0658563193785877 0.1037268139525459 0.8935007760246980	0.105250
C	0.0979253813580170 0.0689402560959025 0.8994615700295141	-0.166314
C	0.2296992028733620 0.9364681476720529 0.9011183581472407	-0.115292
C	0.2640012114158421 0.9041227382697141 0.9008800962083265	-0.116469
C	0.4324687455969543 0.7410815784017155 0.8934394327183286	0.091603
C	0.3988227250400542 0.7742938811497793 0.8989331710060914	-0.169161
C	0.5654312452271407 0.6032652419709332 0.8935126177730447	0.104557
C	0.5977914791611806 0.5687711014136334 0.8994691741441921	-0.166662
C	0.7297797539482708 0.4365392584362170 0.9011370345877556	-0.114385
C	0.7640542590237674 0.4041626450874786 0.9008905787387261	-0.117409
C	0.9322289354777680 0.2408295545502672 0.8934560418169223	0.093432
C	0.8984234151985816 0.2738667704819979 0.8989491232407363	-0.170025
C	0.6532680854076269 0.8252486452724529 0.7500016686378663	-0.103090
C	0.8846606698899416 0.0507412448718058 0.7500015277270718	0.161950
C	0.8220784766754687 0.9864065827897224 0.7500007719720688	-0.100796
C	0.6187968424287602 0.7916772384234957 0.7500021806451227	0.166346
C	0.7876359644957440 0.9529031263300241 0.7500014965966524	0.126362
C	0.7180427533048201 0.8871706733766083 0.7500016883732200	0.137477
C	0.6832027606999380 0.8540854997779398 0.7500026351189305	-0.103382
C	0.8513870271548389 0.0159190042369512 0.7500021209777046	-0.104428
C	0.1531963934591767 0.3251090297942994 0.7500024393643113	-0.105892
C	0.3849119776586533 0.5507318559828482 0.7500020119374007	0.162141
C	0.3220567929690427 0.4865931920465433 0.7500023442426244	-0.096489
C	0.1188525833155288 0.2913306074553600 0.7500019599073229	0.170095
C	0.2875791669109265 0.4530524719024757 0.7500030085542450	0.126219
C	0.2179353834741594 0.3871739210323676 0.7500042752390332	0.137160
C	0.1830725561710881 0.3540227773450103 0.7500051929361766	-0.099191
C	0.3514401858849331 0.5160524992973732 0.7500016726223488	-0.106324
C	0.3465010092507088 0.1752301425126192 0.2499998851154202	-0.104874
C	0.1149018269343792 0.9494299400372164 0.2499995560431991	0.162138
C	0.1776203747181780 0.0137313168514429 0.2500020577992849	-0.097508
C	0.3810453182167203 0.2087929779926554 0.2499996020796294	0.169649
C	0.2122828009389494 0.0470778306985266 0.2500018990091472	0.125471
C	0.2819436697000945 0.1129547855180102 0.2499995166019737	0.137843
C	0.3166355725532390 0.1462948674974517 0.2499991781624946	-0.099879
C	0.1481737076089579 0.9843315084924774 0.2500008887383597	-0.107782
C	0.8463588767951408 0.6751237299928364 0.2499998711862079	-0.102059
C	0.6147744478856954 0.4498355189911615 0.2499987584723677	0.162219
C	0.6776693614584729 0.5138563336714214 0.2500008633405776	-0.102483
C	0.8806962289658482 0.7088396796682525 0.2499982168256591	0.166770
C	0.7123344930930591 0.5471061156322871 0.2500017842863363	0.126017
C	0.7819755655040513 0.6127779172078535 0.2500004740336425	0.139163
C	0.8166171560338691 0.6460819852778549 0.2499995302887077	-0.104289
C	0.6481470784042773 0.4845568214618188 0.2499996532921650	-0.105680
C	0.3465149851129821 0.8253874474690708 0.7500008744264848	-0.104202
C	0.1147694940148642 0.0507355345615459 0.7500023147468794	0.161487
C	0.1774513688154726 0.9864692719206117 0.7500007145198173	-0.098126
C	0.3810277968177395 0.7918012968400161 0.7500006612483554	0.167278
C	0.2120717882172233 0.9531181673895086 0.7500005914263261	0.124894
C	0.2817577935348650 0.8873723725336814 0.7500004298291809	0.140915
C	0.3165766960300933 0.8542347869242152 0.7500015841049565	-0.102567
C	0.1480319274776590 0.0158801814358508 0.7500022907129251	-0.108749
C	0.8462204741355980 0.3250583922465738 0.7499996918322798	-0.103566
C	0.6149131617479662 0.5508471371780543 0.7500004495496170	0.162074
C	0.6777281390726227 0.4867363859567088 0.7499997204126133	-0.095412
C	0.8805685769512370 0.2913086030206068 0.7499976131726599	0.167751
C	0.7122198110592896 0.4532545430923214 0.7500007646576097	0.125517
C	0.7817764891306004 0.3873889430500005 0.7500016407785045	0.141180
C	0.8164579853668964 0.3540981013076249 0.7500009809511993	-0.103629
C	0.6483470720433806 0.5161880834596922 0.7499997929080170	-0.108449
C	0.6532903435336311 0.1753806888427357 0.2499980732722657	-0.106946
C	0.8845293967106692 0.9494260940451364 0.2499979945949326	0.159473
C	0.8219191751917382 0.0137904571293459 0.2500018275100284	-0.101825
C	0.6187897336398026 0.2089366934953923 0.2499981358674252	0.171720
C	0.7874255315388874 0.0472716140842953 0.2500009933505051	0.128934
C	0.7178502674795213 0.1131525647621098 0.2499996564035654	0.136977
C	0.6831431822580896 0.1464443069225661 0.2499985066261227	-0.099958
C	0.8512423202020887 0.9842742243575354 0.2500000454788787	-0.100781
C	0.1530303322408197 0.6750750837645971 0.2500029073543005	-0.105132
C	0.3850207948302130 0.4499363820431073 0.2500012651687125	0.158938
C	0.3220887462904441 0.5139784213822772 0.2500015942531734	-0.103862
C	0.1187044599507794 0.7088227592677266 0.2500024587731668	0.171278
C	0.2874403919635272 0.5472865407522643 0.2500013153791147	0.128573
C	0.2177070170362486 0.6129850254843763 0.2500015225208715	0.138776
C	0.1828855645460312 0.6461420838897988 0.2500018591791757	-0.101515
C	0.3515936909696931 0.4846472308147154 0.2500018256339503	-0.102297
H	0.9481018322571887 0.1173149255409466 0.0074636985152022	0.098823
H	0.8898947793483897 0.0558464309349366 0.0183035277123053	0.119863
H	0.7838645679468678 0.9491460575097246 0.0173418028194934	0.106244
H	0.7220654643845426 0.8909432658151502 0.0170980936880705	0.114932
H	0.5538359657037947 0.7265147279645064 0.0074197487289581	0.097405
H	0.6134950979208615 0.7862273744288613 0.0180183363889329	0.123600
H	0.4488476147123994 0.6174361819088056 0.0062512264251775	0.092273
H	0.3902017690705272 0.5556839465803518 0.0181942900344192	0.120103
H	0.2838152061460947 0.4491447722269118 0.0173443836952113	0.106506
H	0.2220958051748190 0.3909396037961141 0.0171124065771841	0.114861
H	0.0536806329354658 0.2257496675531183 0.0062218872296798	0.090498
H	0.1136673511088584 0.2858552521304167 0.0179101694168421	0.124586
H	0.0526353468062102 0.8810265068886798 0.5062005882928474	0.092429
H	0.1100510918798328 0.9440263048985009 0.5181939658558639	0.120292
H	0.2161928694304942 0.0508357700513247 0.5173456672353635	0.106109
H	0.2779189884360936 0.1090098237430498 0.5171180098360101	0.114890
H	0.4477542192058295 0.2727424417471583 0.5062246579476412	0.091105
H	0.3866417537407132 0.2138080512429124 0.5179056030938659	0.124393
H	0.5528514620241296 0.3817360029671081 0.5074090372526836	0.098277
H	0.6098534723719958 0.4444210975856978 0.5182892307127658	0.119246
H	0.7161458568838567 0.5508168542664456 0.5173400378212260	0.105829
H	0.7779795418054892 0.6089683155808346 0.5171064758111853	0.114766
H	0.9470360377930120 0.7725546101217530 0.5073697729484523	0.097292
H	0.8862755961297700 0.7139696509203021 0.5180329002417919	0.123623
H	0.0525217912319684 0.1190981851215109 0.4937835033683902	0.091515
H	0.1099468063201136 0.0560791947920218 0.4818297707298342	0.119683
H	0.2159376967514039 0.9494027093354016 0.4826839221223376	0.106399
H	0.2776492427068264 0.8911737155154906 0.4828701044574402	0.115194
H	0.4460260486872737 0.7266253489226119 0.4925892262682371	0.097617
H	0.3863921427405381 0.7863343182594151 0.4819633590495230	0.123591
H	0.5510502772053330 0.6175705862718298 0.4937449311723528	0.091616
H	0.6096891945632683 0.5557846435539461 0.4818185232038534	0.120190
H	0.7159315867214787 0.4493888402851807 0.4826851900874435	0.106857
H	0.7777269821416127 0.3912328602481950 0.4828687191240474	0.115097
H	0.9469342110812340 0.2275652421475666 0.4926355875186503	0.097130
H	0.8861815916450493 0.2861283270949165 0.4819532714750419	0.123697
H	0.9479920516934968 0.8828229605519752 0.9925499111698014	0.098610
H	0.8897893899101431 0.9442629709224849 0.9816642701376342	0.119572
H	0.7835908084368619 0.0510668296957348 0.9826430428984635	0.107945
H	0.7218032237005417 0.1092260803480219 0.9829158495407021	0.115012
H	0.5521103078328331 0.2728882174833972 0.9937912043543699	0.091071
H	0.6132450885918367 0.2139333294768244 0.9821195272592995	0.124969
H	0.4470192721513285 0.3818667926961524 0.9925968943891500	0.098099
H	0.3900193695624213 0.4445181000593637 0.9816785433373294	0.119137
H	0.2835706400009634 0.5510505771018190 0.9826465858549972	0.107064
H	0.2218275774357824 0.6092461126665899 0.9829159863965613	0.115013
H	0.0535617442999815 0.7743805041752445 0.9937623444441747	0.090582
H	0.1135628019645997 0.7142507424709468 0.9821169812886866	0.124777
H	0.0526365813697417 0.8810287787248441 0.9937926820657117	0.092346
H	0.1100529454218188 0.9440284566185845 0.9818055460495576	0.120330
H	0.2161932389833966 0.0508359922751091 0.9826589625249655	0.106119
H	0.2779195418681005 0.1090098015976551 0.9828817042395201	0.114887
H	0.4477552200449808 0.2727424196629669 0.9937712664274948	0.091115
H	0.3866425007357582 0.2138083180917981 0.9820935407119993	0.124390
H	0.5528530624936652 0.3817358215232147 0.9925903528081365	0.098267
H	0.6098554877463321 0.4444210075360561 0.9817084868269831	0.119244
H	0.7161468853445802 0.5508174034810506 0.9826627072578548	0.105814
H	0.7779804079592204 0.6089690612900758 0.9828943021301657	0.114770
H	0.9470368828611969 0.7725550111549115 0.9926274067515473	0.097293
H	0.8862767707011743 0.7139702292869674 0.9819615583492178	0.123628
H	0.9481023083449308 0.1173149324038646 0.4925347445298594	0.098845
H	0.8898957772611145 0.0558464647136116 0.4816993977504692	0.119891
H	0.7838652023791122 0.9491471929829798 0.4826607251602913	0.106208
H	0.7220662931092302 0.8909441260204658 0.4829052638403640	0.114929
H	0.5538361919326955 0.7265160692887078 0.4925850648809632	0.097601
H	0.6134956965965770 0.7862285062546529 0.4819850994710962	0.123651
H	0.4488480324649858 0.6174367818589560 0.4937501333499718	0.092273
H	0.3902026080676955 0.5556846959117839 0.4818071973056247	0.120093
H	0.2838155945334912 0.4491450806428774 0.4826614596989989	0.106540
H	0.2220962376988382 0.3909399423497085 0.4828966342050430	0.114905
H	0.0536816829834006 0.2257505998412239 0.4937818042701411	0.090487
H	0.1136685241882724 0.2858561936006994 0.4820936515489970	0.124601
H	0.9479933736971899 0.8828220450096419 0.5074390644182444	0.098567
H	0.8897906934415679 0.9442618366727080 0.5183313036006608	0.119585
H	0.7835904071866707 0.0510672741346755 0.5173588366380993	0.107957
H	0.7218028723326022 0.1092266219213816 0.5170844968580649	0.115030
H	0.5521105746625635 0.2728883503817328 0.5062066470758799	0.091023
H	0.6132452178477742 0.2139333325463175 0.5178767852608642	0.124940
H	0.4470206308867570 0.3818673735697787 0.5074015970137971	0.098089
H	0.3900206647863074 0.4445182671190993 0.5183240455583006	0.119126
H	0.2835707730102337 0.5510509621665978 0.5173557868419438	0.107166
H	0.2218276203565458 0.6092465681528271 0.5170867764840162	0.115044
H	0.0535614643788979 0.7743820411414424 0.5062372370018496	0.090605
H	0.1135620055681528 0.7142517170953299 0.5178881918039404	0.124819
H	0.0525220864227391 0.1190995443236984 0.0062162039762306	0.091547
H	0.1099463465635361 0.0560800991247717 0.0181748611303827	0.119717
H	0.2159371711201715 0.9494030358129009 0.0173167638368847	0.106397
H	0.2776488956155286 0.8911740163355071 0.0171330599751545	0.115190
H	0.4460262669813670 0.7266255007417756 0.0074110795487873	0.097634
H	0.3863924473804521 0.7863344896080902 0.0180377549932841	0.123572
H	0.5510499779701510 0.6175698557320665 0.0062572533959269	0.091613
H	0.6096893620260675 0.5557842225128165 0.0181817576952117	0.120199
H	0.7159312719558413 0.4493889949263284 0.0173169954479125	0.106871
H	0.7777263847948593 0.3912324907976730 0.0171345255531538	0.115073
H	0.9469340072833934 0.2275631243522787 0.0073562073301679	0.097098
H	0.8861819754483173 0.2861270733015505 0.0180415320000509	0.123662
Ni	0.4999438596207467 0.6731511651754759 0.7499985518244715	0.759417
Ni	-0.0003530671564581 0.1729185184838534 0.7500011291783248	0.760087
Ni	0.4999384983043572 0.3274840663748317 0.2499992479694279	0.759461
Ni	-0.0003777625557167 0.8272032820448054 0.2500035735705198	0.759562
Ga	0.4999592018033547 0.6708109823367376 0.2499928963609242	1.446060
Ga	0.0022024475238572 0.1731561929107751 0.2500023919720465	1.446980
Ga	0.4999017644841967 0.3250964853336427 0.7499940327759261	1.445804
Ga	0.0021924521250643 0.8269150353327932 0.7500070077754467	1.447272
F	0.4999060461561564 0.6078188454780029 0.2499882438313396	-0.563994
F	0.9738965171906674 0.2291100117622027 0.2500250618257188	-0.554427
F	0.9739269260916720 0.1171886867731574 0.2499913482530119	-0.551607
F	0.4996174744744422 0.2621152175820748 0.7499951020837351	-0.567777
F	0.9739458744663461 0.7709219289395368 0.7499831101932760	-0.554632
F	0.9738376322756535 0.8828431381585925 0.7499909266640176	-0.551802
F	0.5541582044054695 0.7000866722511440 0.2499926026840140	-0.553230
F	0.0633384122615283 0.1731867856095677 0.2499926600972999	-0.567112
F	0.4456833724560391 0.3543519655362884 0.7499894034251292	-0.552458
F	0.4457909256491118 0.7001505810007690 0.2499846619312782	-0.553290
F	0.5541977417196282 0.3541688040437075 0.7499869507954511	-0.552471
F	0.0633326931660794 0.8269588378443529 0.7500090904539995	-0.567041
F	0.4998917845563337 0.6728275068919949 0.4946242767848269	-0.552043
F	0.0000834541297798 0.1730546112483179 0.4945967613922899	-0.552481
F	0.4998974925813326 0.3271299068298940 -0.0053095356539725	-0.552526
F	0.0000473944041872 0.8270792788474379 -0.0054486637609136	-0.552528
F	0.4998940136235434 0.6728259879681431 0.0053657179738740	-0.552059
F	0.0000912022526897 0.1730477255534995 0.0054032684825549	-0.552496
F	0.4998948491266136 0.3271293878709316 0.5052947302906383	-0.552510
F	0.0000666379036409 0.8270800381466094 0.5054552472188192	-0.552529
N	0.5505871724104522 0.7244419845717940 0.7500022506729954	-0.233872
N	0.9499550188800312 0.1206443350743501 0.7499997496025291	-0.233495
N	0.0506636265461177 0.2240382753467374 0.7500009404113829	-0.232524
N	0.4503721524558385 0.6205133379837704 0.7500008868289818	-0.230128
N	0.4495705161956348 0.2757106380248559 0.2499986006754145	-0.231214
N	0.0498951921796533 0.8791902249226643 0.2499974550053500	-0.229937
N	0.9491106509561961 0.7758352932813979 0.2499978797091772	-0.234190
N	0.5498150933478619 0.3796041003147173 0.2499985683918258	-0.232259
N	0.4492646250543298 0.7245271279326084 0.7499999918121630	-0.233251
N	0.0498107282860890 0.1209512604077803 0.7500003041497424	-0.230267
N	0.9490378748740108 0.2242956800268884 0.7499958373101943	-0.235593
N	0.5495067714915153 0.6206158809584685 0.7500008739045105	-0.232043
N	0.5502767986046649 0.2758050493448080 0.2499988526802015	-0.229908
N	0.9498703737060094 0.8795085713593170 0.2499948059218828	-0.234268
N	0.0505699437445917 0.7760944806770046 0.2500000171040695	-0.231952
N	0.4500399941500991 0.3797076163887008 0.2499993538575455	-0.232322
	  	
