#======================================================================

# CRYSTAL DATA

#----------------------------------------------------------------------

data_VESTA_phase_1


_pd_phase_name                         GaFFIVE_1_Fe
_cell_length_a                         11.09357
_cell_length_b                         11.25596
_cell_length_c                         8.16124
_cell_angle_alpha                      90.11702
_cell_angle_beta                       89.88515
_cell_angle_gamma                      90.09752
_symmetry_space_group_name_H-M         P 1
_symmetry_Int_Tables_number            1

loop_
_symmetry_equiv_pos_as_xyz
   x, y, z

loop_
   _atom_site_label
   _atom_site_fract_x
   _atom_site_fract_y
   _atom_site_fract_z
   _atom_site_charge
C	0.2576287631076754 0.4574584870325356 0.3689584883145578	0.096006
C	0.1323460976885671 0.4569307375849024 0.3649080642430817	-0.174495
C	0.7433616618506115 0.5411963552621730 0.3697983800727553	0.100755
C	0.8685473202084196 0.5423833852046004 0.3652993593517527	-0.173147
C	0.5416626642878710 0.2538294454669908 0.3705839523097154	0.099648
C	0.5425985723694348 0.1304226266185192 0.3655138348038924	-0.175263
C	0.4590714365480101 0.7468027332171499 0.3690454755535754	0.094871
C	0.4578898066221726 0.8702941032895205 0.3649161120418845	-0.173786
C	0.7429480573348588 0.4585708289994999 0.6303072647816554	0.095494
C	0.8681929332044833 0.4574448235547146 0.6344023606442231	-0.172835
C	0.2576040034410987 0.5423781315172276 0.6287726938739649	0.097999
C	0.1324363124957697 0.5431796315347762 0.6338054143802888	-0.174574
C	0.4578089714375213 0.2538671098207559 0.6317108623569057	0.096044
C	0.4572232415969384 0.1303383659251658 0.6357873326270778	-0.173673
C	0.5407579715359075 0.7472243046799928 0.6308334716176655	0.099357
C	0.5420328033743316 0.8706577774026032 0.6353773458651741	-0.173417
C	0.0669960243914219 0.5000469161694217 0.4994803579404331	0.099182
C	0.9337771956893213 0.4999061474816912 0.4997917262706473	0.094210
C	0.4999271955639115 0.0660562422806183 0.5005200439358183	0.101739
C	0.4999378974283599 0.9348083396898900 0.5002145992473306	0.097381
H	0.3111522299657807 0.4252462036679421 0.2657062316871047	0.104074
H	0.0861430883930180 0.4213622830586258 0.2577830985692710	0.123910
H	0.6897066117633315 0.5704501633755282 0.2661864252173409	0.100335
H	0.9147936215591541 0.5773350020856657 0.2577519566111794	0.121187
H	0.5744421695191921 0.3071275535419718 0.2684181291799272	0.100059
H	0.5783600740360147 0.0849606874368779 0.2579701751334363	0.121635
H	0.4291992548666467 0.6943521859703529 0.2641671575613832	0.106430
H	0.4225370033015853 0.9153369551521521 0.2572756142078897	0.123711
H	0.6896837833498903 0.4288030357368235 0.7347741190187269	0.105076
H	0.9137801801853986 0.4222073393829034 0.7419412209682344	0.123425
H	0.3118796762602825 0.5750094147362920 0.7304316999333210	0.100070
H	0.0863400784000276 0.5788260625230561 0.7411772358489445	0.121688
H	0.4253670379496506 0.3065507208780481 0.7353108769712650	0.104997
H	0.4217034886991954 0.0847579519891217 0.7431485019667788	0.123500
H	0.5701997063069058 0.6945129646698204 0.7348764308830225	0.102107
H	0.5769994307126696 0.9162630796488651 0.7431547218459941	0.120756
Fe	0.5001355771074412 0.5001591001583031 0.4998237881299158	0.601956
Ga	0.4989465216102005 0.4986548319962216 -0.0000685664956613	1.449134
F	0.5006942276733369 0.4993749689423433 0.7624944605543174	-0.540470
F	0.4990701407045425 0.5016738268041159 0.2374955348955977	-0.540167
F	0.3823924311818663 0.3824445092394766 0.0003481401904669	-0.590097
F	0.6583075618961004 0.4541460116059816 0.0028190401937559	-0.590464
F	0.4553206498343363 0.6562830871288986 0.9969891851351068	-0.591110
N	0.3195561608469286 0.4999800876873237 0.4988304758759453	-0.195955
N	0.6811822719252415 0.4999432869573426 0.5000646685611280	-0.200203
N	0.4997711072938203 0.3146154391267057 0.5011653552509392	-0.191243
N	0.4999970024807387 0.6862368147664817 0.4999373418722677	-0.195838
	  	
