#======================================================================

# CRYSTAL DATA

#----------------------------------------------------------------------

data_VESTA_phase_1


_pd_phase_name                         GaFFIVE_3_Cu
_cell_length_a                         13.80707
_cell_length_b                         13.80686
_cell_length_c                         8.24613
_cell_angle_alpha                      89.99769
_cell_angle_beta                       89.99616
_cell_angle_gamma                      91.10336
_symmetry_space_group_name_H-M         P 1
_symmetry_Int_Tables_number            1

loop_
_symmetry_equiv_pos_as_xyz
   x, y, z

loop_
   _atom_site_label
   _atom_site_fract_x
   _atom_site_fract_y
   _atom_site_fract_z
   _atom_site_charge
C	0.2584390815553734 0.4505723806477285 0.6330790481684050	0.058556
C	0.2381850599883399 0.0517728112392197 0.6446985635084302	0.067160
C	0.2395858902985850 0.4506278247358348 0.3544894496118665	0.059956
C	0.2577380059454044 0.0514421306258118 0.3665522671419127	0.063795
C	0.0513517506098503 0.2577929741335908 0.3664131203893783	0.064077
C	0.4507376793621009 0.2395826843804784 0.3545438351067821	0.060394
C	0.4506838030780987 0.2584317362269945 0.6332279571759092	0.058660
C	0.0516864871728900 0.2382168923535330 0.6446330523804680	0.067028
C	0.9506681345239357 0.2395949063874833 0.6454665045803646	0.060545
C	0.5514163655511540 0.2577865063910431 0.6335843259051638	0.063430
C	0.5517564409051601 0.2382030513534686 0.3553392838081404	0.067377
C	0.9506136234251131 0.2584325148507966 0.3667672085863808	0.058774
C	0.7382272600275273 0.0517353672870183 0.3553449203041718	0.066762
C	0.7584435779503039 0.4505869637923214 0.3667616689873576	0.058225
C	0.7577978255774631 0.0513934946908220 0.6335783393384896	0.063234
C	0.7396126943563307 0.4506444467126215 0.6454588649174343	0.060308
C	0.4506717419986764 0.7395705105160886 0.6454786542518335	0.060048
C	0.0513342121476440 0.7577584150572623 0.6334094104770620	0.063738
C	0.0516924358657634 0.7381921429585581 0.3553009229003451	0.066290
C	0.4506310905616281 0.7584072207595978 0.3669063551302055	0.058259
C	0.2381874696640035 0.5517068304205579 0.3553108549106236	0.066649
C	0.2584153632104936 0.9506514329704915 0.3669158735405934	0.058891
C	0.2577571909593254 0.5513613579696225 0.6334157698432884	0.064155
C	0.2395640517461129 0.9506905919665096 0.6454748444638361	0.060101
C	0.7584385348976248 0.9506541441326652 0.6332288274197055	0.058493
C	0.7382226313093327 0.5516688385916009 0.6446323087203291	0.066809
C	0.7395955352952084 0.9507097932824843 0.3545423320717613	0.060307
C	0.7578014548800035 0.5513296922698174 0.3664130331431736	0.064096
C	0.5514217409733370 0.7577261096868280 0.3665459398441113	0.063854
C	0.9506101274247322 0.7395823611113465 0.3544877058766618	0.059849
C	0.9505434585806339 0.7584336119289516 0.6330730362491751	0.058490
C	0.5517535699440186 0.7381845761536200 0.6446830423846073	0.066646
H	0.2634574092816710 0.4098074914527162 0.7457877092207194	0.121812
H	0.2280809147695235 0.0923967522518264 0.7568143722465301	0.118553
H	0.2323809647016712 0.4105863197250354 0.2407797673814819	0.120929
H	0.2633118665518013 0.0926759626696751 0.2543045878698502	0.118491
H	0.0926557951795654 0.2633967552707546 0.2542424157649719	0.118542
H	0.4106151314358928 0.2323840530955763 0.2409258832300634	0.120428
H	0.4098567054769789 0.2634317158063543 0.7458817932534927	0.121711
H	0.0924023170433593 0.2281129540186580 0.7566407362517839	0.118451
H	0.9105439028369290 0.2324004991175332 0.7590827695884649	0.120555
H	0.5927258866652962 0.2633963594078482 0.7457414894411541	0.118720
H	0.5924737307798811 0.2280978738171455 0.2433290863131150	0.118412
H	0.9097823738409156 0.2634301700405802 0.2541374956024596	0.121681
H	0.7281230224102628 0.0924471816432871 0.2433262631824092	0.118807
H	0.7634401920396702 0.4097467055154938 0.2541318319915132	0.122050
H	0.7633925267105435 0.0926977998984713 0.7457428602278208	0.118939
H	0.7324192856776762 0.4105155381195273 0.7590758822330501	0.120758
H	0.4106157903929399 0.7323572362245616 0.7591934538668479	0.121053
H	0.0925699281447973 0.7633400003437071 0.7456468790419400	0.118734
H	0.0923295151585543 0.7280687947890045 0.2431891295337299	0.118946
H	0.4098587516397861 0.7634195860785480 0.2542041337312541	0.122243
H	0.2280677229944115 0.5923435047021187 0.2432047469779395	0.118648
H	0.2634375369378563 0.9098936894715115 0.2542059891052272	0.121844
H	0.2633510526118809 0.5925959795788295 0.7456523448061281	0.118390
H	0.2323523682357758 0.9106489014677687 0.7591923609427897	0.120844
H	0.7634382912810389 0.9098318817986646 0.7458834928810035	0.122013
H	0.7281137760953154 0.5923723858889686 0.7566485251245030	0.118732
H	0.7323896663132921 0.9105969286748492 0.2409173391681340	0.120807
H	0.7634096347206654 0.5926166759774126 0.2542360418570416	0.118860
H	0.5926550127363982 0.7632988732059125 0.2543034714513789	0.118682
H	0.9105699091123148 0.7323771429769366 0.2407820970997714	0.121335
H	0.9097745022160639 0.7634477679530486 0.7457812638152548	0.122210
H	0.5923846472166781 0.7280838703505995 0.7567880166594501	0.118969
Cu	0.2507598650119229 0.2507453687714890 0.4983318674041265	0.716557
Cu	0.7507542800229758 0.2507281151264898 0.5016585899887176	0.713442
Cu	0.2507189986503288 0.7507458099003581 0.5016711784169848	0.713778
Cu	0.7507335987463504 0.7507405333326480 0.4983495214951644	0.710016
Ga	0.2512918805948978 0.2512378784605567 -0.0038348705269568	1.439114
Ga	0.7512871772753139 0.2512079460482989 0.0038501974842902	1.438659
Ga	0.2511741189385523 0.7513135279142699 0.0038708704399657	1.438598
Ga	0.7511948322385543 0.7512779291877212 -0.0037868734706155	1.437771
F	0.2558840471334209 0.2560096892743227 0.7606477644636280	-0.590078
F	0.2472461384847870 0.2471774640337254 0.2314575830378951	-0.591670
F	0.1569848367322532 0.1568076939504652 -0.0184155591847121	-0.565062
F	0.2177473881995033 0.3789757405753005 -0.0002351832908457	-0.561307
F	0.3789576764446290 0.2175626670476215 -0.0004122022796445	-0.561245
F	0.7473069202548005 0.2472344360234689 0.7685234506690725	-0.591561
F	0.7559441733487531 0.2559365536174000 0.2393983683353286	-0.590016
F	0.6569633668072680 0.1567949120231217 0.0183805375518314	-0.565299
F	0.7176107469497813 0.3788791318536688 0.0003736468961700	-0.561548
F	0.8789833171474176 0.2176347495746333 0.0004223801488906	-0.561586
F	0.2470739355256503 0.7471813737248980 0.7685898585169583	-0.591634
F	0.2559923019000844 0.7560477263561388 0.2392502363010431	-0.589911
F	0.1567185244366891 0.6570334473522818 0.0187108635590972	-0.565227
F	0.2176616691269801 0.8790464283101932 0.0002883131456643	-0.561507
F	0.3788130677951874 0.7174489198876300 0.0002209408225226	-0.561654
F	0.7559457669080639 0.7559242148393785 0.7607359885763574	-0.589766
F	0.7472277598222182 0.7472601692539290 0.2315121122061933	-0.591423
F	0.6567762880947303 0.6569556498960497 -0.0183607962893135	-0.565529
F	0.7175001528778880 0.8789423443043842 -0.0003610025634796	-0.561721
F	0.8789103745875875 0.7176701096916496 -0.0002845904155539	-0.561824
N	0.4009131721475856 0.2501347091129439 0.4934545543042696	-0.187457
N	0.1014156958873273 0.2483059978194813 0.5051576391454506	-0.184793
N	0.2501512623411119 0.4008146904748899 0.4933492023318283	-0.187077
N	0.2482572047386749 0.1014900300225127 0.5052733804576479	-0.184021
N	0.9008513606586188 0.2501392293395999 0.5065568192285803	-0.187296
N	0.6014712386032358 0.2482858185428594 0.4948190211030949	-0.183935
N	0.7501577405535685 0.4008224051694026 0.5065481339333461	-0.186554
N	0.7483067964105244 0.1014560475209698 0.4948224748241384	-0.183424
N	0.4008531704810100 0.7501277107064379 0.5066305002258553	-0.186694
N	0.1014094526048442 0.7482675703389351 0.4947172650612389	-0.183237
N	0.2501222838595488 0.9008718968439956 0.5066299172195380	-0.187265
N	0.2482599909061219 0.6014301107005053 0.4947242412254655	-0.183585
N	0.9007919106782285 0.7501443549110591 0.4933461588136320	-0.186122
N	0.6014728463124627 0.7482472988026861 0.5052571419523929	-0.182734
N	0.7501370707964069 0.9008799604718264 0.4934539312009275	-0.186423
N	0.7483015709686275 0.6014003139721658 0.5051550045346610	-0.183851
	  	
