#======================================================================

# CRYSTAL DATA

#----------------------------------------------------------------------

data_VESTA_phase_1


_pd_phase_name                         GaFFIVE_6_Co_i
_cell_length_a                         17.42687
_cell_length_b                         17.42735
_cell_length_c                         16.12484
_cell_angle_alpha                      90.00175
_cell_angle_beta                       90.00120
_cell_angle_gamma                      89.98772
_symmetry_space_group_name_H-M         P 1
_symmetry_Int_Tables_number            1

loop_
_symmetry_equiv_pos_as_xyz
   x, y, z

loop_
   _atom_site_label
   _atom_site_fract_x
   _atom_site_fract_y
   _atom_site_fract_z
   _atom_site_charge
N	0.2440251154140305 0.1375861820784995 0.1278633496829728	-0.191624
N	0.2564382785964512 0.3623450801262829 0.1283003681596382	-0.190699
N	0.3619811942998696 0.2435201386155063 0.1283862450086978	-0.190543
N	0.1380329047768449 0.2560202689691845 0.1274236013074823	-0.189993
N	0.7564901092380191 0.6380030835984682 0.3716199718135780	-0.190569
N	0.7439704922805040 0.8619912360327089 0.3725830050897037	-0.190369
N	0.6376627576330857 0.7435649988984080 0.3716972764478337	-0.190750
N	0.8624076933706191 0.7559858586858744 0.3721428475510692	-0.191690
N	0.7564736050664886 0.8619582604681123 0.8717119047360221	-0.189539
N	0.7439588747915927 0.6379484437531664 0.8721706773995617	-0.190470
N	0.6376266238723919 0.7559690800055152 0.8725782979607271	-0.192018
N	0.8623574949382304 0.7435617947740634 0.8716327434356733	-0.189850
N	0.2440306292559105 0.3623702153275470 0.6274229900112842	-0.191746
N	0.2564361949237039 0.1376332544352561 0.6283681391129152	-0.189620
N	0.3620362108931359 0.2560223449573565 0.6278430360909605	-0.190611
N	0.1380592695706915 0.2435209701405116 0.6282909456614925	-0.189610
C	0.2021087986749929 0.1004996578210746 0.1856954955528843	0.098639
C	0.1936031276408821 0.0213588014589044 0.1849150039452809	-0.178276
C	0.2321534801409633 0.9776600296300461 0.1249734584621943	0.108997
C	0.2771915165133149 0.0169304138271360 0.0667213019042523	-0.179228
C	0.2806751310479295 0.0964408565490013 0.0689838221362770	0.096405
C	0.2260876810737582 0.8934584019905533 0.1236844681080597	0.061792
C	0.2916605238809126 0.8487068926678752 0.1206106648737594	-0.174006
C	0.2870772931733006 0.7678056474666576 0.1218790957918403	0.084248
C	0.1463833848018359 0.7791456209187734 0.1244626353726523	-0.123303
C	0.1527783034010534 0.8577812600353679 0.1266769717301964	-0.135602
C	0.2980655955937547 0.3992321728030249 0.1867259008292117	0.089906
C	0.3064331608604695 0.4784447315145679 0.1860834115940691	-0.181264
C	0.2680997725220370 0.5222510862996023 0.1259719816613596	0.106476
C	0.2236877732258692 0.4830382474402550 0.0671912366914989	-0.178319
C	0.2203597989935990 0.4034898829333302 0.0689607674945795	0.091365
C	0.2740153121380315 0.6064891019464966 0.1246409838795200	0.062656
C	0.2084018151613435 0.6512111185990518 0.1213100921758381	-0.173884
C	0.2129032820831285 0.7321428019025573 0.1220503250488560	0.084112
C	0.3535949472831546 0.7208445954706835 0.1246237294170015	-0.123877
C	0.3473021930793823 0.6422161620695254 0.1274292229868269	-0.136767
C	0.3988361024095724 0.2013317012127986 0.1861685374148532	0.091617
C	0.4780138982368259 0.1927935041523243 0.1856214636654596	-0.181293
C	0.5220459450654475 0.2314039016601841 0.1258313959596812	0.110632
C	0.4827176131102406 0.2763480645996019 0.0675600212319581	-0.175358
C	0.4032157751382878 0.2798984481283726 0.0695666927256000	0.099196
C	0.6064168310549177 0.2255287481197961 0.1244678611530618	0.061362
C	0.6509885267485216 0.2912622491236304 0.1212396333744988	-0.173417
C	0.7319845115408914 0.2869393951722947 0.1219695954327986	0.082980
C	0.7211550419081988 0.1461453754019271 0.1245419475093362	-0.122434
C	0.6424765122707768 0.1523650955684172 0.1272699822127249	-0.135370
C	0.1009874329892429 0.2975608390234202 0.1856295146832472	0.090913
C	0.0218352062416520 0.3061888069654520 0.1846832049373146	-0.178701
C	0.9779764680557204 0.2681638659944833 0.1244317519934389	0.106516
C	0.0174830191006897 0.2234159435836578 0.0659761855147217	-0.181243
C	0.0970471625327584 0.2197706088218076 0.0681418348850207	0.091677
C	0.8935986295307513 0.2741626371530306 0.1232883667321236	0.061558
C	0.8489250844142749 0.2085205595886821 0.1202988027939814	-0.174246
C	0.7679420293499359 0.2128196833601018 0.1217200918601243	0.085513
C	0.7788451623249734 0.3535896684638746 0.1244421458619861	-0.123949
C	0.8575584207124073 0.3473528582235895 0.1264431221943507	-0.135126
C	0.7986703971586152 0.6011485804855499 0.3138392684595521	0.091796
C	0.8071943399738598 0.5219796654605233 0.3143750297035368	-0.181410
C	0.7685886612188509 0.4779351673950415 0.3741563918813430	0.110725
C	0.7236595802183489 0.5172687950726481 0.4324356738530754	-0.175426
C	0.7201206376804812 0.5967616981940734 0.4304372287859524	0.099197
C	0.7744692673421688 0.3935684743064348 0.3755252714167275	0.061122
C	0.7087390223152126 0.3490014900316579 0.3787584738047294	-0.173182
C	0.7130584347519540 0.2680171736583959 0.3780228188194822	0.082911
C	0.8538581449482333 0.2788438853222167 0.3754505569032258	-0.122712
C	0.8476303759805888 0.3575127620775933 0.3727214261483995	-0.135430
C	0.7024418343035098 0.8990387043182858 0.3143740723616006	0.091395
C	0.6938254822595108 0.9781821106750366 0.3153136930414753	-0.178822
C	0.7318453639999531 0.0220514935251599 0.3755587316984673	0.106548
C	0.7765772658217516 0.9825399585674198 0.4340205837089591	-0.181411
C	0.7802114614645218 0.9029836791175536 0.4318611091298110	0.091769
C	0.7258381353599583 0.1064248315053464 0.3767026679809098	0.061533
C	0.7914804512348911 0.1510897898393237 0.3796991124916727	-0.174315
C	0.7871824282219632 0.2320601684184748 0.3782704047000476	0.085681
C	0.6464060564851517 0.2211620101897025 0.3755574624254047	-0.123901
C	0.6526494793304295 0.1424581895293480 0.3735538929413743	-0.135109
C	0.6007846787368814 0.7019246825757718 0.3132693912115800	0.090057
C	0.5215657178391589 0.6935562898813272 0.3139168579708759	-0.181347
C	0.4777667719902707 0.7318957022771586 0.3740275667529321	0.106428
C	0.5169655248235995 0.7763079852622428 0.4328127556949491	-0.178015
C	0.5965207500225841 0.7796450778726191 0.4310456210411612	0.091325
C	0.3935267708418743 0.7259866069905896 0.3753504818280091	0.062552
C	0.3488016086290619 0.7915999674953186 0.3786763791750906	-0.173719
C	0.2678587702058788 0.7870931631529178 0.3779385596224712	0.084065
C	0.2791650940185242 0.6464041136306374 0.3753614270317739	-0.124123
C	0.3578033514492703 0.6526923058237196 0.3725584517233059	-0.136483
C	0.8994963899391084 0.7979087488703104 0.3143060625738922	0.098768
C	0.9786453319812630 0.8064050508037597 0.3150855957737371	-0.178399
C	0.0223258661289432 0.7678470368095991 0.3750293030170870	0.109356
C	0.9830634765403724 0.7228097448802708 0.4332835594465712	-0.179365
C	0.9035470487882941 0.7193266167315909 0.4310265319669655	0.096335
C	0.1065317583935163 0.7739066142088666 0.3763136456524191	0.061885
C	0.1512881452673345 0.7083337738657129 0.3793811760174224	-0.174079
C	0.2322043837911870 0.7129171034707077 0.3781108892391892	0.084311
C	0.2208518828391940 0.8536089028390439 0.3755358490916179	-0.123268
C	0.1422049933372803 0.8472209866512453 0.3733281605534519	-0.135727
C	0.7981123879241009 0.8987655683033424 0.8133489585027972	0.089180
C	0.8066656987161479 0.9779580002315664 0.8140368941175532	-0.182158
C	0.7685525568835324 0.0220044555517522 0.8741812888176900	0.107192
C	0.7240101397075744 0.9826636035809300 0.9328107280433967	-0.179089
C	0.7204818382360870 0.9031288527044578 0.9309725172556349	0.090716
C	0.7744446242478323 0.1063806112749778 0.8755373877095372	0.062224
C	0.7087168989882311 0.1509885147354829 0.8788169449349866	-0.173910
C	0.7129614736080788 0.2319774932797935 0.8780317668611027	0.083693
C	0.8537546448757913 0.2211327161617486 0.8754051496311523	-0.122733
C	0.8475984229151534 0.1424494118976283 0.8726917412123667	-0.136439
C	0.7020500623893459 0.6009278501245117 0.8143827766699497	0.098772
C	0.6933872018870851 0.5218038459623274 0.8151974003976135	-0.178606
C	0.7317182957703070 0.4778777338427636 0.8751714440480629	0.109617
C	0.7768558475149629 0.5172956760385740 0.9333027822490632	-0.178218
C	0.7805319069518354 0.5967990420723690 0.9309849190502841	0.094683
C	0.7257004053706938 0.3935242786128256 0.8764512595000958	0.061408
C	0.7913726772497041 0.3488881465280596 0.8795066872253222	-0.173775
C	0.7870681282565961 0.2679256612109400 0.8782095214966816	0.084072
C	0.6462704819563837 0.2788117804036523 0.8755758478816799	-0.122827
C	0.6525225334350949 0.3575044262390411 0.8734205756395208	-0.136094
C	0.6005113160955602 0.7975225755992316 0.8143282320728022	0.091978
C	0.5213322161367731 0.8059768110902585 0.8152354233694251	-0.179539
C	0.4777291311452504 0.7677218269901344 0.8754559895824743	0.106349
C	0.5170848170618058 0.7230880876847220 0.9340415080300880	-0.180874
C	0.5966592677387862 0.7196410795225737 0.9319391893863063	0.092507
C	0.3935012271630062 0.7737483599477663 0.8765992444220618	0.063171
C	0.3487121639220839 0.7082145899643265 0.8795932591928558	-0.174748
C	0.2677866980797382 0.7127918062161075 0.8781848274751191	0.084582
C	0.2791562160426674 0.8534715961930773 0.8755073491277414	-0.125184
C	0.3578143725057767 0.8470762258201726 0.8734559940761527	-0.135400
C	0.8992869449804052 0.7013874608167516 0.8137890355046964	0.090941
C	0.9784747129869072 0.6930688380896568 0.8142886887163915	-0.181555
C	0.0222807629033578 0.7318995364232020 0.8740294914722262	0.110082
C	0.9830940372282808 0.7766850810395340 0.9324639422755323	-0.175842
C	0.9035826841807360 0.7800080877412071 0.9305276496591157	0.099291
C	0.1065059325102863 0.7259805008312618 0.8753602227881511	0.061790
C	0.1511974240177220 0.7915916085590275 0.8786375004232547	-0.173895
C	0.2321348302797169 0.7869940886993850 0.8779341060688211	0.084449
C	0.2208296537594135 0.6462931509567404 0.8754268967823282	-0.123206
C	0.1422039694182268 0.6526652181978982 0.8726033367696375	-0.135848
C	0.2024876725256221 0.3994923829716051 0.6856700734057088	0.091976
C	0.1940322875816272 0.4786619547048196 0.6847658429587552	-0.179609
C	0.2322769793977616 0.5222829320743795 0.6245527125998305	0.106507
C	0.2769092574694105 0.4829109218058749 0.5659736400288476	-0.180846
C	0.2803529306502482 0.4033388257920198 0.5680725609478248	0.092348
C	0.2262480815075948 0.6065057822327915 0.6234044874398963	0.063126
C	0.2917782965016622 0.6512897767810200 0.6204029432495468	-0.174767
C	0.2872092369101834 0.7322018456627263 0.6218027402303046	0.084684
C	0.1465315670401749 0.7208419051972899 0.6244769705199215	-0.125058
C	0.1529267166352082 0.6421954831272779 0.6265428511069302	-0.135496
C	0.2986052260581974 0.1006973271108778 0.6862045168660985	0.091224
C	0.3069305361751611 0.0215162905420183 0.6857046216521159	-0.181808
C	0.2681049743833937 0.9776947070220446 0.6259726439496147	0.110116
C	0.2233233101188077 0.0168973748259451 0.5675404791626558	-0.176184
C	0.2199999184330261 0.0964048007810299 0.5694802573349744	0.099375
C	0.2740277179055944 0.8934754383680508 0.6246319221039300	0.061705
C	0.2084173084751004 0.8487908260282422 0.6213518013896621	-0.174060
C	0.2130111812310234 0.7678664392437666 0.6220521562365681	0.084459
C	0.3537088215552626 0.7791636424399202 0.6245618140200844	-0.123099
C	0.3473336007637880 0.8577785004733676 0.6273882894429884	-0.135724
C	0.3990523181581411 0.2979438325011944 0.6856240666033672	0.098836
C	0.4781853696675094 0.3066187478444995 0.6847980690850219	-0.178391
C	0.5221128221695064 0.2682815544037949 0.6248281669984166	0.109620
C	0.4826957778362623 0.2231359800984333 0.5667003865754383	-0.178132
C	0.4031871189168507 0.2194513549800756 0.5690206773100250	0.094637
C	0.6064664983716463 0.2742972494796540 0.6235441693777105	0.061347
C	0.6511022161350929 0.2086229087608108 0.6204906479283085	-0.173498
C	0.7320749098647878 0.2129297881168032 0.6217862597754834	0.083786
C	0.7211838472221110 0.3537229323805715 0.6244226813353888	-0.122815
C	0.6424823794017688 0.3474767467816879 0.6265746058127867	-0.136140
C	0.1012556518086509 0.2018786652037978 0.6866546667364629	0.089300
C	0.0220511543025746 0.1933227202556646 0.6859589884644107	-0.182162
C	0.9780090097286037 0.2314389938956850 0.6258087028929376	0.107015
C	0.0173548737748317 0.2759978561726739 0.5671896970073013	-0.178937
C	0.0968947994075110 0.2795262141517306 0.5690307961426385	0.090712
C	0.8936308871828070 0.2255535822426185 0.6244542195138580	0.062510
C	0.8490277386822475 0.2912894135128339 0.6211774341488969	-0.173989
C	0.7680292499614366 0.2870375626127855 0.6219624639325150	0.083713
C	0.7788773749709542 0.1462460272020880 0.6245967180136776	-0.122475
C	0.8575658365458876 0.1524010575717304 0.6273045392452785	-0.136754
H	0.1769781690822609 0.1359898469709037 0.2341887005151268	0.106384
H	0.1591304150823032 0.9935554316790640 0.2326476077747185	0.116142
H	0.3075039212034216 0.9855239012521275 0.0182817731074452	0.115829
H	0.3119110180111112 0.1294005463527390 0.0225273926875489	0.104323
H	0.3480619787978562 0.8759288297857208 0.1198525742277490	0.107728
H	0.0900184096895486 0.7518264042283566 0.1250013084065612	0.110743
H	0.1016108772406077 0.8938778270624320 0.1288164083582204	0.099734
H	0.3235673813743625 0.3637816610954141 0.2353213280622722	0.108811
H	0.3409509730312184 0.5061242842292641 0.2338915678829053	0.116641
H	0.1937150179082568 0.5141693406879341 0.0183007169191957	0.116648
H	0.1906343622815678 0.3713189589658494 0.0205986657027150	0.109509
H	0.1519726423653697 0.6240577670379347 0.1205712315649480	0.108358
H	0.4098781206851495 0.7483083446723950 0.1249139713394823	0.107543
H	0.3985167682966826 0.6061995094308585 0.1298560169685664	0.101728
H	0.3626145043115667 0.1753104520076266 0.2335609482358410	0.105092
H	0.5054983303662396 0.1578776395726470 0.2331520239571293	0.115352
H	0.5136962303050492 0.3065692618671956 0.0188185211305936	0.116646
H	0.3704223620336030 0.3100830444542186 0.0222819762365497	0.106141
H	0.6235522063885671 0.3475755844970266 0.1205992482048519	0.108700
H	0.7485219080068271 0.0897385970921216 0.1248712023938270	0.108115
H	0.6067553537392801 0.1009880155129619 0.1295341850285157	0.101965
H	0.1361441377470603 0.3218990659443565 0.2349955544059013	0.110194
H	0.9945361118852160 0.3405572549818611 0.2328131433549082	0.116338
H	0.9865137219880787 0.1931088325595596 0.0172571417889685	0.115768
H	0.1299444300424208 0.1888915384598514 0.0211817132617313	0.107808
H	0.8763604266067014 0.1522126096187927 0.1194588666488934	0.106886
H	0.7513550716309572 0.4099456591766051 0.1252486441869658	0.108638
H	0.8933827976470787 0.3986888445908673 0.1286264715000666	0.099299
H	0.8246881806584945 0.6373668937962926 0.2664491897300669	0.105047
H	0.8421057489399564 0.4944985230894012 0.2668546234343460	0.115342
H	0.6934552379712015 0.4862922839719861 0.4811725475477432	0.116639
H	0.6899405129871872 0.6295540241355111 0.4777186295541542	0.106130
H	0.6524282676224005 0.3764302617323614 0.3793995460480611	0.108679
H	0.9102765137411563 0.2514898218180792 0.3751246104558146	0.108216
H	0.8989925673554321 0.3932414601115156 0.3704455605012181	0.102146
H	0.6781082980334875 0.8638789519639811 0.2650139698732655	0.110129
H	0.6594599440041782 0.0054753247942696 0.2671911478412380	0.116284
H	0.8068704580025612 0.0135085407654768 0.4827403706882404	0.115759
H	0.8110881271042635 0.8700824135561382 0.4788133853620050	0.107841
H	0.8477886606117321 0.1236596346685111 0.3805370403314949	0.106906
H	0.5900345404810757 0.2486374625611445 0.3747588703413065	0.108548
H	0.6013292455383745 0.1066251182918868 0.3713684167802900	0.099327
H	0.6362386216534263 0.6764199738619054 0.2646690484318388	0.108714
H	0.4938803655635539 0.6590487997964379 0.2661015816757104	0.116684
H	0.4858261647503396 0.8062921309837404 0.4816976354722650	0.116597
H	0.6286821402081231 0.8093783111795098 0.4794146996654534	0.109445
H	0.3759659070915321 0.8480307747315041 0.3794183500178817	0.108324
H	0.2516849616078775 0.5901377119525861 0.3750692622354571	0.107558
H	0.3938132217942467 0.6014642819039459 0.3701373086949277	0.101593
H	0.8640048343507281 0.8230390783736119 0.2658086963610833	0.106366
H	0.0064556464587232 0.8408758513617981 0.2673467677076839	0.116124
H	0.0144724969779974 0.6924931197795625 0.4817228627155816	0.115796
H	0.8705915760893501 0.6880868041452362 0.4774909915852167	0.104476
H	0.1240580608189705 0.6519322394878547 0.3801397579566468	0.107665
H	0.2481887579952373 0.9099532596473262 0.3749891743344200	0.110667
H	0.1061181551480312 0.8984039666203456 0.3711900800686058	0.099843
H	0.8233766081938185 0.8630752610693687 0.7648603665120906	0.109023
H	0.8412386670541729 0.0052470988244535 0.7660973707358724	0.116882
H	0.6939216159666355 0.0135099906139635 0.9817592195203760	0.117021
H	0.6906968227072549 0.8707523603834861 0.9790813111862162	0.109387
H	0.6523969462801291 0.1236134481920960 0.8795350560009066	0.108327
H	0.9100946423659718 0.2486311648298314 0.8750305561087680	0.107187
H	0.8989766450106562 0.1067016788030472 0.8702984174028355	0.101588
H	0.6772286859074260 0.6366811873126460 0.7659703906315756	0.105437
H	0.6588223134612264 0.4943662662414128 0.7673672534574699	0.116386
H	0.8072349229421385 0.4861732272022627 0.9818310833669774	0.115078
H	0.8118331251901587 0.6299832230497824 0.9771644580573928	0.104759
H	0.8476580915888424 0.3763414820225394 0.8802208848370925	0.107619
H	0.5898509384674813 0.2514690879287792 0.8749349744325484	0.110578
H	0.6011909947723210 0.3933216725081073 0.8712913293632926	0.100001
H	0.6354416181109452 0.8221174937351859 0.7648813222532920	0.110484
H	0.4936728676940131 0.8402220263692194 0.7671835220131085	0.116989
H	0.4858276920715083 0.6929021524798279 0.9826871065471570	0.115716
H	0.6293670757632417 0.6888553918508294 0.9791718939658215	0.107649
H	0.3759002098821477 0.6517818353457646 0.8804875988705562	0.106945
H	0.2516972208951697 0.9097731682884960 0.8748089974065264	0.109139
H	0.3939207764505755 0.8982336058982175 0.8712732283180502	0.099400
H	0.8633288647199726 0.6751081122859477 0.7662852485996161	0.105624
H	0.0063476500508483 0.6582316965865753 0.7668901760940232	0.115826
H	0.0143468497735221 0.8067850910215570 0.9811511684800589	0.116924
H	0.8710367579517024 0.8101171747370958 0.9781027741546481	0.106665
H	0.1239770829071647 0.8480145856579762 0.8792867789333896	0.108892
H	0.2481488283463993 0.5899383155989678 0.8751714365339226	0.108201
H	0.1061967281199593 0.6014614982850375 0.8702927860785900	0.102181
H	0.1778956399774337 0.3645631885218593 0.7351150927095360	0.110415
H	0.1597750005968682 0.5063178243656871 0.7328123205198107	0.116948
H	0.3070869285049854 0.5141652141590030 0.5173222764684863	0.115688
H	0.3111404095881809 0.3706372244550873 0.5208451670074575	0.107653
H	0.3482094866769628 0.6241093648611823 0.6195154673965888	0.106893
H	0.0902123840244930 0.7482894173261250 0.6251759564552009	0.109137
H	0.1017780835928551 0.6060849709730795 0.6287313186427466	0.099433
H	0.3248826127135337 0.1366574420089556 0.7337082119958737	0.105452
H	0.3417715263383737 0.9936525234374736 0.7331055140760643	0.115801
H	0.1932228969500665 0.9856564872863730 0.5188491691527778	0.117078
H	0.1898877396249818 0.1289563222154937 0.5219150398544481	0.106680
H	0.1520002556717968 0.8760017072899354 0.6206937192575790	0.108901
H	0.4100772546600848 0.7518562901854308 0.6248250009975828	0.108167
H	0.3985290210885806 0.8937864263612996 0.6297054505568392	0.102197
H	0.3633099182163382 0.3227738793833951 0.7340452678699928	0.105395
H	0.5056359752196692 0.3411779771771253 0.7326366689407464	0.116289
H	0.5138269542472427 0.1927480948788050 0.5181724081396041	0.115014
H	0.3700066184108498 0.1881460577853228 0.5228350371804996	0.104764
H	0.6236409668607876 0.1523375220831080 0.6197864860143359	0.107532
H	0.7485437293404538 0.4101339018944749 0.6250616326295948	0.110616
H	0.6066714395812334 0.3988210753114431 0.6287061120453846	0.100041
H	0.1369417480730204 0.1766074772290959 0.7351504696429961	0.108983
H	0.9947562986924454 0.1587494378733686 0.7339065086337652	0.116905
H	0.9864991262572733 0.3060920427128648 0.5182374143475451	0.116961
H	0.1292679356018142 0.3093112022193628 0.5209154001087992	0.109371
H	0.8764039850498619 0.3476101228170616 0.6204600941320910	0.108354
H	0.7513584809331074 0.0899124724277901 0.6249720305982246	0.107143
H	0.8933056953175542 0.1010117410257195 0.6296908564179956	0.101665
F	0.2561137596535279 0.1466129425251484 0.3771528549823875	-0.616308
F	0.1556069593839134 0.3023886884270077 0.3790441757501596	-0.607972
F	0.3365074363443211 0.3137500901097955 0.3782060972925443	-0.611344
F	0.6862403230510178 0.6634993206858198 0.1218198701748914	-0.611295
F	0.6976114610019462 0.8444124862772732 0.1209728416182020	-0.607903
F	0.8533869441123533 0.7439030744708065 0.1228749830921377	-0.616243
F	0.6556709574964019 0.8023619275484846 0.6210017816603091	-0.608136
F	0.7564935360564196 0.6466917396448389 0.6229501785050244	-0.616378
F	0.8367111765795453 0.8137099129434537 0.6219349660272978	-0.611228
F	0.1862279160163010 0.1633214196946247 0.8780823897915701	-0.611241
F	0.3532925858666650 0.2434840624980059 0.8770597076895734	-0.616345
F	0.1976534338580170 0.3443220829829822 0.8790291085432946	-0.608197
F	0.2488192771972105 0.2512028226067601 0.2607476749028168	-0.558539
F	0.2498645037827661 0.2498680686949356 0.4954866850958661	-0.559264
F	0.7487860810436944 0.7511804384094306 0.2392687180275362	-0.558500
F	0.7501342286686643 0.7501360606146185 0.0045263073309941	-0.559351
F	0.7489611553923380 0.7510723494674941 0.7392723651283161	-0.558392
F	0.7500252517648346 0.7497755350146010 0.5045366997761386	-0.559353
F	0.2488880566704533 0.2510228971228783 0.7607316001238985	-0.558480
F	0.2502156710164042 0.2499787169136019 -0.0045261562081941	-0.559346
Co	0.2500184839888979 0.2499914358455223 0.1283337260692095	0.588011
Co	0.7500095758148423 0.7499850987071486 0.3716676438116832	0.588248
Co	0.7500290492545165 0.7499886368328146 0.8716753834080301	0.588082
Co	0.2500129827582920 0.2499809456042830 0.6283299231889427	0.587763
Ga	0.2496280994469319 0.2527326563759721 0.3781581297402551	1.470523
Ga	0.7472624569889763 0.7503848790537584 0.1218450850562622	1.470284
Ga	0.7497991301045847 0.7527801219186109 0.6218812120559009	1.470451
Ga	0.2472104538719167 0.2501845159467577 0.8781304245578675	1.470635
	  	
