#======================================================================

# CRYSTAL DATA

#----------------------------------------------------------------------

data_VESTA_phase_1


_pd_phase_name                         GaFFIVE_1_Cu
_cell_length_a                         11.13021
_cell_length_b                         11.13023
_cell_length_c                         8.20188
_cell_angle_alpha                      90.09529
_cell_angle_beta                       89.90331
_cell_angle_gamma                      89.99390
_symmetry_space_group_name_H-M         P 1
_symmetry_Int_Tables_number            1

loop_
_symmetry_equiv_pos_as_xyz
   x, y, z

loop_
   _atom_site_label
   _atom_site_fract_x
   _atom_site_fract_y
   _atom_site_fract_z
   _atom_site_charge
C	0.2564230865988192 0.4580438823055246 0.3694252950999605	0.100621
C	0.1314891121191323 0.4574031238193647 0.3652945968408480	-0.171753
C	0.7441163446414205 0.5415321512190898 0.3700557180126192	0.105240
C	0.8689402300731970 0.5426076448695273 0.3654656481571347	-0.171306
C	0.5416453417182380 0.2562008376082334 0.3701842564688479	0.103652
C	0.5426212318743302 0.1313033602564555 0.3654713020007869	-0.171839
C	0.4581881599346371 0.7438731826425655 0.3699701795853771	0.099519
C	0.4574275026903468 0.8687243200481182 0.3657046086345613	-0.170378
C	0.7438733491907664 0.4581880819619371 0.6300297645046572	0.099513
C	0.8687237213426648 0.4574275778533825 0.6342927441754806	-0.170435
C	0.2561994201115428 0.5416447609589792 0.6298095488060662	0.103740
C	0.1313023924565834 0.5426212427114095 0.6345228531988842	-0.171899
C	0.4580443405477038 0.2564209502681466 0.6305692729935847	0.100712
C	0.4574031456700661 0.1314860128294064 0.6347028681813114	-0.171752
C	0.5415326901174455 0.7441138540518694 0.6299416654773893	0.105205
C	0.5426079841948415 0.8689389085289492 0.6345303718989724	-0.171100
C	0.0664157794089043 0.5000803573621371 0.4999084370875409	0.102218
C	0.9338294797359111 0.5000613924492565 0.4998934728155445	0.098913
C	0.5000802615714007 0.0664151202483544 0.5000870519681900	0.102247
C	0.5000614032233537 0.9338283226339428 0.5001020079455719	0.098836
H	0.3104747695554521 0.4259862280582280 0.2668423981000857	0.107132
H	0.0856336446396988 0.4216289482664863 0.2584437234360245	0.125378
H	0.6898761077740593 0.5720383785987617 0.2677770011396839	0.103423
H	0.9147270817092780 0.5780505779128442 0.2583244618751367	0.122687
H	0.5736082904015161 0.3109240735954897 0.2687993730701561	0.102508
H	0.5782520703119389 0.0852515974655546 0.2584857804787406	0.123203
H	0.4280141540499699 0.6903494276156577 0.2662496537638863	0.107855
H	0.4219767754716243 0.9141503644332755 0.2584661522869460	0.124661
H	0.6903482618566865 0.4280123867923967 0.7337513071746713	0.107864
H	0.9141498250833030 0.4219762766191018 0.7415312546887445	0.124676
H	0.3109218454858144 0.5736066763124269 0.7311934019269163	0.102497
H	0.0852498841705215 0.5782515117245539 0.7415085975102210	0.123237
H	0.4259863652565479 0.3104723887690597 0.7331499639962872	0.107060
H	0.4216281883744665 0.0856305664608060 0.7415540625312147	0.125348
H	0.5720390324880144 0.6898749410424309 0.7322213855002175	0.103439
H	0.5780503356659356 0.9147243980077486 0.7416688703422960	0.122540
Cu	0.5001014023099888 0.5001010908170970 0.4999988581869046	0.724362
Ga	0.4997110148168281 0.4997119358953324 0.0000078722347663	1.462800
F	0.5006037854321078 0.4998681165280957 0.7665269160735690	-0.586803
F	0.4998905312154023 0.5006201503854718 0.2334942951561794	-0.586807
F	0.3819724364873637 0.3820317879013034 0.0000442158464885	-0.601830
F	0.6603771077224024 0.4559049459633523 0.0014253861193541	-0.601581
F	0.4559474596420893 0.6603862567580268 0.9985795011346107	-0.601554
N	0.3170682826375376 0.4998566280334643 0.4996215440386043	-0.221315
N	0.6831665166702618 0.4998520104446275 0.5000155498248516	-0.224718
N	0.4998576148317007 0.3170674269183833 0.5003728648229759	-0.221260
N	0.4998522567181671 0.6831658850533637 0.4999841048871367	-0.224755
	  	
