#======================================================================

# CRYSTAL DATA

#----------------------------------------------------------------------

data_VESTA_phase_1


_pd_phase_name                         GaFFIVE_4_Co_i
_cell_length_a                         23.22351
_cell_length_b                         20.17142
_cell_length_c                         9.59091
_cell_angle_alpha                      89.99969
_cell_angle_beta                       90.00023
_cell_angle_gamma                      90.00685
_symmetry_space_group_name_H-M         P 1
_symmetry_Int_Tables_number            1

loop_
_symmetry_equiv_pos_as_xyz
   x, y, z

loop_
   _atom_site_label
   _atom_site_fract_x
   _atom_site_fract_y
   _atom_site_fract_z
   _atom_site_charge
C	0.4188895735850666 0.5987777938978601 0.6298860109935424	0.092467
C	0.3748397061719047 0.5523519381839036 0.6281840106975131	-0.165372
C	0.2779482609747379 0.4484789505810971 0.6275988960744656	-0.119114
C	0.2312088020740100 0.4055706688785760 0.6264955420315031	-0.114364
C	0.1284061186212847 0.3184945085434410 0.6252608504919598	-0.165613
C	0.0814894444881852 0.2759937562886318 0.6282791533685740	0.084818
C	0.9189195433555684 0.0987408159052219 0.6298893071330415	0.092485
C	0.8748599707650030 0.0523263511126034 0.6281744046236544	-0.165428
C	0.7779531753445901 0.9484722855089214 0.6275971465991013	-0.119180
C	0.7312158096287784 0.9055614764473582 0.6264901895651962	-0.114114
C	0.6283886866897007 0.8185249556045473 0.6252598266985977	-0.165368
C	0.5814709403637057 0.7760304277929403 0.6282780875905032	0.085386
C	0.5811896719682998 0.4007441797653584 0.1299370551581063	0.090628
C	0.6251153829624145 0.4472859419468091 0.1281237329132342	-0.169469
C	0.7219788216379511 0.5510526126183893 0.1276287085439354	-0.115397
C	0.7686780224320481 0.5939596302068010 0.1264245210412379	-0.111838
C	0.8712816951575574 0.6814230735990652 0.1252207103772128	-0.164554
C	0.9182471814004199 0.7238663105409723 0.1282439427008689	0.083094
C	0.0811479182293520 0.9007937283272140 0.1299343607898311	0.090683
C	0.1250814767178454 0.9473207550110173 0.1281236099759351	-0.169812
C	0.2219758019039642 0.0510433022296504 0.1276278659814197	-0.115640
C	0.2686657515445879 0.0939570312432341 0.1264186136238130	-0.111870
C	0.3712907172775420 0.1813880639765503 0.1252117340005877	-0.164735
C	0.4182646337033958 0.2238197391406929 0.1282397407481440	0.083051
C	0.5810992702461746 0.5989239274210686 0.8700842053039685	0.092768
C	0.6250206125076995 0.5523501893570874 0.8718752991388480	-0.169396
C	0.7219850783139533 0.4485290222653600 0.8723925427062332	-0.117478
C	0.7686736568717196 0.4055757394943369 0.8735157800412539	-0.112582
C	0.8717400945188459 0.3188604596356246 0.8747702212041032	-0.163601
C	0.9187360250990892 0.2764724860705525 0.8717352747650933	0.084596
C	0.0811151900449399 0.0989293700315667 0.8700839542562659	0.093359
C	0.1250308615614747 0.0523590616135422 0.8718822364578693	-0.169486
C	0.2219584981472557 0.9485049558061274 0.8723981418675771	-0.117471
C	0.2686522744811468 0.9055596620083273 0.8735271806058462	-0.112671
C	0.3717447669565960 0.8188917064832058 0.8747772456461637	-0.163482
C	0.4187395921602231 0.7765059569873625 0.8717326211562293	0.084624
C	0.4192608794006991 0.4012997719591068 0.3701187643861055	0.090022
C	0.3751815336686287 0.4476371410731345 0.3718624586133960	-0.165884
C	0.2779590335371684 0.5508643435670545 0.3723925119967547	-0.119098
C	0.2312853108564905 0.5938215582361758 0.3735713898696931	-0.113475
C	0.1290627778265992 0.6818652766865939 0.3747650506453580	-0.164369
C	0.0820604772529482 0.7242421809187308 0.3717416896310489	0.082428
C	0.9192440557824407 0.9012931254134122 0.3701151091543464	0.090371
C	0.8751719704419536 0.9476305617870852 0.3718643060029959	-0.165847
C	0.7779750309414778 0.0508739084091804 0.3723952875894542	-0.119295
C	0.7313013416903213 0.0938233071400895 0.3735750264586243	-0.113223
C	0.6290803976945792 0.1818603003796519 0.3747646904817019	-0.164658
C	0.5820756351809188 0.2242309071620518 0.3717387770740082	0.082767
C	0.5811899784274029 0.4007457444460605 0.3700707407462465	0.090676
C	0.6251152295737554 0.4472878524200927 0.3718799967694143	-0.169484
C	0.7219785404865777 0.5510531075019749 0.3723717956410814	-0.115415
C	0.7686776822444598 0.5939600490751016 0.3735765417755165	-0.111838
C	0.8712814293628770 0.6814227978587408 0.3747833406049205	-0.164501
C	0.9182469133598812 0.7238662070267468 0.3717622746121102	0.083081
C	0.0811476644620758 0.9007946060850932 0.3700737645490656	0.090771
C	0.1250811796857150 0.9473216787278413 0.3718848723429539	-0.169796
C	0.2219768313100631 0.0510452511147362 0.3723735927621408	-0.115475
C	0.2686669098822992 0.0939590029267189 0.3735771614040365	-0.111933
C	0.3712908423323300 0.1813867950305073 0.3747754321535256	-0.164687
C	0.4182643549520288 0.2238174328860885 0.3717519666422565	0.082914
C	0.4188880631527991 0.5987791204235011 0.8701250142523776	0.092364
C	0.3748381689569387 0.5523519224425331 0.8718269521978482	-0.165333
C	0.2779473755367944 0.4484794787635474 0.8724060174713903	-0.119073
C	0.2312079613073135 0.4055709442919117 0.8735074824084473	-0.114424
C	0.1284061535809741 0.3184949514625993 0.8747396409352669	-0.165588
C	0.0814895855692691 0.2759940045807313 0.8717219486030728	0.084857
C	0.9189186197273612 0.0987416322646602 0.8701171765550101	0.092514
C	0.8748595815165747 0.0523270478022490 0.8718303504932081	-0.165438
C	0.7779525126765614 0.9484726563813447 0.8724067217549699	-0.119180
C	0.7312150890885849 0.9055620372992439 0.8735119694811236	-0.114191
C	0.6283888184926921 0.8185263454416098 0.8747396804654077	-0.165336
C	0.5814712163186690 0.7760319168580648 0.8717239981366472	0.085393
C	0.4192602034185639 0.4012980093855765 0.1298878043101716	0.089994
C	0.3751804902817949 0.4476360921982575 0.1281403010004657	-0.165890
C	0.2779585815237072 0.5508646154480359 0.1276111781007832	-0.119103
C	0.2312845642888731 0.5938213414294742 0.1264324218127064	-0.113501
C	0.1290620623608477 0.6818655984353674 0.1252398805832201	-0.164357
C	0.0820596506956621 0.7242421889575520 0.1282648229181429	0.082528
C	0.9192435988546022 0.9012930518937420 0.1298893504956630	0.090453
C	0.8751718891267480 0.9476302632303750 0.1281394304096762	-0.165767
C	0.7779741197684482 0.0508743255439311 0.1276071995857490	-0.119243
C	0.7313003556324188 0.0938237646394399 0.1264277142098134	-0.113294
C	0.6290786636428736 0.1818602638328554 0.1252414357449479	-0.164602
C	0.5820738802662266 0.2242308668452503 0.1282691039116447	0.082816
C	0.5810998584827050 0.5989261651529260 0.6299119277691655	0.092813
C	0.6250210453228692 0.5523523696389707 0.6281210966027543	-0.169406
C	0.7219854554135111 0.4485294509488136 0.6276088775285249	-0.117489
C	0.7686733634257985 0.4055761009863361 0.6264846756459778	-0.112535
C	0.8717396050732000 0.3188602816121581 0.6252340970003328	-0.163461
C	0.9187358352713787 0.2764725159189323 0.6282705249098615	0.084533
C	0.0811152111419452 0.0989304584327520 0.6299158773620002	0.093282
C	0.1250313607428943 0.0523591112961455 0.6281166375750524	-0.169492
C	0.2219591008680723 0.9485057008046915 0.6276043579537733	-0.117551
C	0.2686526107610895 0.9055600991954439 0.6264773913064274	-0.112731
C	0.3717452499394103 0.8188921316294265 0.6252313327731830	-0.163616
C	0.4187397390110625 0.7765061145880191 0.6282792235417809	0.084575
C	0.3503829533847621 0.5251564155252695 0.7500038145844510	0.111692
C	0.3028775758542971 0.4744727918128488 0.7500031158000504	0.071155
C	0.2051249254065738 0.3837716002991376 0.7500011173956773	0.065796
C	0.1540284997590979 0.3403601816423990 0.7500005994858340	0.101056
C	0.8504002424521040 0.0251420715266744 0.7500024347337196	0.111392
C	0.8028853560526334 0.9744661312067788 0.7500018745439432	0.070703
C	0.7051302837428529 0.8837663349056072 0.7500004324225418	0.065576
C	0.6540187140205908 0.8403763279815877 0.7499997628058265	0.101310
C	0.6495644366031642 0.4744895082026119 0.2500012277708364	0.111729
C	0.6970384172349093 0.5251045831437031 0.2500002435451905	0.069653
C	0.7946792230696612 0.6158945960542596 0.2500009209539132	0.067420
C	0.8456792108695426 0.6595232718465704 0.2500017420514476	0.097889
C	0.1495441683723594 0.9745034655330976 0.2500038203043436	0.111814
C	0.1970330844773726 0.0251001255899333 0.2500022697858435	0.069578
C	0.2946663760087456 0.1158955744563521 0.2499993827964920	0.067577
C	0.3456765195863303 0.1595116075914131 0.2499952092479895	0.098061
C	0.6494641289378652 0.5251194908433553 0.7499988657890654	0.109480
C	0.6970300025609719 0.4745200683772056 0.7499996728299277	0.067054
C	0.7947630593799890 0.3837469178103955 0.7500016499247666	0.067645
C	0.8459403096725335 0.3404433742120829 0.7500017756499560	0.099773
C	0.1494584021723777 0.0251221649501717 0.7500003390796930	0.109845
C	0.1970140869173642 0.9745068795241807 0.7500010602762200	0.066594
C	0.2947502975848639 0.8837491447599922 0.7500025719940048	0.067856
C	0.3459429134968982 0.8404667989879070 0.7500036961715295	0.099833
C	0.3506261719883044 0.4746317211815353 0.2500005923466642	0.114254
C	0.3029900620973995 0.5250458326173961 0.2500018294985488	0.074940
C	0.2053857481237979 0.6159094691053260 0.2500025615422435	0.064085
C	0.1545359220809955 0.6597504212272491 0.2500029425489422	0.099313
C	0.8506269396838492 0.9746309192082387 0.2500012855167626	0.114217
C	0.8029998490154457 0.0250540285158023 0.2500004427737982	0.074671
C	0.7054000648090505 0.1159046411091551 0.2500024226015596	0.064096
C	0.6545518393873058 0.1597478397619851 0.2500023889017422	0.099372
H	0.4372357120796675 0.6186328666938218 0.5333468091062931	0.112573
H	0.3612888353527994 0.5393932162642840 0.5246303724703844	0.105552
H	0.2942892621039139 0.4605033305032980 0.5258882443245307	0.086987
H	0.2153395785606412 0.3893095895669997 0.5252144629461792	0.103365
H	0.1446836703192604 0.3333647854267116 0.5235110167824427	0.120516
H	0.0609910031258674 0.2567852804891226 0.5336954136956048	0.112915
H	0.9372793250329241 0.1185714498428454 0.5333556624594434	0.112734
H	0.8613102042557360 0.0393703662862293 0.5246210114138132	0.105593
H	0.7942904290869832 0.9604957269786658 0.5258825470356876	0.086983
H	0.7153490998917198 0.8892913433382776 0.5252113256152450	0.103438
H	0.6446535319667190 0.8334197229427840 0.5235123065884483	0.120315
H	0.5609562723860376 0.7568516504919863 0.5336934889738107	0.112885
H	0.5627051235777047 0.3804000280017284 0.0340861618027122	0.113930
H	0.6388199958792156 0.4604035161084050 0.0247746550729583	0.104134
H	0.7056626102956413 0.5389437884916495 0.0259715340601954	0.085917
H	0.7845901183166265 0.6102101179034344 0.0251469119519961	0.104275
H	0.8551049975000803 0.6666688841432242 0.0232294958730621	0.122028
H	0.9384299883222336 0.7427068368358384 0.0329272146420060	0.113221
H	0.0626250388402276 0.8804804160025679 0.0340963919264250	0.113794
H	0.1387723935131017 0.9604508440041319 0.0247747352521409	0.104291
H	0.2056724554215293 0.0389147479399949 0.0259707234813473	0.085904
H	0.2845830686890781 0.1102046766326039 0.0251439281700316	0.104360
H	0.3551280613173436 0.1666107638134411 0.0232202330107392	0.122014
H	0.4384757689998079 0.2426073944608540 0.0329229134736102	0.113400
H	0.5629687135151651 0.6193986895569926 -0.0337544304205846	0.113412
H	0.6386723392910220 0.5393807513500256 -0.0246331135480382	0.105668
H	0.7058453537272742 0.4608111977020400 -0.0258472286106793	0.086327
H	0.7845636372576952 0.3893446426405290 -0.0251697758266474	0.104086
H	0.8556854937167668 0.3339558096615360 -0.0233649772957942	0.120680
H	0.9394108881063837 0.2580119608894599 -0.0332555386279647	0.112926
H	0.0629789871443535 0.1194100823490384 -0.0337776479571537	0.113365
H	0.1386965948207011 0.0393902435736545 -0.0246357182995037	0.105526
H	0.2058040028100798 0.9607710485612140 -0.0258473224448430	0.086498
H	0.2845413058389705 0.8893252054193597 -0.0251607302894387	0.103989
H	0.3556782619056073 0.8339990601181353 -0.0233777352137883	0.120512
H	0.4394282494475010 0.7580368987753257 -0.0332967451518069	0.112949
H	0.4380061069079468 0.3815633788775361 0.4662556196069914	0.112675
H	0.3616612100942951 0.4608468093475436 0.4752928032764151	0.104904
H	0.2941898059497056 0.5386240747545900 0.4740663769457277	0.086884
H	0.2152942552509896 0.6099144422082974 0.4748825655542002	0.103618
H	0.1455067601106879 0.6673415647196639 0.4766406729377843	0.120892
H	0.0619735357908766 0.7435508752332388 0.4667411473619490	0.113257
H	0.9379995890642115 0.8815398533000847 0.4662224118647523	0.112733
H	0.8616422479568800 0.9608520062659208 0.4752765790930693	0.104889
H	0.7942062472307894 0.0386298522802180 0.4740638630154172	0.086929
H	0.7153082226371191 0.1099170357020928 0.4748859590656202	0.103599
H	0.6455358690108305 0.1673303355245377 0.4766212129611795	0.121064
H	0.5619757085497677 0.2435516433804224 0.4667024325893552	0.113156
H	0.5627057381356537 0.3804018383732342 0.4659213947440350	0.113901
H	0.6388189537859235 0.4604065534144665 0.4752290259364832	0.104138
H	0.7056621236356773 0.5389445856920668 0.4740279967598354	0.085942
H	0.7845896735300961 0.6102108271824070 0.4748539386226650	0.104296
H	0.8551042206948072 0.6666682400136675 0.4767742235530908	0.122004
H	0.9384293400491022 0.7427067516047882 0.4670793992865588	0.113188
H	0.0626241326909110 0.8804814258470951 0.4659112921140972	0.113757
H	0.1387720480906082 0.9604527886590599 0.4752329960833597	0.104298
H	0.2056743900922589 0.0389182355854917 0.4740324563956477	0.085877
H	0.2845847817528595 0.1102078390376711 0.4748502757664075	0.104368
H	0.3551279837934034 0.1666089120367695 0.4767668120298440	0.122035
H	0.4384767723940436 0.2426082343484866 0.4670652287479132	0.113452
H	0.4372334533885138 0.6186295260394754 -0.0333330625329418	0.112578
H	0.3612882044950760 0.5393935557125339 -0.0246210050839854	0.105477
H	0.2942874642340433 0.4605043141843634 -0.0258827361722013	0.086967
H	0.2153384427023760 0.3893096178642787 -0.0252116747755749	0.103407
H	0.1446835650620203 0.3333652921859472 -0.0235103344242469	0.120546
H	0.0609908486143323 0.2567852366944980 -0.0336958144193018	0.112892
H	0.9372793006297208 0.1185716606020889 -0.0333498182164849	0.112694
H	0.8613094296732874 0.0393710102447282 -0.0246159633657328	0.105576
H	0.7942892119779439 0.9604970227017913 -0.0258788629968588	0.086976
H	0.7153483449283899 0.8892921872787923 -0.0252088963817788	0.103451
H	0.6446535870435819 0.8334213961766144 -0.0235130083570608	0.120296
H	0.5609559784838186 0.7568524090466436 -0.0336932214473987	0.112872
H	0.4380041822981638 0.3815626095610397 0.0337499456055261	0.112701
H	0.3616592148417665 0.4608458811308740 0.0247099386719890	0.104907
H	0.2941882856505187 0.5386247260996159 0.0259379962491409	0.086900
H	0.2152927583841384 0.6099149297751342 0.0251219689391850	0.103639
H	0.1455053840724516 0.6673433810266786 0.0233643788092406	0.120869
H	0.0619722977546277 0.7435509522770288 0.0332649164014755	0.113192
H	0.9379984847791936 0.8815401587422094 0.0337825502006782	0.112773
H	0.8616420356517906 0.9608514578972950 0.0247260546082657	0.104814
H	0.7942043165305738 0.0386313493381149 0.0259374974610874	0.086919
H	0.7153068644043965 0.1099189936709472 0.0251185306436088	0.103617
H	0.6455339736330069 0.1673295767356071 0.0233848428105412	0.121054
H	0.5619739423770387 0.2435508328001708 0.0333047326778943	0.113110
H	0.5629696386740229 0.6194010763202126 0.5337525229059484	0.113404
H	0.6386723079260582 0.5393847968714929 0.5246276568667783	0.105660
H	0.7058454250977420 0.4608109659229734 0.5258475329999495	0.086337
H	0.7845632649572746 0.3893446710593912 0.5251720656793326	0.104009
H	0.8556848504358573 0.3339556192604172 0.5233686057983107	0.120646
H	0.9394100935334341 0.2580123749625028 0.5332610117661613	0.112885
H	0.0629794614712336 0.1194113781946939 0.5337788610836741	0.113419
H	0.1386967744086593 0.0393933784665685 0.5246351320613881	0.105529
H	0.2058049450748347 0.9607726576112029 0.5258492995968663	0.086540
H	0.2845415385811902 0.8893258551814731 0.5251648757793651	0.104056
H	0.3556794740004470 0.8339997448038245 0.5233848404688903	0.120560
H	0.4394280602304354 0.7580360755671898 0.5333087112582817	0.113004
Co	0.4999699945789443 0.6884955433626232 0.7500085573685338	0.574051
Co	-0.0000192282023481 0.1884684231672998 0.7500079901150309	0.573843
Co	0.5000445912144738 0.3112410383999796 0.2500167168044033	0.573712
Co	0.0000359484449658 0.8112703995814522 0.2500029678895722	0.573400
F	0.5002983845807577 0.6865054368620940 0.4622909438851645	-0.602778
F	0.0003112881652655 0.1865507247401746 0.4622856440248245	-0.602528
F	0.4995444817235172 0.3137082514453173 0.9622023613765658	-0.602405
F	-0.0003475635720227 0.8137843579008178 0.9623030700254419	-0.602553
F	0.5003256952467056 0.6865229502644294 0.0377148904517375	-0.602749
F	0.0003109977146757 0.1865413857377180 0.0376681202887329	-0.602558
F	0.4995227010838959 0.3136799028353828 0.5376907138446665	-0.602368
F	-0.0003437568172218 0.8137875738014153 0.5377114707171444	-0.602537
F	0.4774989851928087 0.7724026636224767 0.2500131765059341	-0.607445
F	0.5764513113095120 0.6636934897959036 0.2500378685586785	-0.601350
F	0.9751002175588548 0.2716185638855973 0.2499771071223998	-0.607087
F	0.0766746759232998 0.1655223309083372 0.2499866687046776	-0.601099
F	0.5748325599115592 0.2930818704934068 0.7498912363304738	-0.605003
F	0.4770028961936558 0.4022748707866654 0.7499255738072633	-0.596530
F	0.0743366761236107 0.7901449521478973 0.7500049203946200	-0.605183
F	0.9799534190864593 0.9032282226692636 0.7499910122965522	-0.597140
F	0.4454639067171223 0.6203522198096084 0.2499303093695750	-0.595480
F	0.9466686311260247 0.1188476858768461 0.2499741767590410	-0.595244
F	0.4414949292779057 0.2524723352520628 0.7500299793443920	-0.604081
F	0.9397889627664664 0.7550340474752363 0.7499979542912604	-0.604826
N	0.4411102190340472 0.6217752540744348 0.7500060818138222	-0.181341
N	0.5589955600663129 0.7546329343288156 0.7500013339026601	-0.188612
N	0.9411396875883834 0.1217382045456851 0.7500027054838317	-0.181491
N	0.0590075034068393 0.2546074495278042 0.7500005633588351	-0.187730
N	0.5589339190817022 0.3777836505829056 0.2500050331670229	-0.180109
N	0.4408166101512017 0.2451962918646445 0.2499967641940434	-0.189768
N	0.0589033487765839 0.8778254256924096 0.2500043087374728	-0.179843
N	0.9408094735648517 0.7452350123913368 0.2500031136508218	-0.189706
N	0.5588265545292437 0.6218579501792926 0.7499998571025626	-0.180111
N	0.4410823249595145 0.7548745478810827 0.7500066329916417	-0.189276
N	0.0588395757797619 0.1218550273117885 0.7499999716840847	-0.180068
N	0.9410843490313899 0.2548397469017294 0.7500034985938298	-0.189547
N	0.4414078328287722 0.3782025995970517 0.2500043072366527	-0.180562
N	0.5593310325523383 0.2453065382914857 0.2500046858344436	-0.188182
N	0.9413943342450990 0.8782055001757896 0.2500027089812802	-0.180682
N	0.0593173220030726 0.7453255539350244 0.2500025219029642	-0.188134
Ga	0.5000770644403025 0.6856930715051890 0.2499986703451432	1.458715
Ga	-0.0000974820840019 0.1856893715186180 0.2499873601145469	1.457568
Ga	0.4984590399632784 0.3151190534041920 0.7499736004459554	1.457384
Ga	-0.0013220671894279 0.8152646613871152 0.7500053009980903	1.459321
	  	
