#======================================================================

# CRYSTAL DATA

#----------------------------------------------------------------------

data_VESTA_phase_1


_pd_phase_name                         GaFFIVE_18_Cd
_cell_length_a                         14.42002
_cell_length_b                         14.45417
_cell_length_c                         8.11081
_cell_angle_alpha                      89.98468
_cell_angle_beta                       94.99071
_cell_angle_gamma                      90.08065
_symmetry_space_group_name_H-M         P 1
_symmetry_Int_Tables_number            1

loop_
_symmetry_equiv_pos_as_xyz
   x, y, z

loop_
   _atom_site_label
   _atom_site_fract_x
   _atom_site_fract_y
   _atom_site_fract_z
   _atom_site_charge
F	0.5046300162492078 0.3454039284909512 0.5026453199796577	-0.572890
F	0.5335477689694710 0.4782201829353510 0.7315829713402574	-0.558115
F	0.3865081761216748 0.5300581858594969 0.5320721523077482	-0.548441
F	0.0046770509556564 0.8450694390425344 0.5028008760721981	-0.573093
F	0.0338961084734028 0.9775644305523419 0.7323770919801836	-0.558026
F	0.8869914513713482 0.0300757837422359 0.5330482547986151	-0.548148
F	0.6097544299476468 0.5363413876678826 0.4692672412814057	-0.546132
F	0.4653606484109938 0.4745537361658000 0.2705703407865662	-0.556944
F	0.1101232011677077 0.0360882609127040 0.4697725415427992	-0.546339
F	0.9654282307698925 0.9745990920263161 0.2713258662849251	-0.557506
C	0.6827133796763766 0.1740770769263441 0.6582382507251134	-0.422294
C	0.7515604990115996 0.1628917725833664 0.8045920380155048	0.202587
C	0.7529321363974341 0.1990127687302219 0.9651721450576374	-0.149677
C	0.6854833060214146 0.2611481397344501 0.0308536389452125	-0.145667
C	0.6744249631977903 0.3571109360292746 0.9985624556881514	0.214574
C	0.7278124041622949 0.4169658822952717 0.8905502871346629	-0.428837
C	0.8731529714712233 0.1847088935368389 0.2241279598843472	-0.434567
C	0.8364896269084960 0.1660563377834108 0.0499406981742028	0.211077
C	0.6211254030306143 0.2398826816428574 0.1452087514397947	0.203808
C	0.5979729881456664 0.1503038190929389 0.2226536305668198	-0.426568
C	0.1825215268642304 0.6741145119802073 0.6581582057125845	-0.421854
C	0.2514348804383206 0.6629015297006193 0.8044246959240472	0.201623
C	0.2529038852653260 0.6991369821218910 0.9649498173334994	-0.149548
C	0.1854215148282907 0.7612466614715300 0.0307342397451226	-0.145816
C	0.1744787874164244 0.8572248710407216 0.9985053225693470	0.214902
C	0.2279465549110504 0.9170700291443225 0.8906286176071749	-0.429781
C	0.3732846426784559 0.6847873536257808 0.2236579483171416	-0.435699
C	0.3365214165200301 0.6661307658895660 0.0495015196564640	0.211292
C	0.1210561896049849 0.7399069075809379 0.1450486004901367	0.203748
C	0.0979100045705424 0.6502769210002605 0.2222847250704803	-0.426824
C	0.3179549033147776 0.1737062250126047 0.3391851998500121	-0.422351
C	0.2482389758218956 0.1624982068888348 0.1939728626743905	0.202883
C	0.2467706852404682 0.1973532947570296 0.0323655403252613	-0.150463
C	0.3154020325233411 0.2582491900873377 0.9661330019489993	-0.142807
C	0.3265945683505429 0.3539763860534621 0.0005141804782415	0.214076
C	0.2714600483024257 0.4124754416324341 0.1076595522742341	-0.431887
C	0.1227195474199849 0.1872022850477087 0.7783964636377272	-0.434505
C	0.1610485818446421 0.1673441286697283 0.9511173448072555	0.211480
C	0.3816354899306974 0.2372471156958594 0.8550865832361844	0.200980
C	0.4050015421665494 0.1486008161757683 0.7746833422879524	-0.424375
C	0.8177971466301300 0.6736557706762863 0.3392600609209022	-0.422484
C	0.7482153508665098 0.6624278831246918 0.1938293382502732	0.202985
C	0.7468780290108845 0.6972193617185146 0.0321752470701766	-0.151237
C	0.8154796631528789 0.7581258201375194 0.9660586085838653	-0.142956
C	0.8266017635144864 0.8538381627547793 0.0005180315481972	0.214537
C	0.7714631360860050 0.9123253211443064 0.1076802347898635	-0.432092
C	0.6229056131154523 0.6870911937413032 0.7781218332830514	-0.434883
C	0.6611271793263397 0.6672458861197557 0.9509021076717487	0.211527
C	0.8816887973345316 0.7371540115357076 0.8549584379171564	0.201095
C	0.9050343060541564 0.6484915805646069 0.7745139011585599	-0.424284
H	0.7173745382625958 0.1906646671028528 0.5464990946722481	0.145375
H	0.6339513844496214 0.2301836884462125 0.6789509433380879	0.144419
H	0.6422107435996809 0.1102336109176247 0.6326652540004906	0.131930
H	0.6841218103159172 0.4399406657652090 0.7803611413607113	0.147998
H	0.7875985737888985 0.3786024729961857 0.8508596726859028	0.131543
H	0.7533403826874587 0.4793228293158295 0.9578253545233345	0.132578
H	0.8529772307612008 0.0762949685939304 0.7002675093822837	0.283174
H	0.8607411930828296 0.1263437674932921 0.3064583528205305	0.143202
H	0.8392702808458036 0.2464439032737739 0.2700725945852622	0.132968
H	0.9486695330240134 0.1967216455796984 0.2324777554872753	0.138110
H	0.5662459342501210 0.1612558216467623 0.3393307694463363	0.140492
H	0.6606917213314427 0.1077937467465872 0.2474885050138815	0.149637
H	0.5482512976852658 0.1105164675539658 0.1396352775407246	0.133171
H	0.5315378564349502 0.3323408395635558 0.2620553102657440	0.273032
H	0.2170559181490808 0.6906802007691665 0.5462526032286881	0.145145
H	0.1338423103633199 0.7302713486852171 0.6791100306416008	0.144549
H	0.1419432197078513 0.6102833457216251 0.6327860557533922	0.131817
H	0.1842741414398110 0.9401860290886019 0.7805865948614300	0.148459
H	0.2876521991697676 0.8786456698578053 0.8509940364647631	0.131800
H	0.2534613747634721 0.9793373858283857 0.9580690993948338	0.132857
H	0.3527396145323611 0.5762198229775770 0.6999913037345339	0.283117
H	0.3607848699157779 0.6264858685391589 0.3060810707733701	0.143483
H	0.3395738988833553 0.7466179561465066 0.2696957200777805	0.132874
H	0.4488133817477820 0.6966491345753326 0.2319321127552787	0.138402
H	0.0661851958665808 0.6612188992390425 0.3388547596094991	0.140740
H	0.1606536757552344 0.6078715152308914 0.2472051378003864	0.149859
H	0.0482412420275911 0.6105158776948406 0.1392187428429824	0.133283
H	0.0315829100601217 0.8323119575098735 0.2618120940053821	0.272765
H	0.2835649454763741 0.1855345938970050 0.4529378945002788	0.145361
H	0.3638188423372892 0.2328213437390054 0.3211891318508339	0.145674
H	0.3616951967207458 0.1116440951612677 0.3588961176779861	0.131885
H	0.3152642119435154 0.4391731190955654 0.2147873842234122	0.148957
H	0.2146669956243918 0.3712832088360408 0.1520123496222980	0.132708
H	0.2412864485269327 0.4722170400731893 0.0382854367963729	0.133948
H	0.1449296577507744 0.0798877986328084 0.3027942343001992	0.282758
H	0.1343168820456874 0.1294684310137907 0.6944338463932117	0.143912
H	0.1561229607058183 0.2493406284629052 0.7326053244839048	0.132985
H	0.0472610525562692 0.1989202005306005 0.7727305478938842	0.138149
H	0.4377491517063386 0.1612933379297139 0.6594746243482830	0.139960
H	0.3421507324614138 0.1066255740409344 0.7458947978671778	0.149467
H	0.4538639284707872 0.1071744789454282 0.8563593036443908	0.132858
H	0.4745035319308776 0.3301812575322412 0.7461983469844978	0.272053
H	0.7833411263917890 0.6855353937527190 0.4529097526200013	0.145482
H	0.8637902605872321 0.7326521531315100 0.3213006318006487	0.145735
H	0.8613988908362975 0.6114978498321890 0.3591780139160732	0.131924
H	0.8152712070826886 0.9389657494389069 0.2147997841676016	0.149052
H	0.7145812378983621 0.8712223992545121 0.1518067346560469	0.132681
H	0.7414329257064052 0.9721296115577350 0.0383855515377579	0.134212
H	0.6447838018501184 0.5799709238344144 0.3025937688685997	0.283009
H	0.6343880428651846 0.6293001682489200 0.6941916599641221	0.144319
H	0.6563703850163395 0.7492024658940407 0.7323066670326058	0.132710
H	0.5474411996034275 0.6989316360282303 0.7723130485300029	0.138217
H	0.9377072308450694 0.6612716230478403 0.6593001023776284	0.140264
H	0.8421568242026529 0.6065485882281909 0.7456296086086074	0.149214
H	0.9539253220041681 0.6070580626503245 0.8561770978290816	0.132801
H	0.9745335919201057 0.8301172039047651 0.7463083986125554	0.271694
N	0.8296839870783979 0.1118226077667563 0.8003830299708941	-0.154574
N	0.6074368363475258 0.3915457304739879 0.0862134660582730	-0.262571
N	0.8821484995065072 0.1131100233050943 0.9474406281933481	-0.258230
N	0.5760209013850618 0.3195045463940482 0.1730294818754736	-0.148275
N	0.3295346976005022 0.6117738014372454 0.8001004856483809	-0.154554
N	0.1074954263179778 0.8916052415283803 0.0862074192264528	-0.262817
N	0.3821514650688020 0.6131620514348761 0.9469686700986532	-0.257826
N	0.0760601102244688 0.8195319927435591 0.1728592456881257	-0.147440
N	0.1685488302912675 0.1141813652934017 0.2014308897373681	-0.154879
N	0.3953860661857486 0.3886842157012598 0.9174233675835495	-0.258163
N	0.1145781193587392 0.1165568121404889 0.0560150235919375	-0.260523
N	0.4277987809627209 0.3170367835666542 0.8312788032169444	-0.147605
N	0.6684823674286945 0.6141362351365053 0.2012354830614462	-0.155541
N	0.8953831420835097 0.8885809584287085 0.9174658824135423	-0.259226
N	0.6145698669555086 0.6165158024517651 0.0557534295276695	-0.260274
N	0.9277902837391423 0.8169670540905589 0.8312874271174608	-0.146756
Ga	0.4997113674745657 0.4743148207260775 0.5011027430461846	1.460305
Ga	0.0000366743659628 0.9740551292400773 0.5017650658921989	1.460761
Cd	0.4996727239886388 0.5079909835947093 0.0018312348696670	0.861713
Cd	-0.0003443648969328 0.0080136791468973 0.0023736598617776	0.861622
	  	
