#======================================================================

# CRYSTAL DATA

#----------------------------------------------------------------------

data_VESTA_phase_1


_pd_phase_name                         GaFFIVE_16_Cd_i
_cell_length_a                         25.58094
_cell_length_b                         25.58067
_cell_length_c                         8.07531
_cell_angle_alpha                      90.02056
_cell_angle_beta                       89.97933
_cell_angle_gamma                      90.19947
_symmetry_space_group_name_H-M         P 1
_symmetry_Int_Tables_number            1

loop_
_symmetry_equiv_pos_as_xyz
   x, y, z

loop_
   _atom_site_label
   _atom_site_fract_x
   _atom_site_fract_y
   _atom_site_fract_z
   _atom_site_charge
C	0.4815779660034467 0.3816555697935933 0.3706265710202275	0.101841
C	0.4809868305006327 0.3273563114827039 0.3636724374977447	-0.173639
C	0.9557906702035531 0.6116560435706796 0.9440928692982097	-0.124813
C	0.9560054367531400 0.5573341908247124 0.9445087520615364	-0.125417
C	0.5118892740452281 0.6204383738133986 0.3607943701078374	0.096346
C	0.5125603933933932 0.6747275449626366 0.3567099965461030	-0.172114
C	0.0437792235165276 0.3894535538098320 0.9446515476025765	-0.125923
C	0.0437447327041435 0.4437571194164415 0.9454357978107704	-0.125689
C	0.6198781936678754 0.4872726460589956 0.3622869972469732	0.095847
C	0.6741523001358597 0.4865789221384307 0.3563985561749225	-0.175072
C	0.3893674639844151 0.9556510146335846 0.9432534551451386	-0.124563
C	0.4436702238655516 0.9558967854977678 0.9444807932158531	-0.125675
C	0.3808643692216915 0.5169813017926149 0.3647355291453713	0.099195
C	0.3265671513617370 0.5180549037172700 0.3618340328690711	-0.172429
C	0.6119747959452653 0.0438960048544617 0.9439861675635979	-0.124109
C	0.5576581362055122 0.0437900180294729 0.9452614421958906	-0.127480
C	0.5169742319386946 0.3808608345602393 0.6352469937822210	0.099241
C	0.5180524251302060 0.3265628202354216 0.6381347853816240	-0.172395
C	0.0438980139446901 0.6119664905640739 0.0560158207332220	-0.124074
C	0.0437903023067771 0.5576494259284397 0.0547372752614503	-0.126690
C	0.4872590310330492 0.6198818488401079 0.6377273501171087	0.095833
C	0.4865678113508032 0.6741552467437230 0.6435948608782163	-0.175080
C	0.9556469663229097 0.3893576664904424 0.0567539087761613	-0.124786
C	0.9558937078627828 0.4436608377162194 0.0555249901295246	-0.125693
C	0.3816582887442562 0.4815796822889883 0.6293431783079828	0.101815
C	0.3273610297543871 0.4809819202276913 0.6362915844686605	-0.173211
C	0.6116581129517935 0.9557874353603008 0.0559173247976557	-0.124805
C	0.5573376598626797 0.9560042001179510 0.0554957392490789	-0.126218
C	0.6204470770012532 0.5118795945908772 0.6392472318678317	0.096691
C	0.6747374572379241 0.5125537964959059 0.6432961414787676	-0.172248
C	0.3894642279921663 0.0437838029636544 0.0553595857956269	-0.125989
C	0.4437666151550491 0.0437487294330240 0.0545705822628079	-0.125606
C	0.5437802945268714 0.8894927522786334 0.5552370550218588	-0.125230
C	0.5437435656119551 0.9437947755717578 0.5545116577732647	-0.125911
C	0.0117980344082930 0.1204248016795128 0.1390780442905223	0.095730
C	0.0124811299097943 0.1747182587847857 0.1431746741249714	-0.171650
C	0.4557756218729330 0.1116835161109951 0.5559230967422999	-0.124555
C	0.4559881215344534 0.0573604006787792 0.5554908734249566	-0.125599
C	0.9815803579988482 0.8816282149310035 0.1297567796970368	0.102255
C	0.9809829444618724 0.8273307527380732 0.1365873139276287	-0.173305
C	0.1119829658988220 0.5439077219136627 0.5560206870630621	-0.123491
C	0.0576620912433957 0.5438011661325745 0.5547665096102316	-0.126980
C	0.8808440417457101 0.0169906401933374 0.1349270178458544	0.098456
C	0.8265400629515200 0.0180680202129600 0.1379345606214610	-0.172300
C	0.8893795271159564 0.4556564133824448 0.5567669334057328	-0.124319
C	0.9436838596381754 0.4558959766919906 0.5555203931919733	-0.125991
C	0.1198407946182849 0.9873044443765582 0.1378536817253318	0.096010
C	0.1741063208046399 0.9866176887726730 0.1437383693001260	-0.174759
C	0.4556591913898276 0.8893767595758498 0.4432055044576150	-0.124383
C	0.4558988220693661 0.9436818681609737 0.4444662046381732	-0.126029
C	0.9873132049596409 0.1198298660445187 0.8621032330669145	0.096027
C	0.9866242295006877 0.1740947676100581 0.8562331401643597	-0.174895
C	0.5439120525848526 0.1119807491112752 0.4439927273724695	-0.123569
C	0.5438042214837182 0.0576598497348291 0.4452317371697377	-0.127000
C	0.0169984705716129 0.8808476415342741 0.8651322868771989	0.098361
C	0.0180745564207391 0.8265431721675709 0.8621036481503787	-0.172336
C	0.8894991548746251 0.5437767916517143 0.4447136567068036	-0.125380
C	0.9438008633707036 0.5437419310067556 0.4454516365375825	-0.125837
C	0.1204416217505463 0.0117860015666617 0.8608752884221672	0.096064
C	0.1747344017314685 0.0124758213504692 0.8567981590451084	-0.171626
C	0.1116877726154706 0.4557735434024229 0.4440944097882094	-0.124567
C	0.0573649512872824 0.4559855199678177 0.4445061234453179	-0.125588
C	0.8816334113111528 0.9815782172168427 0.8703025837224465	0.101911
C	0.8273374743570687 0.9809808461369931 0.8634482316461152	-0.173157
C	0.4995800276137026 0.2985239020517536 0.4998514652285672	0.174901
C	0.4996925364295152 0.2430707426786654 0.4984195209131717	-0.116374
C	0.4997083089306423 0.1953887331702834 0.4986940658689466	-0.095026
C	0.4997860822662065 0.1399379593685635 0.4994730249750062	0.123978
C	0.4998893108422955 0.0294148679166815 0.5002777784496323	0.067368
C	-0.0004103840257061 0.7984944176216732 0.0003125136687234	0.174554
C	-0.0003054561989850 0.7430427413437809 0.0016277153954532	-0.116356
C	-0.0002923697287723 0.6953594937984938 0.0013627505125870	-0.095156
C	-0.0002121753355520 0.6399130640003846 0.0005554543124820	0.124368
C	-0.0001116825053799 0.5293954235727018 -0.0003113769354055	0.067407
C	0.4995902380147499 0.7028789989658284 0.5005942359661595	0.173041
C	0.4995291763571924 0.7582917330362596 0.5008470100355026	-0.115894
C	0.4995224570998502 0.8059623318667883 0.4998827267896471	-0.096109
C	0.4996424893095603 0.8613772988077995 0.4993426005203863	0.125115
C	0.4998503623196474 0.9718171356937146 0.4998171742076328	0.066428
C	-0.0004156415823029 0.2028481353308388 -0.0007295279638312	0.172302
C	-0.0004791221424234 0.2582582646937961 -0.0009682169320787	-0.115156
C	-0.0004914767913443 0.3059313359012670 -0.0000221131188228	-0.096780
C	-0.0003681493975842 0.3613554116024817 0.0005439161112826	0.125611
C	-0.0001537789059917 0.4717992379260500 0.0001654596665746	0.066340
C	0.7028839813832599 0.4995908251684663 0.4993933589237179	0.172946
C	0.7582961379553580 0.4995293129021420 0.4991165250052187	-0.115823
C	0.8059668243603259 0.4995224618127146 0.5000679950129842	-0.096298
C	0.8613827291030305 0.4996394284124778 0.5006094652418402	0.125204
C	0.9718232087244542 0.4998485168785518 0.5001647425152350	0.066359
C	0.2028615785018579 -0.0004195367998120 0.0007098770368494	0.172261
C	0.2582717463377470 -0.0004773894062942 0.0009589675296973	-0.115268
C	0.3059453376279597 -0.0004864110156639 0.0000213725600023	-0.096505
C	0.3613683969392536 -0.0003633625327833 -0.0005400204578939	0.125388
C	0.4718080851489610 -0.0001488440725882 -0.0001648799302789	0.065240
C	0.2985275033923286 0.4995749970336293 0.5001112106565544	0.174783
C	0.2430738825697263 0.4996884333026541 0.5015535064725222	-0.116214
C	0.1953952368120741 0.4997057112031382 0.5013127502878554	-0.095135
C	0.1399445787291041 0.4997824153926428 0.5005483922895200	0.123935
C	0.0294209438698969 0.4998862249666592 0.4997158372697791	0.067467
C	0.7984986820350456 -0.0004146118752237 -0.0002881678102185	0.174464
C	0.7430471558141921 -0.0003081099841221 -0.0016185056736515	-0.116232
C	0.6953632754300690 -0.0002969503508123 -0.0013517589976871	-0.095227
C	0.6399150760380651 -0.0002171906646215 -0.0005451116673945	0.124153
C	0.5294007111757109 -0.0001105028774244 0.0003147122041887	0.070396
H	0.4682678929272999 0.4051354292213222 0.2658289976976321	0.102727
H	0.4664757058819069 0.3074496157341320 0.2536550325511428	0.125536
H	0.9217607424348832 0.6329261275305242 0.8992153238198292	0.111820
H	0.9221480511269279 0.5359698978939512 0.8974873831829012	0.105967
H	0.5196777439882384 0.5975675771035991 0.2494077736964637	0.102702
H	0.5226984953509666 0.6951679557172509 0.2428910372127205	0.123690
H	0.0777571593929778 0.3680720101485911 0.8999234624677237	0.111901
H	0.0777156975397993 0.4649969205640994 0.8986110126262412	0.106400
H	0.5963669502638735 0.4780888945285726 0.2532044812011719	0.103933
H	0.6940420494971287 0.4760459278752910 0.2420403528736038	0.124754
H	0.3679057631109198 0.9216361614645018 0.8981302959207024	0.111789
H	0.4648815133789859 0.9220145222901840 0.8978937484197780	0.106465
H	0.4038257957480627 0.5307146962474302 0.2590893091407523	0.093536
H	0.3058902131384892 0.5328481372163509 0.2538797065756046	0.123607
H	0.6334898219983235 0.0779025439483993 0.8989450719789761	0.111226
H	0.5365510728160127 0.0777164114239588 0.8987334913438740	0.106244
H	0.5306982818710991 0.4038196318948238 0.7409129291562583	0.093525
H	0.5328364612546392 0.3058853886485570 0.7461001955895786	0.123661
H	0.0779078562112768 0.6334796375543319 0.1010530085091444	0.111145
H	0.0777160689744083 0.5365416036786024 0.1012592921298160	0.106340
H	0.4780604959371826 0.5963756754694197 0.7467986871915528	0.103788
H	0.4760308441342676 0.6940460858445923 0.7579393853781028	0.124735
H	0.9216312129454326 0.3678988597404013 0.1018761375195322	0.111846
H	0.9220130138531091 0.4648714889652343 0.1021097834936169	0.106584
H	0.4051372810210843 0.4682683565719432 0.7341361795399345	0.102573
H	0.3074565270845288 0.4664661454137102 0.7463055433374131	0.125358
H	0.6329273258522374 0.9217579855359811 0.1007988737155782	0.111803
H	0.5359709933648431 0.9221480779113508 0.1025229395573301	0.105876
H	0.5975834790196287 0.5196648839093894 0.7506579326362168	0.102658
H	0.6951834534536525 0.5226895291553998 0.7571097959358377	0.123769
H	0.3680787539108649 0.0777607463755136 0.1000812750335224	0.111963
H	0.4650072731573062 0.0777220374920172 0.1014006850642625	0.106281
H	0.5777448736751477 0.8681005331170467 0.5999387826103193	0.111473
H	0.5777046987349332 0.9650518226271079 0.6013071527210919	0.106554
H	0.0195642544891996 0.0975687284347019 0.2504628190593410	0.102694
H	0.0225907325890227 0.1951585087945579 0.2570583769705143	0.123826
H	0.4217347221377581 0.1329616250663884 0.6007933202327957	0.111642
H	0.4221293145417774 0.0359903870171353 0.6025083176580570	0.106035
H	0.9682459326145600 0.9050900875327677 0.2346424398940960	0.102281
H	0.9664380079382505 0.8074360691769763 0.2465965306016387	0.125352
H	0.1334907191778180 0.5779248294203435 0.6010631819311810	0.110986
H	0.0365331768116342 0.5777338193622751 0.6012683789735035	0.106341
H	0.9037877589759165 0.0307238386301208 0.2405795440170688	0.093739
H	0.8058597056478571 0.0328567525769039 0.2460085143175638	0.123609
H	0.8679003521482019 0.4216512904119973 0.6018697553511393	0.111607
H	0.9648891248878400 0.4220288249993311 0.6020836873216520	0.106766
H	0.0963302037073842 0.9781795716988597 0.2470184385289505	0.103784
H	0.1939419789650570 0.9761017546170959 0.2581588401936801	0.124662
H	0.4216512963591359 0.8679001040547984 0.3980955852986871	0.111585
H	0.4220328447474149 0.9648899850410857 0.3979066763549988	0.106747
H	0.9781888995480166 0.0963220034376123 0.7529293958582984	0.103837
H	0.9761073999972619 0.1939339619145816 0.7418238470433086	0.124695
H	0.5779264280100233 0.1334893250175420 0.3989542927898519	0.110987
H	0.5777374812534800 0.0365332111792811 0.3987262835537957	0.106370
H	0.0307342449639892 0.9037967240607206 0.7594982956382293	0.093878
H	0.0328653379274670 0.8058703107973336 0.7540219961334964	0.123604
H	0.8681070439695132 0.5777401049822221 0.4000138759995367	0.111537
H	0.9650573197222054 0.5777041406204736 0.3986617404679036	0.106479
H	0.0975845416240255 0.0195483481043995 0.7494889471237626	0.102551
H	0.1951793833739595 0.0225868348402155 0.7429209574249845	0.123799
H	0.1329667168308325 0.4217320417144923 0.3992162437711383	0.111644
H	0.0359956056154663 0.4221276106686099 0.3974836091138137	0.106004
H	0.9050989936726425 0.9682529344739251 0.7654117337184599	0.102422
H	0.8074462570922314 0.9664421649480346 0.7534165391691049	0.125367
Cd	0.5010006351247710 0.5010017006906350 0.4999640132871806	0.826771
Cd	0.0009886854834506 0.0009796039967797 -0.0000352856063182	0.827030
Ga	0.4976665429352189 0.4977433741237201 0.0000272601524474	1.463451
Ga	-0.0023567327564156 -0.0023057416760964 0.5000025881348408	1.464358
F	0.5099133933155952 0.4877784264112854 0.2309167208120606	-0.554414
F	-0.0118916310423171 0.0097033366713608 0.7311118201462488	-0.554346
F	0.4878210458653268 0.5100007271653315 0.7690945860397604	-0.554484
F	0.0097015631852501 -0.0117912339208723 0.2689065732208153	-0.554383
F	0.4468266524875463 0.4467885570137871 0.0000390460798612	-0.598740
F	0.9466772013441122 0.9468356492098081 0.4998870735068136	-0.598637
F	0.4786231932223321 0.5661534469153032 0.0408524010297655	-0.592965
F	0.9786871294164957 0.0662310630444261 0.4607761464334858	-0.593609
F	0.5660845033659957 0.4787016402170449 0.9593674053430180	-0.593210
F	0.0661432587094518 0.9786619697476022 0.5393674307397317	-0.593749
N	0.4991490930523617 0.4079529340068947 0.5043092938911578	-0.236080
N	-0.0008419341571750 0.9079304791296327 -0.0038704158072004	-0.235744
N	0.4996565225575986 0.5934388204700233 0.4987038952482050	-0.239071
N	-0.0003691250741925 0.0934098802381412 0.0011391117418313	-0.238964
N	0.5934418662879697 0.4996602690640752 0.5013326566710393	-0.239332
N	0.0934228780038777 -0.0003800113186953 -0.0011879815946899	-0.239090
N	0.4079553474146554 0.4991552953947968 0.4956722154278996	-0.236100
N	0.9079303676323019 -0.0008476574872862 0.0039369048561207	-0.235656
	  	
