#======================================================================

# CRYSTAL DATA

#----------------------------------------------------------------------

data_VESTA_phase_1


_pd_phase_name                         GaFFIVE_13_Cu_i
_cell_length_a                         15.15097
_cell_length_b                         15.14883
_cell_length_c                         8.12939
_cell_angle_alpha                      90.25760
_cell_angle_beta                       89.67330
_cell_angle_gamma                      89.92599
_symmetry_space_group_name_H-M         P 1
_symmetry_Int_Tables_number            1

loop_
_symmetry_equiv_pos_as_xyz
   x, y, z

loop_
   _atom_site_label
   _atom_site_fract_x
   _atom_site_fract_y
   _atom_site_fract_z
   _atom_site_charge
C	0.5396275895123001 0.6812114382336529 0.8730177036700160	0.110826
C	0.5429976449158205 0.7729821739088401 0.8708939291770955	-0.146234
C	0.4641111944910002 0.3216734682283617 0.8793284382030963	0.106177
C	0.4607832882497602 0.2298984873385590 0.8798109861418482	-0.139675
C	0.8216190327280012 0.9736533374818823 0.3661786641751378	0.107406
C	0.7299720138399686 0.9709350383237898 0.3631672486921170	-0.136173
C	0.3219487075632281 0.5411612320217613 0.8707984493564291	0.108855
C	0.2301633919461153 0.5449811297300476 0.8680686949788491	-0.149159
C	0.1818150567492253 0.9732575588068740 0.3603656244057840	0.094780
C	0.2735128680048519 0.9713964833297597 0.3581079263804660	-0.134234
C	0.6810458692757643 0.4641253680797477 0.8827066358832593	0.105158
C	0.7727266464407463 0.4608466657365368 0.8824443685334818	-0.138029
C	0.4566252918817140 0.6819166144432784 0.1153072877122669	0.107043
C	0.4529475371003517 0.7736162811360787 0.1167859031466567	-0.136199
C	0.5393702500621451 0.3241337869844499 0.1289841102173217	0.107212
C	0.5421381265722609 0.2323556891821387 0.1341799565599440	-0.148041
C	0.1792587701691969 0.0184216069770825 0.6351343473429499	0.109408
C	0.2708013083081919 0.0210391512800346 0.6412709460423814	-0.134584
C	0.6786664883865546 0.5426573445053546 0.1299795488978250	0.112137
C	0.7704541765982462 0.5462744745175970 0.1338269244135328	-0.146025
C	0.8208367087557419 0.0282140708567803 0.6348695006708612	0.104425
C	0.7291967890299379 0.0291349570725888 0.6407594838948560	-0.136842
C	0.3201742421834604 0.4597689226209383 0.1136985194989933	0.107308
C	0.2284262294559116 0.4570328560891360 0.1149057225644780	-0.139004
C	0.9669970365949202 0.8194141932884658 0.6330928646828385	0.108917
C	0.9652887274214609 0.7276490624804226 0.6376835520891123	-0.136376
C	0.9844948855617388 0.1785345645223003 0.6370497369111292	0.091690
C	0.9811605118723545 0.2700752545430110 0.6401756030622047	-0.135329
C	0.0207509447287251 0.8180473524959557 0.3637875419467186	0.103381
C	0.0229473790770616 0.7264823424385710 0.3596369220206195	-0.136576
C	0.0285865920088201 0.1774634351486889 0.3615516940383341	0.111274
C	0.0296848802089052 0.2691740715153991 0.3562160903422331	-0.135803
C	0.0041918908654457 0.3162886597042808 0.4974756349170593	0.043179
C	0.0015842570818775 0.4129876753626504 0.4974645341810751	0.255348
C	0.4981170556898168 0.8200111144247295 0.9940011127827515	0.056161
C	0.4990292534142185 0.9173829715322200 0.9986320845648300	0.248617
C	0.9949304554050603 0.6802674294246938 0.4993936952572889	0.039697
C	0.9971063873790559 0.5834101536517519 0.4993240676995619	0.247223
C	0.5012087598227478 0.1844031140321131 0.0085416003093837	0.056808
C	0.5005029278562574 0.0869003912779834 0.0093316968861728	0.249567
C	0.6828171394657522 -0.0005475253087104 0.5025225194650239	0.040953
C	0.5859979510721519 0.9976542015792270 0.5039184701630439	0.247135
C	0.1825623410918241 0.5014200516253431 0.9912372925990582	0.057733
C	0.0851472933637200 0.5022739556478714 0.9941278374552472	0.249060
C	0.3188587350225238 0.9962440832794585 0.5007014756284105	0.040224
C	0.4155841340044162 0.9962579709520496 0.5029469796400052	0.257338
C	0.8182576358059065 0.5036647969914078 0.0090006683573439	0.055862
C	0.9156921854019074 0.5034727761883430 0.0067521967266512	0.248950
H	0.5688915656205877 0.6407839701803179 0.7758947932004598	0.106265
H	0.5789053249789646 0.8067926008499864 0.7733785661839213	0.124239
H	0.4376330259429472 0.3604105793600204 0.7778063464418090	0.111483
H	0.4294957434669811 0.1939755708307781 0.7795474651651519	0.120013
H	0.8613878034927963 0.9532825622825817 0.2602508801214921	0.108694
H	0.6959336677411171 0.9475775240219837 0.2537441830679130	0.121663
H	0.3626643676714094 0.5707124778302579 0.7745005572538848	0.105244
H	0.1966679259210835 0.5803515045253859 0.7700779010008919	0.125410
H	0.1442317241943440 0.9591056928155227 0.2491673436165199	0.107464
H	0.3084732464830807 0.9525756155193200 0.2458790088676520	0.117432
H	0.6420968111367478 0.4373621986294580 0.7816734585169641	0.112147
H	0.8085486963705333 0.4282129944270088 0.7827991829710879	0.119038
H	0.4281464578353154 0.6424112685461999 0.2140525397847615	0.112088
H	0.4187576811026236 0.8087494105117592 0.2153683807243177	0.118177
H	0.5668361712628979 0.3651779890867995 0.2267744174396257	0.105502
H	0.5743794831836120 0.1991532281819637 0.2361657156992505	0.124667
H	0.1385792155404335 0.0328102608483517 0.7427484358205042	0.106919
H	0.3038125210962780 0.0403182340327041 0.7543290545100512	0.120188
H	0.6377906630279729 0.5697762837882007 0.2286222499469864	0.106484
H	0.8035826706693396 0.5802705699674902 0.2343354877940767	0.124750
H	0.8603023783831507 0.0476824162097985 0.7405006866498668	0.100203
H	0.6948460194680890 0.0511651430205597 0.7515329048520822	0.121460
H	0.3592216307633603 0.4307798859812078 0.2121759625706733	0.110576
H	0.1927618711789319 0.4237101215716202 0.2133042748442531	0.117988
H	0.9466659876998185 0.8593882520157642 0.7387866137662503	0.109910
H	0.9425990211191437 0.6938911351475898 0.7480481321742529	0.121509
H	0.9710671209389912 0.1402991746191444 0.7478664118730579	0.106984
H	0.9620133945463104 0.3044892008722361 0.7527649303352835	0.120401
H	0.0391813942500507 0.8573658420031531 0.2572701098819991	0.100045
H	0.0453267014512724 0.6919485143487245 0.2493607010386467	0.119698
H	0.0433791394211811 0.1372750834869782 0.2535435026170915	0.107302
H	0.0478503432035624 0.3028608382574497 0.2430293192820111	0.120381
N	0.9471110785148725 0.5403828925258470 0.6116970067016895	-0.135687
N	0.4209787041580927 0.0465291134313330 0.0089116943913140	-0.148907
N	0.5432550901069545 0.0478383313201052 0.6172768580111854	-0.138858
N	0.9563310543289814 0.4240043122288317 0.0023147081590647	-0.141458
N	0.0493049654695915 0.5429001801185080 0.3861466643040646	-0.135928
N	0.5792335130899238 0.0449876147983362 0.0107139321080503	-0.150317
N	0.9572491939716902 0.5822784911341207 0.0051419984960820	-0.147856
N	0.5452767154359754 0.9450199185027133 0.3928094938310338	-0.134325
N	0.0520197335796641 0.4560514519294629 0.3860177164395803	-0.132184
N	0.5784710691100946 0.9577692062980505 0.0007396247751729	-0.146216
N	0.4584132661942503 0.9443465585014167 0.3925503972356566	-0.128918
N	0.0444425254398796 0.5816604754374983 0.9943788990563928	-0.149210
N	0.9489439903646466 0.4534793350776478 0.6098436579551731	-0.129515
N	0.4203200669215603 0.9592271557912974 0.0072774118132082	-0.139754
N	0.0436069507282235 0.4234089458149778 0.9995124821855154	-0.147444
N	0.4563488758545320 0.0471527410757313 0.6165449282649247	-0.134259
N	0.0062918596490750 0.1335710124079709 0.4993813780477668	-0.211556
N	0.4984780791694032 0.6371757710202949 0.9944738376257953	-0.221778
N	0.9947175429371079 0.8632288335162613 0.4985179646163670	-0.209779
N	0.5017875358558918 0.3672391329505644 0.0030158474844730	-0.219766
N	0.8656889519887941 0.0015655775315842 0.5000872024122386	-0.208669
N	0.3654228976232243 0.5003434071120763 0.9927353435564364	-0.219209
N	0.1361021020537215 0.9954024897718556 0.4970852485969005	-0.212759
N	0.6354783479011580 0.5033805710694332 0.0055459959317899	-0.223243
Cu	0.0009298596488110 0.9985186383264780 0.4985706474407728	0.721613
Cu	0.5004459790556528 0.5022328527805235 0.9990560106344493	0.734031
Ga	0.9974771048527272 0.9953708935513922 0.9988607891604340	1.451089
Ga	0.4973339207449168 0.5010076544677851 0.4992040085921470	1.471086
F	0.0006028344620294 -0.0022891490167574 0.2338181293061758	-0.583637
F	0.5073609064238449 0.4969849711664959 0.7340211418256951	-0.594066
F	-0.0012638836454064 0.9969904241067121 0.7635589649515861	-0.583743
F	0.4910263415242931 0.5077220363064767 0.2640662658218600	-0.594589
F	0.9109074635293524 0.9102379959712079 0.0001054615189154	-0.584792
F	0.4137254923123969 0.4121411835309077 0.5034093571945895	-0.606966
F	0.9640008005959115 0.1126751656006284 0.9971761712348027	-0.580744
F	0.4598773883587644 0.6170888264723051 0.5157390835097579	-0.608524
F	0.1144507362824632 0.9609046098410543 -0.0014414569949328	-0.580647
F	0.6154325248068173 0.4703339370750948 0.4797988935053361	-0.608405
	  	
