#======================================================================

# CRYSTAL DATA

#----------------------------------------------------------------------

data_VESTA_phase_1


_pd_phase_name                         GaFFIVE_15_Fe_i
_cell_length_a                         30.05306
_cell_length_b                         29.25059
_cell_length_c                         8.04526
_cell_angle_alpha                      90.00033
_cell_angle_beta                       90.00043
_cell_angle_gamma                      90.00126
_symmetry_space_group_name_H-M         P 1
_symmetry_Int_Tables_number            1

loop_
_symmetry_equiv_pos_as_xyz
   x, y, z

loop_
   _atom_site_label
   _atom_site_fract_x
   _atom_site_fract_y
   _atom_site_fract_z
   _atom_site_charge
C	0.9320987925737196 0.1015271988174568 0.8940627115882300	0.094227
C	0.9002069055772657 0.0672131541338364 0.8998939775003491	-0.167113
C	0.7698179881166429 0.9361843776161323 0.9017319528580880	-0.116827
C	0.7358879062653204 0.9041387115146770 0.9015111505438158	-0.118941
C	0.5692428922455287 0.7428667761285462 0.8939411250322782	0.092889
C	0.6026453559233536 0.7756277175724827 0.8995385827529727	-0.172127
C	0.4326138911899280 0.6013690417050497 0.8938797694791872	0.105545
C	0.4006015972404023 0.5671757185804630 0.8999602379441087	-0.169693
C	0.2697842638898592 0.4362482791873896 0.9016300591644987	-0.114554
C	0.2358530843948296 0.4041582934220446 0.9014130316421516	-0.118469
C	0.0693938978870401 0.2423219198699161 0.8937643941978660	0.100902
C	0.1026992164709290 0.2751936482766417 0.8995969447446152	-0.170652
C	0.0677721882846444 0.8982189649184024 0.3938707043859460	0.105541
C	0.0994601659319582 0.9327290290605146 0.3999567566702941	-0.169627
C	0.2301781407291262 0.0637604639709415 0.4016192198447863	-0.115075
C	0.2641251163071300 0.0958238210216560 0.4013975811657195	-0.118068
C	0.4309834365437617 0.2572392942028436 0.3937628321816923	0.102163
C	0.3974018743403941 0.2246861711777110 0.3996004991908179	-0.170274
C	0.5676160244492287 0.3987467738787113 0.3940513703336022	0.096930
C	0.5993583122192535 0.4332006653602214 0.3998835979027601	-0.168727
C	0.7302198330928014 0.5637623441060849 0.4017232523123633	-0.116557
C	0.7641635329759686 0.5957906946996292 0.4015055006369760	-0.117969
C	0.9304542454927652 0.7574509997000027 0.3939518810361344	0.094061
C	0.8969895976927061 0.7247576396500353 0.3995624127032997	-0.172361
C	0.0676887350327721 0.1018804723076494 0.6061026783628826	0.105038
C	0.0993693640836239 0.0673702504071905 0.6000108573017553	-0.169224
C	0.2299797595825530 0.9364102140121768 0.5983315739616188	-0.117466
C	0.2639279845089696 0.9043648339945376 0.5985310419003618	-0.116564
C	0.4306515769903827 0.7429535072072602 0.6060828473047404	0.093356
C	0.3972515231233414 0.7757300240262003 0.6004982415722876	-0.172279
C	0.5672972471495916 0.6014633968847988 0.6060989372579748	0.104293
C	0.5992876175024270 0.5672606884766935 0.6000081075792497	-0.169027
C	0.7300216242922948 0.4364490404102590 0.5983049207382336	-0.117368
C	0.7639468578547980 0.4043845493245388 0.5985132389916404	-0.116752
C	0.9303604421769326 0.2426641127591652 0.6060646972026085	0.094004
C	0.8968806361959428 0.2753486037009543 0.6004869516204209	-0.173804
C	0.9320222226432485 0.8985727207933583 0.1059455156207430	0.093539
C	0.9001179337963492 0.9328864980055442 0.1001228207825062	-0.166399
C	0.7696231603479011 0.0639587463536395 0.0983094013347824	-0.117552
C	0.7357070327624207 0.0960356941087790 0.0985479036345638	-0.117738
C	0.5689274241056856 0.2573333587961748 0.1062225266398782	0.100589
C	0.6025076955916773 0.2247889730209133 0.1003765785474796	-0.170499
C	0.4322945395376220 0.3988294260258473 0.1059631660423533	0.096947
C	0.4005417834686537 0.4332846706998837 0.1001405885964960	-0.168145
C	0.2695979517019910 0.5639367103547348 0.0983288722071888	-0.117642
C	0.2356626573209432 0.5959933974932411 0.0985607123719218	-0.117097
C	0.0693149416524253 0.7577690636081905 0.1062280820308113	0.100871
C	0.1026002974108169 0.7249019450446152 0.1003817265511950	-0.170602
C	0.0677720068425681 0.8982195028188911 0.1061305568764487	0.105518
C	0.0994597074536783 0.9327286820020227 0.1000445676209279	-0.169681
C	0.2301776917908814 0.0637600472137350 0.0983793505958830	-0.115015
C	0.2641250008151806 0.0958234978834031 0.0986037590016427	-0.117977
C	0.4309832642349380 0.2572404168007272 0.1062400116164196	0.102093
C	0.3974014032867241 0.2246857935761638 0.1004000792515770	-0.170191
C	0.5676163658264280 0.3987466669840187 0.1059349392818368	0.097027
C	0.5993595760760541 0.4332001512237224 0.1001120186183531	-0.168875
C	0.7302193940441289 0.5637618499718652 0.0982750530457944	-0.116531
C	0.7641630661703916 0.5957902318917104 0.0984947313436398	-0.118003
C	0.9304543229105871 0.7574505663375909 0.1060478076696999	0.094053
C	0.8969888244133902 0.7247570775233328 0.1004334577281324	-0.172382
C	0.9320983908263363 0.1015267562460987 0.6059430794596067	0.094289
C	0.9002066320171742 0.0672124729178142 0.6001090139984816	-0.167125
C	0.7698169500685837 0.9361836725318597 0.5982679325060116	-0.116774
C	0.7358869584265316 0.9041380453195111 0.5984881053407299	-0.118897
C	0.5692434218300673 0.7428675173622072 0.6060598665529179	0.092747
C	0.6026455888579051 0.7756278663407102 0.6004610496009675	-0.171968
C	0.4326140015905316 0.6013692223417979 0.6061281546402431	0.105440
C	0.4006019085014339 0.5671755696092895 0.6000461217839852	-0.169591
C	0.2697838441398730 0.4362478406250371 0.5983704900629407	-0.114491
C	0.2358526743560084 0.4041578726184263 0.5985848733713345	-0.118479
C	0.0693943232220819 0.2423217029934317 0.6062373177000471	0.100845
C	0.1026984488408527 0.2751926240490690 0.6004019694248695	-0.170558
C	0.9320217573657352 0.8985735786487661 0.3940573109101437	0.093610
C	0.9001177708818183 0.9328872570275001 0.3998798955920084	-0.166492
C	0.7696232916288585 0.0639586027551660 0.4016902885807203	-0.117559
C	0.7357071351971776 0.0960355857531924 0.4014521015363269	-0.117741
C	0.5689267232384422 0.2573333253810258 0.3937738448181672	0.100680
C	0.6025072295609826 0.2247890214229188 0.3996220197274868	-0.170567
C	0.4322945620980422 0.3988295280336583 0.3940289269637345	0.096932
C	0.4005418610763493 0.4332844526707686 0.3998541913604053	-0.168092
C	0.2695980515279578 0.5639365927609219 0.4016704902525746	-0.117652
C	0.2356627649475973 0.5959932963541366 0.4014390014728621	-0.117079
C	0.0693141900823529 0.7577688166899406 0.3937706108961272	0.101398
C	0.1025996452551615 0.7249017880852472 0.3996172874165030	-0.170689
C	0.0676888586542788 0.1018802984217782 0.8938985827215441	0.105162
C	0.0993694610449325 0.0673700205081268 0.8999893212887289	-0.169279
C	0.2299798980673211 0.9364103992630770 0.9016680442663689	-0.117451
C	0.2639278778950850 0.9043647361253726 0.9014692447073335	-0.116593
C	0.4306502628855947 0.7429528805895683 0.8939193978638411	0.093314
C	0.3972508583895143 0.7757288775892442 0.8995070686968002	-0.172419
C	0.5672968459457839 0.6014630004268695 0.8939011006078427	0.104188
C	0.5992871158410691 0.5672601981328091 0.8999922152904346	-0.169032
C	0.7300220288763568 0.4364485648173748 0.9016950670917127	-0.117283
C	0.7639471626319340 0.4043844627554231 0.9014833138966871	-0.116867
C	0.9303603152345216 0.2426639809687105 0.8939320399448115	0.093939
C	0.8968804107709749 0.2753481846478202 0.8995113197455020	-0.173727
C	0.6544145655365742 0.8260901502745065 0.7500062854444668	-0.103851
C	0.8833826468037574 0.0493338886818222 0.7500020618931840	0.156657
C	0.8213583842747323 0.9857877774111704 0.7499946333690422	-0.103135
C	0.6202829345849903 0.7929254395373939 0.7500062666913265	0.167561
C	0.7872168222531299 0.9526890541766326 0.7499992515490326	0.127062
C	0.7183714107502293 0.8875496350039486 0.7499996474464401	0.140251
C	0.6839891621324808 0.8546841228696828 0.7500004902375796	-0.105759
C	0.8504569716442714 0.0149041667866020 0.7500003196781835	-0.102945
C	0.1542943881449996 0.3259539081405227 0.7499997196705859	-0.105239
C	0.3836384964235370 0.5494045617631610 0.7499956687840577	0.160960
C	0.3213622711670183 0.4859838902472647 0.7500008141786226	-0.098402
C	0.1202454106059281 0.2926043891580309 0.7500023321889063	0.167650
C	0.2872006176386383 0.4528347969985611 0.7500005857979055	0.126330
C	0.2182762451380593 0.3875355041023092 0.7499986036566646	0.139960
C	0.1838502633795532 0.3546283420279774 0.7499991694035348	-0.102446
C	0.3505149366385554 0.5151009199214795 0.7499980365900581	-0.106107
C	0.3454170613176734 0.1743291951397910 0.2499996117866353	-0.104394
C	0.1161106787331498 0.9508021904135125 0.2500019230379263	0.160692
C	0.1783009273881800 0.0143131691604105 0.2499988147222082	-0.100164
C	0.3795864227545894 0.2075546501671382 0.2499993446225451	0.167096
C	0.2126622479134410 0.0472678832031962 0.2499988477452157	0.127532
C	0.2816416161184283 0.1125226287133275 0.2500008963402134	0.140842
C	0.3159400146888510 0.1455858202315340 0.2500014869043619	-0.102492
C	0.1490654831703248 0.9852979127213822 0.2500018864935022	-0.106781
C	0.8453427083705362 0.6741725815490941 0.2499995667109998	-0.104194
C	0.6160826165071850 0.4511842216293566 0.2499965267862874	0.160677
C	0.6784275868344003 0.5144123096357104 0.2499981330746448	-0.102820
C	0.8793063652961309 0.7075237422464736 0.2499979246960028	0.168113
C	0.7127611358575442 0.5473104836270622 0.2499987373280272	0.126540
C	0.7816504301603198 0.6124162173799093 0.2500005235185093	0.140526
C	0.8159121171588255 0.6454189698129446 0.2500008870172631	-0.104963
C	0.6491465800774660 0.4854798298312663 0.2499995013446193	-0.105833
C	0.3454400453072510 0.8262249500441717 0.7500021059969889	-0.103477
C	0.1160158489068227 0.0493150571766304 0.7499999409338552	0.161577
C	0.1781911584310256 0.9858520286458394 0.7499996596851420	-0.099677
C	0.3795964723070089 0.7930411758587147 0.7500023647397127	0.166936
C	0.2124930249689947 0.9529071175138848 0.7499998245839581	0.127514
C	0.2814594391326512 0.8877537362857357 0.7500003913559788	0.138903
C	0.3158688883154548 0.8548531099295592 0.7500009576535485	-0.104716
C	0.1489581658786199 0.0148579645256092 0.7499995696845885	-0.110222
C	0.8452059990040834 0.3259791749558134 0.7499985734626137	-0.104341
C	0.6162120443351128 0.5494832571076159 0.7500001958130393	0.162432
C	0.6784252078152407 0.4860736705274424 0.7499990674485187	-0.096585
C	0.8791793708969418 0.2925982211219376 0.7499983690688020	0.170150
C	0.7125973740416570 0.4529954425846492 0.7499985775576724	0.128407
C	0.7814618344716557 0.3877621409967132 0.7499993488559633	0.138098
C	0.8157801533770910 0.3547629940366946 0.7499989994001839	-0.104697
C	0.6492843504564512 0.5151647205742136 0.7499997809398905	-0.109979
C	0.6544391446115075 0.1744502103773350 0.2500001789282221	-0.107166
C	0.8832908950378168 0.9507697936015023 0.2499994468746218	0.156694
C	0.8212510542137311 0.0143588262021394 0.2499986454401014	-0.103108
C	0.6203037551354821 0.2076591412110571 0.2500003847893372	0.168004
C	0.7870488097275484 0.0474439488809197 0.2499996616761684	0.128302
C	0.7181981700011907 0.1127138722417841 0.2500001139389367	0.137138
C	0.6839227063754283 0.1457215491602565 0.2500004471242440	-0.100155
C	0.8503567457155320 0.9852296069265605 0.2499955907167967	-0.102223
C	0.1541663025407116 0.6741544205284213 0.2500011807230997	-0.105478
C	0.3837928086840269 0.4512588547258658 0.2499964518870811	0.157957
C	0.3213829373791172 0.5144744842570229 0.2499991401987131	-0.104672
C	0.1201331229735143 0.7074930170072287 0.2500008610602205	0.167706
C	0.2870504230310970 0.5474326904911573 0.2499996225134663	0.128021
C	0.2181046632219685 0.6126123496325488 0.2499999258920954	0.138643
C	0.1837111215092079 0.6455065574704030 0.2500002406810344	-0.101833
C	0.3506785030773609 0.4855387583375089 0.2499977185207050	-0.104017
H	0.9459671695442551 0.1153990087210137 0.0086436770621556	0.095843
H	0.8885386869742247 0.0543736810375574 0.0192959529069759	0.118219
H	0.7834302044851323 0.9490295071808162 0.0183317440523820	0.107287
H	0.7223241473907862 0.8913423017157797 0.0181092006754904	0.114668
H	0.5557729235918979 0.7286519701276738 0.0085680277811208	0.094373
H	0.6150680113136683 0.7875329780210800 0.0190057420740583	0.122811
H	0.4467638300382454 0.6154660026950158 0.0075396201491062	0.088610
H	0.3888659137998226 0.5543380997990970 0.0192152803440681	0.119514
H	0.2833980612071170 0.4490115573375465 0.0183053859131804	0.107523
H	0.2223703938041191 0.3913586383489721 0.0180969258863271	0.114694
H	0.0556916345371182 0.2278462750489816 0.0075146615621261	0.088086
H	0.1151013665468017 0.2871744312295894 0.0189357450217065	0.123445
H	0.0546916822535240 0.8830526929915834 0.5074862478575957	0.089603
H	0.1113486104742578 0.9454260796663526 0.5192016597845871	0.119429
H	0.2165935340002894 0.0509744061197011 0.5183165911271234	0.107371
H	0.2776392543928808 0.1085926494124226 0.5180943963983352	0.114750
H	0.4457523287816222 0.2706152391165492 0.5074798076189333	0.087895
H	0.3851468516599910 0.2125277991494567 0.5189304680081703	0.123250
H	0.5548483093516137 0.3837733372120971 0.5085990301327611	0.094449
H	0.6112575572601601 0.4458149393333835 0.5192798436816369	0.118174
H	0.7165830578408366 0.5509605969358030 0.5183410603181283	0.106830
H	0.7777042623295484 0.6086077743855818 0.5181075085044263	0.114591
H	0.9449684958429233 0.7705721778278160 0.5085429459686843	0.094020
H	0.8848175752243654 0.7125841641292197 0.5190299785060890	0.123432
H	0.0546098113686827 0.1170415626070971 0.4925078028765085	0.088949
H	0.1112734076909029 0.0546449637405964 0.4808182443905041	0.118806
H	0.2163842019139137 0.9492357065945103 0.4816540619147012	0.107033
H	0.2774293456030766 0.8915574106164291 0.4819044817074821	0.115458
H	0.4441237050748784 0.7287383930427331 0.4914562927731071	0.094457
H	0.3848552353499282 0.7876070715058856 0.4809815488816481	0.123314
H	0.5531697030568997 0.6155711916145664 0.4924520630675706	0.088943
H	0.6110528741423075 0.5544046718567839 0.4808028038930660	0.119276
H	0.7163637983942132 0.4492176838195174 0.4816538996094552	0.107631
H	0.7774767995140114 0.3915938723609264 0.4819075687936402	0.115165
H	0.9448859425099539 0.2295407887874796 0.4914630551035803	0.094038
H	0.8847384956522013 0.2875030317224612 0.4809510218617670	0.123671
H	0.9458936054213201 0.8847005308243926 0.9913701403425574	0.096096
H	0.8884695988938290 0.9456997275491678 0.9806920600863901	0.118554
H	0.7832329367727133 0.0511575371451390 0.9816814960070037	0.107802
H	0.7221310595081719 0.1088040778495953 0.9818989659893039	0.114993
H	0.5541680907282616 0.2707051950940137 0.9924998767468544	0.088503
H	0.6147864108503737 0.2126051499379983 0.9810866495405739	0.123468
H	0.4450672430122277 0.3838595459111996 0.9913989524508990	0.094791
H	0.3886710018075931 0.4458784028055311 0.9807059443058586	0.118169
H	0.2831960800333805 0.5511429383875406 0.9816821375371388	0.107158
H	0.2221619519907949 0.6088321090137986 0.9818972640262756	0.115141
H	0.0556111184726501 0.7722439131432585 0.9924804181797541	0.088318
H	0.1150262010300798 0.7129007728968906 0.9810780087647144	0.123396
H	0.0546915236590069 0.8830526222772308 0.9925112262357991	0.089586
H	0.1113484910727663 0.9454256601872141 0.9807991214102552	0.119465
H	0.2165928151224755 0.0509737655581724 0.9816810416139303	0.107325
H	0.2776385085628943 0.1085919915647763 0.9819072647362388	0.114690
H	0.4457518592483254 0.2706153839900414 0.9925246506117619	0.087932
H	0.3851461499239733 0.2125279588950829 0.9810704258376415	0.123243
H	0.5548488924618719 0.3837740773264549 0.9913843299724109	0.094432
H	0.6112581734259582 0.4458151854565979 0.9807162804132252	0.118257
H	0.7165823542301054 0.5509598101251464 0.9816563669722330	0.106833
H	0.7777035069404048 0.6086070046815928 0.9818936207127399	0.114578
H	0.9449675824890189 0.7705716883070057 0.9914574679309430	0.094053
H	0.8848168292575732 0.7125827365090858 0.9809679635608886	0.123420
H	0.9459662799121407 0.1153977469137138 0.4913607727159861	0.095836
H	0.8885381208843863 0.0543724982194184 0.4807075055326864	0.118198
H	0.7834291222486109 0.9490287112590604 0.4816702049815699	0.107266
H	0.7223230860884006 0.8913415850289524 0.4818891924228280	0.114618
H	0.5557732382524226 0.7286537397551979 0.4914236984130742	0.094421
H	0.6150689881800357 0.7875348662621705 0.4809996342946305	0.122769
H	0.4467652799260983 0.6154672774438315 0.4924762912509794	0.088651
H	0.3888679641551929 0.5543392520280933 0.4807842718646955	0.119503
H	0.2833974178995641 0.4490109047311718 0.4816959991695912	0.107537
H	0.2223697221700682 0.3913579863747020 0.4819002202977032	0.114655
H	0.0556905272733231 0.2278448143197216 0.4924854914872092	0.088114
H	0.1151001262519764 0.2871734693390628 0.4810658474688537	0.123387
H	0.9458934988747516 0.8847020590288764 0.5086383822899510	0.096110
H	0.8884690432436680 0.9457013463403214 0.5193106412331976	0.118611
H	0.7832330640477628 0.0511573684703356 0.5183183119063549	0.107791
H	0.7221311691864908 0.1088039259044353 0.5181009575947557	0.115007
H	0.5541676496044138 0.2707062061091202 0.5074948898361719	0.088486
H	0.6147852248542394 0.2126059661537295 0.5189128667176087	0.123512
H	0.4450675841929903 0.3838601825014218 0.5085950133481424	0.094756
H	0.3886711518536236 0.4458783169103093 0.5192888857489218	0.118094
H	0.2831961952647403 0.5511427345415417 0.5183172107885863	0.107143
H	0.2221620922029700 0.6088319306226163 0.5181024703821064	0.115174
H	0.0556100580428738 0.7722439703400688 0.5075157414816972	0.088074
H	0.1150259561700195 0.7129017981993363 0.5189212386700859	0.123410
H	0.0546101623926970 0.1170413689734963 0.0074937909706130	0.088923
H	0.1112735806802032 0.0546447433910748 0.0191817609989903	0.118799
H	0.2163841583275913 0.9492358331729814 0.0183455779950346	0.107034
H	0.2774296679595592 0.8915578611344505 0.0180958815691548	0.115458
H	0.4441233077694415 0.7287380553577498 0.0085469941661732	0.094508
H	0.3848544718993377 0.7876063190593079 0.0190255601165008	0.123397
H	0.5531698727126104 0.6155713699143178 0.0075481923072797	0.088940
H	0.6110525375026989 0.5544043786120264 0.0191972056489183	0.119260
H	0.7163640492771882 0.4492178185419403 0.0183440434978820	0.107619
H	0.7774772676092331 0.3915938574169492 0.0180909519485771	0.115174
H	0.9448854511187373 0.2295404725945276 0.0085353995993837	0.094066
H	0.8847384588368554 0.2875028509622859 0.0190465357280842	0.123606
Fe	0.4999621312587710 0.6732783440194915 0.7499946690237159	0.803813
Fe	-0.0004716951509490 0.1729644415213026 0.7499973239996900	0.805268
Fe	0.4999600178510337 0.3274875465034929 0.2499960325048765	0.805977
Fe	-0.0004509912092285 0.8271509166887014 0.2499994789726051	0.805356
Ga	0.4999873154859386 0.6710983412479921 0.2499975002464089	1.444391
Ga	0.0018936962856883 0.1732367418475488 0.2499993028059926	1.445289
Ga	0.4999580979474948 0.3252280265159430 0.7500008352986838	1.444564
Ga	0.0018934846174121 0.8268568418967427 0.7499995964400057	1.446194
F	0.5000233289195538 0.6090280214819643 0.2500562832831923	-0.562809
F	0.9736072101982187 0.2281633830946576 0.2500042649367072	-0.553378
F	0.9734730471296892 0.1183784708352661 0.2500069895870664	-0.550059
F	0.5000177608288772 0.2631998341901818 0.7500626060185200	-0.566166
F	0.9736315286149722 0.7719114470070276 0.7499987619871182	-0.553454
F	0.9734630473155073 0.8817093537287571 0.7499842766290256	-0.550685
F	0.5533876546248285 0.7002778627728993 0.2499629031234179	-0.551801
F	0.0623176879874829 0.1733465698739415 0.2499970013910494	-0.565725
F	0.4466090547230283 0.3544677425161138 0.7499996483648746	-0.551662
F	0.4466097064179105 0.7003548164271587 0.2500073315510324	-0.552408
F	0.5533703727226195 0.3543280963310696 0.7499705577375663	-0.551159
F	0.0623023727786601 0.8267416915355547 0.7499991812136313	-0.565649
F	0.4999489924712711 0.6728338095492882 0.4967504191678018	-0.526703
F	0.0001505330757475 0.1731480220584003 0.4967131081333450	-0.527269
F	0.4999107750976827 0.3268986347313798 -0.0031003344629559	-0.527055
F	0.0001498945909316 0.8270192778906231 -0.0032208605077849	-0.527319
F	0.4999343758379562 0.6728229845124730 0.0032441413277338	-0.526679
F	0.0001502219146452 0.1731430241992247 0.0032876549781079	-0.527234
F	0.4999154990153099 0.3268939620689459 0.5030999824794606	-0.527047
F	0.0001446120412746 0.8270278396377299 0.5032242097329074	-0.527343
N	0.5525160960030668 0.7264913686031778 0.7499930185129314	-0.244594
N	0.9479291955415703 0.1187398957146504 0.7500023854076384	-0.243994
N	0.0525932973240995 0.2259646682787369 0.7499981152245350	-0.239275
N	0.4484399181738319 0.6186578325388723 0.7500102918271229	-0.240740
N	0.4476692314261080 0.2737303124285394 0.2500031211698301	-0.241467
N	0.0518261617826364 0.8810459463595582 0.2499976404244255	-0.240447
N	0.9471314908414348 0.7738663920501108 0.2500000992755241	-0.246058
N	0.5517610526820733 0.3815493950740683 0.2499934075707507	-0.245469
N	0.4473714345066004 0.7265546389861264 0.7500030653813989	-0.243705
N	0.0517697989130807 0.1190509671581105 0.7500006117116851	-0.239077
N	0.9470656689920323 0.2262462039108602 0.7499995019672677	-0.244938
N	0.5514748271263914 0.6187289559677510 0.7499999249294192	-0.240968
N	0.5522404778449957 0.2737951143198299 0.2499969978369777	-0.240036
N	0.9478763489328758 0.8813615109312731 0.2500061714590122	-0.243404
N	0.0525328144482770 0.7741293325404015 0.2499971413630792	-0.239509
N	0.4481489767168400 0.3816064213770392 0.2499976847758010	-0.244233
	  	
