#======================================================================

# CRYSTAL DATA

#----------------------------------------------------------------------

data_VESTA_phase_1


_pd_phase_name                         GaFFIVE_2_Co_i
_cell_length_a                         13.57466
_cell_length_b                         13.57462
_cell_length_c                         8.28078
_cell_angle_alpha                      89.99995
_cell_angle_beta                       90.00035
_cell_angle_gamma                      89.89417
_symmetry_space_group_name_H-M         P 1
_symmetry_Int_Tables_number            1

loop_
_symmetry_equiv_pos_as_xyz
   x, y, z

loop_
   _atom_site_label
   _atom_site_fract_x
   _atom_site_fract_y
   _atom_site_fract_z
   _atom_site_charge
C	0.0003591402231298 0.2977830336083641 0.3544749392208569	-0.156656
C	0.0003079541488396 0.1958529034652192 0.3594056595423833	0.083434
C	0.5003545581422639 0.7978020950781428 0.8544439200789360	-0.156407
C	0.5002972585845452 0.6958836050762938 0.8593958963894673	0.083269
C	0.0001533917823749 0.7028242355920606 0.3543687726058237	-0.158001
C	-0.0001426513436865 0.8047613171333423 0.3594679848930739	0.090528
C	0.5001396935325610 0.2028326799245057 0.8543387278793034	-0.157819
C	0.4998405138856449 0.3047614451811274 0.8594490575986562	0.090237
C	0.7028240806799312 0.0001537785084536 0.3543676313598035	-0.158017
C	0.8047605927074846 -0.0001424046265856 0.3594682672293958	0.090514
C	0.2028327479022137 0.5001401732593750 0.8543390094616129	-0.157832
C	0.3047612940854363 0.4998406745178136 0.8594488872971919	0.090212
C	0.2977818285300483 0.0003582844708993 0.3544734690146371	-0.156747
C	0.1958529472871750 0.0003071842545871 0.3594037489538701	0.083497
C	0.7978020229277898 0.5003561105321633 0.8544457902860105	-0.156398
C	0.6958837268985409 0.5002982151976952 0.8593981029553140	0.083249
C	0.0003586740326787 0.2977829362917009 0.6455259226092249	-0.156647
C	0.0003075265595471 0.1958529743882118 0.6405955324026806	0.083412
C	0.5003554185358825 0.7978019625579020 0.1455546748604394	-0.156428
C	0.5002976815532115 0.6958834874638579 0.1406016737883438	0.083248
C	0.0001533262195766 0.7028243348401080 0.6456316140657893	-0.158005
C	-0.0001426916141049 0.8047614860024075 0.6405319498572660	0.090531
C	0.5001396014055683 0.2028324323436299 0.1456600916500225	-0.157850
C	0.4998401202450771 0.3047612875644715 0.1405497263221153	0.090206
C	0.2977820853746004 0.0003591978337654 0.6455255135071458	-0.156665
C	0.1958532845129168 0.0003079390141321 0.6405939296382900	0.083384
C	0.7978028684262598 0.5003548396185122 0.1455566441245277	-0.156499
C	0.6958844405570351 0.5002975540295276 0.1406041096612710	0.083338
C	0.7028245547791241 0.0001533762815310 0.6456306290968078	-0.157990
C	0.8047612114278430 -0.0001426118318431 0.6405322406084260	0.090545
C	0.2028341017621708 0.5001398857351415 0.1456606605899338	-0.157852
C	0.3047624093029060 0.4998402082882130 0.1405510081685045	0.090236
C	0.0001945864426688 0.4553651530178746 0.4999997554287718	-0.090779
C	0.0004772016310123 0.3514786395881153 0.4999999246134781	0.158364
C	0.5002142780584631 0.9553809625201861 -0.0000013176682199	-0.090591
C	0.5004781153385004 0.8514957791642850 -0.0000009390088063	0.158214
C	0.0003165768681646 0.5452760585703804 0.5000002925753173	-0.098913
C	0.0005071538827205 0.6491538478486868 0.5000004195471851	0.157818
C	0.5003292602985113 0.0452951029219065 -0.0000012299652870	-0.099082
C	0.5005002978293637 0.1491718419477342 -0.0000007404726355	0.157787
C	0.5452749217919375 0.0003171562280237 0.4999991126200383	-0.099131
C	0.6491538350088221 0.0005075492262441 0.4999992773264269	0.157803
C	0.0452956983427851 0.5003294067503331 0.0000009740213997	-0.099239
C	0.1491724561747506 0.5005007662875246 0.0000001779114445	0.157800
C	0.4553652768746359 0.0001946914686599 0.5000006069065449	-0.090541
C	0.3514777468382862 0.0004768206646460 0.5000000487554338	0.158311
C	0.9553813488086782 0.5002144062452764 0.0000018304544534	-0.090484
C	0.8514960482319818 0.5004788261032351 0.0000014328512106	0.158262
H	-0.0003893715026436 0.3346909592838992 0.2376806232336590	0.121734
H	-0.0014087290543956 0.1532786697921729 0.2482375363657378	0.105413
H	0.4996146842656723 0.8347629473859535 0.7376766554067358	0.121769
H	0.4986067489041457 0.6531690556883223 0.7483502432812191	0.105565
H	-0.0005493304802333 0.6653171005355769 0.2380680830783477	0.121482
H	-0.0021559767846086 0.8485814246577215 0.2496670521518455	0.100985
H	0.4994473568997781 0.1652811804322106 0.7380596255642501	0.121463
H	0.4978444350105123 0.3486735514848228 0.7497251729956701	0.101227
H	0.6653163590485752 -0.0005487276549141 0.2380662556856956	0.121498
H	0.8485812031472414 -0.0021558194020292 0.2496677865338647	0.101006
H	0.1652807570175830 0.4994470222748797 0.7380594683664938	0.121473
H	0.3486716790231022 0.4978407455912382 0.7497228602887094	0.101228
H	0.3346914505158332 -0.0003902621805585 0.2376804365744694	0.121782
H	0.1532780423600474 -0.0014113601675324 0.2482345349666488	0.105399
H	0.8347625962071265 0.4996151994964195 0.7376788362762815	0.121763
H	0.6531674391248347 0.4986045463922132 0.7483536270713563	0.105605
H	-0.0003902510901152 0.3346918837330634 0.7623191139296067	0.121755
H	-0.0014109703115444 0.1532790787346502 0.7517652287927260	0.105429
H	0.4996155628730006 0.8347625262391682 0.2623218956596037	0.121799
H	0.4986067187328497 0.6531686051698132 0.2516476592173785	0.105573
H	-0.0005494524977937 0.6653171549854322 0.7619326327973641	0.121483
H	-0.0021558537492249 0.8485817643259433 0.7503324706755213	0.100981
H	0.4994473641452809 0.1652813495119412 0.2619397140295071	0.121481
H	0.4978433168499877 0.3486733701834228 0.2502735448543741	0.101255
H	0.3346918455429301 -0.0003900791848359 0.7623195130337144	0.121768
H	0.1532783533800244 -0.0014088162556214 0.7517623936088683	0.105438
H	0.8347645055565001 0.4996136678866200 0.2623236454701794	0.121794
H	0.6531692968520677 0.4986039141845098 0.2516486622057615	0.105568
H	0.6653173561397565 -0.0005497930678305 0.7619317805409497	0.121487
H	0.8485818314904812 -0.0021560952212771 0.7503331322558078	0.100975
H	0.1652826912067654 0.4994467808130610 0.2619398386001290	0.121496
H	0.3486733164183015 0.4978401368583018 0.2502772385926355	0.101228
Co	0.0004447508232652 0.0004444492190603 0.4999994133352147	0.586154
Co	0.5004533169874112 0.5004532812577305 0.0000002680068273	0.585328
Ga	-0.0006270336818334 -0.0006265539805246 0.0000020517757651	1.431076
Ga	0.4995908635722539 0.4995925840201916 0.5000008324401427	1.434056
N	0.0004991690920912 0.1449500159385604 0.5000012576832815	-0.177139
N	0.5004849352516868 0.6449921320504863 -0.0000009836606231	-0.177581
N	0.0002454344285428 0.8557293127775156 0.4999996707849292	-0.177581
N	0.5002297184024268 0.3557132768954128 -0.0000005493665724	-0.177216
N	0.8557290483630138 0.0002457344291051 0.5000001995502353	-0.177579
N	0.3557135733572476 0.5002297037591579 -0.0000001563464382	-0.177219
N	0.1449497299718815 0.0004986108629178 0.4999984046433508	-0.177127
N	0.6449928480627927 0.5004856849537654 0.0000010605003670	-0.177611
F	0.0003227578616183 0.0003219208958842 0.7661129835178402	-0.546334
F	0.5004458070090125 0.5004359012877687 0.2665071132051315	-0.546355
F	0.0003217842440361 0.0003229942574881 0.2338909896442743	-0.546313
F	0.5004556474325546 0.5004341413808939 0.7334936623952226	-0.546356
F	0.6297628859623753 0.4628842775159658 0.4999974968888933	-0.564844
F	0.4629823840382189 0.6297919637077650 0.4999954922029220	-0.564810
F	0.4041334198778203 0.4042398243413630 0.5000053675125963	-0.577528
F	0.9039527799764561 0.9039529172747205 -0.0000001109585438	-0.575936
F	0.9628385850164211 0.1295956059185668 -0.0000002009853350	-0.563814
F	0.1295941002330149 0.9628388715816195 0.0000031385115482	-0.563800
	  	
