#======================================================================

# CRYSTAL DATA

#----------------------------------------------------------------------

data_VESTA_phase_1


_pd_phase_name                         GaFFIVE_6_Fe_i
_cell_length_a                         17.92155
_cell_length_b                         17.92154
_cell_length_c                         15.57916
_cell_angle_alpha                      89.99973
_cell_angle_beta                       89.99978
_cell_angle_gamma                      89.98441
_symmetry_space_group_name_H-M         P 1
_symmetry_Int_Tables_number            1

loop_
_symmetry_equiv_pos_as_xyz
   x, y, z

loop_
   _atom_site_label
   _atom_site_fract_x
   _atom_site_fract_y
   _atom_site_fract_z
   _atom_site_charge
N	0.2438364867677173 0.1279370848000500 0.1279522937823996	-0.244221
N	0.2560675481420790 0.3721574402936175 0.1287093930763668	-0.246704
N	0.3720907112836039 0.2439767083264584 0.1285349853397908	-0.244940
N	0.1278889437884589 0.2561814764168869 0.1276223849873113	-0.245172
N	0.7560221191553521 0.6279071594752439 0.3714591303047978	-0.244979
N	0.7438164489963663 0.8721090385716362 0.3723838196787701	-0.245213
N	0.6278431302818523 0.7439320074331053 0.3712908224673285	-0.246801
N	0.8720632265322885 0.7561638229945462 0.3720481641856360	-0.244233
N	0.7560677165025661 0.8721560503654917 0.8712928838845722	-0.246737
N	0.7438359921308306 0.6279371754631450 0.8720452426682501	-0.244285
N	0.6278907641028153 0.7561802697558454 0.8723733665545897	-0.245074
N	0.8720926167453390 0.7439752177686545 0.8714681632488855	-0.244850
N	0.2438219722244426 0.3721097502536259 0.6276285652584043	-0.245090
N	0.2560260641771419 0.1279074324713150 0.6285293305937127	-0.244789
N	0.3720632158304961 0.2561623663151887 0.6279578781981012	-0.244166
N	0.1278438834938487 0.2439311214337475 0.6287035199942643	-0.246741
C	0.2006031050335755 0.0918779514451292 0.1850358583383827	0.108282
C	0.1924685081748972 0.0147689063991135 0.1847733050870558	-0.182978
C	0.2323999320412987 0.9720412913588251 0.1249203039408121	0.110824
C	0.2783780638778888 0.0101796135800796 0.0666832141190346	-0.183114
C	0.2817053716599688 0.0876077585651471 0.0695691039000182	0.105592
C	0.2266800544048085 0.8899575313322455 0.1237574991679408	0.061382
C	0.2903775702741465 0.8462133999054381 0.1209624283818400	-0.173169
C	0.2860222537382279 0.7674333065050456 0.1220754047682802	0.085119
C	0.1492981484931883 0.7783565367433525 0.1246065463070609	-0.123605
C	0.1555379775186120 0.8548434738452755 0.1266805141886024	-0.135411
C	0.2993910528196767 0.4081334421986579 0.1859457929066007	0.099777
C	0.3075171421919139 0.4852705191485849 0.1854488589281943	-0.187355
C	0.2675386771625788 0.5279998282725757 0.1255319980762457	0.107324
C	0.2216549451180007 0.4898424689937927 0.0672868729247684	-0.183592
C	0.2183190555979307 0.4123817782693568 0.0700319423632882	0.102798
C	0.2733380331937879 0.6100827278489493 0.1240290429242158	0.062885
C	0.2096341803747333 0.6538084039671285 0.1210408615853152	-0.173349
C	0.2139511939550227 0.7325819569323007 0.1220639934490356	0.085425
C	0.3506668282060212 0.7216566234157080 0.1246025548436517	-0.123174
C	0.3444971014583256 0.6451731017971215 0.1267715427919274	-0.136842
C	0.4081260607039859 0.2005521058626248 0.1855336184083415	0.102319
C	0.4852395771842991 0.1924828549220680 0.1853371580529865	-0.187038
C	0.5279761482659492 0.2325285598601472 0.1255109675604211	0.110686
C	0.4898423992043909 0.2784327899947686 0.0672760746051318	-0.180752
C	0.4124042356562118 0.2817738304394825 0.0701249997158036	0.111300
C	0.6100463827132538 0.2267017168069725 0.1240393597787460	0.062213
C	0.6537648526863412 0.2903891322168822 0.1210531456741235	-0.173426
C	0.7325406601237829 0.2860210841220955 0.1220691728986864	0.084721
C	0.7216468894050062 0.1493163379951992 0.1246186139868799	-0.124311
C	0.6451618856823789 0.1555357541064722 0.1267773173775324	-0.135803
C	0.0918849768176783 0.2993686088838894 0.1849227967843070	0.101523
C	0.0147509926371845 0.3074824537288806 0.1845778695201659	-0.182352
C	0.9720138719602001 0.2675723926564042 0.1247268905167648	0.107321
C	0.0101776820893107 0.2216139108723339 0.0664344917708254	-0.185739
C	0.0876436673369758 0.2182976761090007 0.0690686025340658	0.099680
C	0.8899150260619061 0.2732683862073633 0.1236752297051050	0.062112
C	0.8461932270655916 0.2095784588792167 0.1209379505354932	-0.174351
C	0.7674115119362428 0.2139394981958832 0.1220910274729512	0.088377
C	0.7783042433832755 0.3506586128316794 0.1246068814847511	-0.123149
C	0.8547917148053980 0.3444222875251791 0.1266579802852452	-0.136533
C	0.7994476127282227 0.5918716182683672 0.3144621993049255	0.102454
C	0.8075178055616812 0.5147591777892373 0.3146614558428539	-0.187094
C	0.7674709592642630 0.4720238385815910 0.3744893017771831	0.110713
C	0.7215668806000181 0.5101583978565386 0.4327219981014910	-0.180723
C	0.7182247187025168 0.5875956570948356 0.4298695754592582	0.111201
C	0.7732977953783408 0.3899535928075972 0.3759617255437315	0.062152
C	0.7096104534458735 0.3462350226079927 0.3789476721083248	-0.173390
C	0.7139785965556423 0.2674588275981270 0.3779310073818039	0.084743
C	0.8506835380851724 0.2783529773199184 0.3753815755470943	-0.124350
C	0.8444637883141308 0.3548380812039109 0.3732232685107267	-0.135788
C	0.7006313103020382 0.9081138589498806 0.3150809089798511	0.101549
C	0.6925193011675275 0.9852478782441889 0.3154232080205330	-0.182369
C	0.7324288589373174 0.0279856632163433 0.3752726920444688	0.107285
C	0.7783877087956046 0.9898226837799403 0.4335665352077887	-0.185662
C	0.7817016312602655 0.9123557728185581 0.4309355907885652	0.099619
C	0.7267323027017276 0.1100849022128303 0.3763244465068696	0.062176
C	0.7904216521130100 0.1538067681890961 0.3790621428092781	-0.174396
C	0.7860603720760942 0.2325884424871553 0.3779091715812610	0.088389
C	0.6493413355841038 0.2216950462394840 0.3753932390236770	-0.123205
C	0.6555778973936498 0.1452073797687604 0.3733420068167591	-0.136497
C	0.5918669390513701 0.7006084290162566 0.3140553412299973	0.099826
C	0.5147306019816026 0.6924833256638167 0.3145515955320694	-0.187337
C	0.4720006221717744 0.7324619400885386 0.3744682667930276	0.107375
C	0.5101592901884542 0.7783453423378812 0.4327132205164423	-0.183576
C	0.5876193542371927 0.7816803072605524 0.4299687390945037	0.102839
C	0.3899179034145948 0.7266624328162700 0.3759707429264222	0.062859
C	0.3461917633934966 0.7903659015809783 0.3789591658872998	-0.173491
C	0.2674181510755035 0.7860488189460173 0.3779361088642416	0.085474
C	0.2783439403302199 0.6493331627654534 0.3753970721081577	-0.123166
C	0.3548273479557930 0.6555031774377303 0.3732284402283666	-0.136765
C	0.9081221908527946 0.7993964952772011 0.3149639981989539	0.108350
C	0.9852313186388095 0.8075317624754061 0.3152261190946994	-0.183006
C	0.0279589178902814 0.7675999847001157 0.3750799830362731	0.110744
C	0.9898213204822285 0.7216217326172516 0.4333163120594181	-0.183112
C	0.9123929325992822 0.7182939353243037 0.4304302206730652	0.105648
C	0.1100427468776074 0.7733197202843574 0.3762428170632950	0.061410
C	0.1537867271758155 0.7096221103519377 0.3790379206768920	-0.173167
C	0.2325666732899551 0.7139776568178073 0.3779247673487493	0.085119
C	0.2216433069746835 0.8507019896026484 0.3753936788557349	-0.123631
C	0.1451567783264514 0.8444619529449489 0.3733196315819638	-0.135419
C	0.7993917124784446 0.9081328921787111 0.8140575051726667	0.099927
C	0.8075163433974278 0.9852703247943851 0.8145516042155195	-0.187362
C	0.7675375106666198 0.0279995752554904 0.8744678987516972	0.107427
C	0.7216536338249658 0.9898422298206274 0.9327146493894174	-0.183584
C	0.7183193079319157 0.9123805875376483 0.9299712751738274	0.102752
C	0.7733374501884929 0.1100824670561446 0.8759701347160090	0.062872
C	0.7096340600260058 0.1538083307881120 0.8789589778587253	-0.173421
C	0.7139512651788107 0.2325818375876792 0.8779359420247920	0.085510
C	0.8506669673017331 0.2216559258293903 0.8753975914836488	-0.123210
C	0.8444970701177176 0.1451723550719542 0.8732281291878076	-0.136830
C	0.7006034698639541 0.5918774470428888 0.8149620312362851	0.108374
C	0.6924679662176487 0.5147699219478112 0.8152264674715327	-0.182945
C	0.7323996791773384 0.4720418192258607 0.8750808836114597	0.110728
C	0.7783772296073710 0.5101803971775524 0.9333153683083920	-0.182935
C	0.7817057078189225 0.5876078719759161 0.9304281088616455	0.105510
C	0.7266801636461041 0.3899577643570208 0.8762434529740745	0.061386
C	0.7903779329974849 0.3462132923719164 0.8790380425139742	-0.173085
C	0.7860224310455468 0.2674329438368367 0.8779246753018340	0.085036
C	0.6492980193842782 0.2783565260915387 0.8753933720363060	-0.123618
C	0.6555383248816964 0.3548431791430222 0.8733198378322257	-0.135404
C	0.5918852719873215 0.7993682862105138 0.8150742435660360	0.101462
C	0.5147504051844476 0.8074837209424680 0.8154218455746827	-0.182226
C	0.4720144523216397 0.7675725038107957 0.8752740082499993	0.107258
C	0.5101783149247522 0.7216140473527566 0.9335658193450058	-0.185664
C	0.5876453987949545 0.7182966437385263 0.9309284897178920	0.099544
C	0.3899151501905759 0.7732680059429494 0.8763257273252723	0.062209
C	0.3461934681034922 0.7095778955549940 0.8790622803075295	-0.173293
C	0.2674118056998990 0.7139393774018193 0.8779087640675172	0.084928
C	0.2783049351354636 0.8506586340476677 0.8753931985821626	-0.123075
C	0.3547922446632725 0.8444218630500028 0.8733423932679814	-0.136453
C	0.9081272105866756 0.7005514959072047 0.8144696584648499	0.102263
C	0.9852395875980517 0.6924836432140299 0.8146630582892654	-0.187137
C	0.0279765296152614 0.7325288868754981 0.8744888584487606	0.110710
C	0.9898430385047899 0.7784335062004758 0.9327236248586387	-0.180759
C	0.9124057759155980 0.7817735833780812 0.9298768351969805	0.111262
C	0.1100465199418749 0.7267020429813541 0.8759600878598460	0.062257
C	0.1537653181517404 0.7903892573479443 0.8789469898019271	-0.173304
C	0.2325414316544713 0.7860209067959100 0.8779308422414399	0.085641
C	0.2216472544630845 0.6493162250120466 0.8753810444639688	-0.123282
C	0.1451620520863650 0.6555359448447320 0.8732223227282165	-0.135704
C	0.2006321842188399 0.4081153211337593 0.6849259875897622	0.101481
C	0.1925156429541739 0.4852502580167828 0.6845773071612393	-0.182240
C	0.2324263570122382 0.5279863392800421 0.6247256035684047	0.107274
C	0.2783851581943161 0.4898224830955155 0.5664334651612799	-0.185651
C	0.2817034577703727 0.4123553237775194 0.5690724266025018	0.099590
C	0.2267315419550092 0.6100853090234228 0.6236741136467299	0.062142
C	0.2904217303295418 0.6538065721709553 0.6209374978662886	-0.173268
C	0.2860605265189327 0.7325882442551513 0.6220912218164927	0.084905
C	0.1493414579458203 0.7216955208709774 0.6246066876936655	-0.123068
C	0.1555777349721197 0.6452080144462495 0.6266575418397756	-0.136528
C	0.2994484569092621 0.0918734899032606 0.6855302743552202	0.102230
C	0.3075150908447667 0.0147607651173344 0.6853372129702574	-0.187075
C	0.2674705287898126 0.9720233902752115 0.6255113990053259	0.110714
C	0.2215660134996295 0.0101567951206276 0.5672762841725361	-0.180747
C	0.2182264989827617 0.0875944773680069 0.5701219407249111	0.111258
C	0.2732980889218153 0.8899533836109039 0.6240400782524248	0.062254
C	0.2096109062705482 0.8462347551733113 0.6210532386379118	-0.173327
C	0.2139790319932239 0.7674589181838777 0.6220691918842783	0.085658
C	0.3506836900472973 0.7783527141826581 0.6246189658607119	-0.123214
C	0.3444641176511071 0.8548378768448635 0.6267777592057596	-0.135745
C	0.4081228057203205 0.2993962738630401 0.6850402398923908	0.108273
C	0.4852310624692289 0.3075327954451725 0.6847735037713658	-0.182960
C	0.5279585728719912 0.2676013588080451 0.6249190189144206	0.110696
C	0.4898192456552367 0.2216242323922805 0.5666841761396251	-0.182908
C	0.4123916866881767 0.2182942348622652 0.5695731617307557	0.105512
C	0.6100425025955510 0.2733200910805416 0.6237565307725773	0.061395
C	0.6537865955662443 0.2096221252226995 0.6209621854664589	-0.173049
C	0.7325665148549240 0.2139775780108592 0.6220755122132471	0.085003
C	0.7216434521590810 0.3507018123862641 0.6246065947282183	-0.123625
C	0.6451570331268469 0.3444618769976260 0.6266801533375149	-0.135423
C	0.0918678143374446 0.2006085535499408 0.6859405404530706	0.099902
C	0.0147301979989785 0.1924847847766054 0.6854483102423579	-0.187382
C	0.9720000135263285 0.2324631940386291 0.6255324444862471	0.107403
C	0.0101566330202332 0.2783475868108661 0.5672858172465307	-0.183509
C	0.0876182689473936 0.2816810849403789 0.5700275293778934	0.102737
C	0.8899175326074392 0.2266620914378851 0.6240301815849832	0.062853
C	0.8461914702708079 0.2903656027734233 0.6210410879483219	-0.173459
C	0.7674180832388590 0.2860485954318717 0.6220640367836797	0.085550
C	0.7783437698095780 0.1493329891958102 0.6246030313981779	-0.123163
C	0.8548272203002673 0.1555027170253972 0.6267720515732295	-0.136788
H	0.1730292344945584 0.1266030852111914 0.2329697414824298	0.095434
H	0.1570273170203229 0.9880090328838952 0.2325703268848596	0.111516
H	0.3098926695877819 0.9796475629074772 0.0181956420221416	0.111466
H	0.3149906580171985 0.1194147520325522 0.0237084568441321	0.093475
H	0.3452457883543723 0.8726666134540640 0.1203698433314171	0.106053
H	0.0944080470458550 0.7519817588673250 0.1253181726874763	0.108976
H	0.1056968178029950 0.8897898654127813 0.1287050833257015	0.097807
H	0.3273751554710774 0.3733616865962351 0.2338216264246065	0.098331
H	0.3434585640739762 0.5120620417891045 0.2327430773763011	0.112701
H	0.1903340783119177 0.5201352075902278 0.0184562740624723	0.113083
H	0.1864164472919426 0.3809261400917012 0.0224934303134282	0.100697
H	0.1547759482732069 0.6273231014790362 0.1203798285256881	0.106648
H	0.4055212521750285 0.7480907801151634 0.1252958949358997	0.105711
H	0.3943574925233193 0.6102317160399374 0.1288013024393654	0.099063
H	0.3730779012853943 0.1720245302546653 0.2325405024973491	0.094031
H	0.5120982663513657 0.1566189527389504 0.2326793629387477	0.111690
H	0.5201829659506991 0.3095935702248929 0.0183705287674585	0.112730
H	0.3808162762170786 0.3140977587683904 0.0232677766193110	0.095507
H	0.6272732716192430 0.3452585758724881 0.1204210193344754	0.107175
H	0.7480273474556427 0.0944213817873518 0.1252722686002852	0.106867
H	0.6102773087858286 0.1056651619515214 0.1287313835519081	0.099304
H	0.1262975703151116 0.3263693937708154 0.2337229282355759	0.100989
H	0.9880956890779899 0.3429511129201460 0.2324333959385000	0.112045
H	0.9796447218555860 0.1899197984597534 0.0181094428273034	0.112134
H	0.1193586050953142 0.1852682752741549 0.0226822514833899	0.097830
H	0.8726684715377503 0.1547071391294220 0.1203143771321120	0.105362
H	0.7518551765227762 0.4055270974452936 0.1253420914483602	0.107205
H	0.8897691681130111 0.3942300127675413 0.1287569009580597	0.097553
H	0.8279757472661642 0.6269196755450908 0.2674548076382556	0.094048
H	0.8433829923878234 0.4878989860702318 0.2673216042643544	0.111706
H	0.6904066013086166 0.4798201404021140 0.4816295199700359	0.112708
H	0.6859014745915415 0.6191865209507587 0.4767252666728474	0.095496
H	0.6547406534827345 0.3727261690913381 0.3795794453971600	0.107177
H	0.9055786050832713 0.2519729127106572 0.3747278268282151	0.106902
H	0.8943342944578224 0.3897229841531181 0.3712689231447486	0.099319
H	0.6736296308210321 0.8737002923914154 0.2662825753091664	0.100929
H	0.6570511967155475 0.0119026980312407 0.2675659638955529	0.112116
H	0.8100823507533507 0.0203567184356233 0.4818904218719602	0.112122
H	0.8147316537173180 0.8806424737165822 0.4773233835895391	0.097830
H	0.8452929940479479 0.1273314291114439 0.3796859696778292	0.105364
H	0.5944728411304238 0.2481442554207642 0.3746583940517343	0.107200
H	0.6057702184122052 0.1102301979557707 0.3712433238996612	0.097553
H	0.6266386552639666 0.6726240823948663 0.2661805862607710	0.098353
H	0.4879400766973908 0.6565420063986155 0.2672562727182690	0.112677
H	0.4798664881612184 0.8096669901393202 0.4815436858278184	0.113088
H	0.6190742957395992 0.8135831579572894 0.4775085615851642	0.100661
H	0.3726764668093446 0.8452248343331618 0.3796202823250079	0.106683
H	0.2519097036904279 0.5944785080048736 0.3747042975155423	0.105686
H	0.3897686608301907 0.6056423491474315 0.3711989764674402	0.099053
H	0.8733968132454744 0.8269705751026163 0.2670288572560524	0.095402
H	0.0119919379207402 0.8429737056955204 0.2674301526331148	0.111559
H	0.0203527117596044 0.6901077801358313 0.4818048724014006	0.111455
H	0.8805848281459949 0.6850089960110300 0.4762896083398246	0.093426
H	0.1273333858363017 0.6547538366610862 0.3796305062182376	0.106045
H	0.2480182827384833 0.9055923407303160 0.3746821263637593	0.108999
H	0.1102101621271013 0.8943030821014842 0.3712950783234373	0.097814
H	0.8273768132893774 0.8733606114020015 0.7661837493509736	0.098224
H	0.8434572473421847 0.0120616971721572 0.7672555836277765	0.112667
H	0.6903319602170631 0.0201365125554208 0.9815439701683358	0.113054
H	0.6864159348231239 0.8809259308607488 0.9775119528960341	0.100725
H	0.6547754995212164 0.1273229639255759 0.8796204575250387	0.106679
H	0.9055215268234594 0.2480902072446092 0.8747047435445446	0.105716
H	0.8943576582114828 0.1102310537027075 0.8711986800085471	0.099067
H	0.6730293586037014 0.6266020450277836 0.7670254376599366	0.095410
H	0.6570260349715387 0.4880095738214846 0.7674312207400168	0.111542
H	0.8098915094389887 0.4796504542372107 0.9818047630833131	0.111369
H	0.8149910467933061 0.6194155243061408 0.9762859549819949	0.093463
H	0.8452463883852032 0.3726661603606108 0.8796303785297604	0.106007
H	0.5944078683890046 0.2519816717921920 0.8746815339813494	0.108971
H	0.6056969334666974 0.3897897292648549 0.8712952325603271	0.097817
H	0.6262959165866938 0.8263700618717746 0.7662714094016330	0.100931
H	0.4880937282358792 0.8429529542936476 0.7675671015466503	0.112020
H	0.4796454189196669 0.6899203636363805 0.9818922297715393	0.112128
H	0.6193599883510849 0.6852669975714447 0.9773148954624804	0.097818
H	0.3726686223911085 0.6547066979773308 0.8796857599531456	0.105359
H	0.2518558979297938 0.9055271018423556 0.8746581186936498	0.107191
H	0.3897696690227687 0.8942295452036761 0.8712431772362739	0.097541
H	0.8730776045577306 0.6720237570862939 0.7674648443316598	0.094049
H	0.0120978183836101 0.6566204546865958 0.7673201938514348	0.111722
H	0.0201830322331191 0.8095946525733339 0.9816287554237927	0.112736
H	0.8808170509531358 0.8140976038979552 0.9767340159581775	0.095521
H	0.1272742042834420 0.8452592407066617 0.8795791892749386	0.107160
H	0.2480271659800102 0.5944212386844517 0.8747278661802972	0.106891
H	0.1102772005173192 0.6056651918261656 0.8712689333155005	0.099321
H	0.1736303331503437 0.3737040189099659 0.7337269089486510	0.100956
H	0.1570469808118275 0.5119073219544965 0.7324325625202256	0.112013
H	0.3100791973464507 0.5203557978426975 0.5181079394610222	0.112102
H	0.3147329754420869 0.3806403170405707 0.5226862737352380	0.097828
H	0.3452928103237837 0.6273312085042829 0.6203137572725547	0.105376
H	0.0944730294525051 0.7481445393978341 0.6253417809740078	0.107213
H	0.1057703613641075 0.6102304266628584 0.6287568230738630	0.097555
H	0.3279758393463996 0.1269222380205743 0.7325357003485167	0.094029
H	0.3433791437757158 0.9879028662582817 0.7326794603546649	0.111675
H	0.1904053376135018 0.9798168514128601 0.5183711041452549	0.112722
H	0.1859025440765449 0.1191825850981518 0.5232651328858768	0.095511
H	0.1547413947596637 0.8727262035880810 0.6204209542437906	0.107174
H	0.4055784749624737 0.7519722938669006 0.6252720584708017	0.106880
H	0.3943347515186955 0.8897224100858578 0.6287310323279215	0.099329
H	0.3734000615311155 0.3269702925749837 0.7329768889666455	0.095413
H	0.5119918543667000 0.3429744667779280 0.7325688367795005	0.111579
H	0.5203489417952223 0.1901096460787420 0.5181954751180522	0.111351
H	0.3805842196370684 0.1850089740857904 0.5237152685054641	0.093456
H	0.6273334936227067 0.1547539212037868 0.6203696972208482	0.106005
H	0.7480182999270671 0.4055919925361504 0.6253181583622440	0.108980
H	0.6102104481473345 0.3943029853901809 0.6287046810670919	0.097822
H	0.1266408819976384 0.1726241862313825 0.7338138302696260	0.098244
H	0.9879394258361908 0.1565436118720026 0.7327441674181898	0.112692
H	0.9798617979267400 0.3096685046750741 0.5184563852622887	0.113029
H	0.1190720826449884 0.3135835948990778 0.5224862503044997	0.100693
H	0.8726769007614967 0.3452239822035815 0.6203794391600645	0.106664
H	0.7519092623131655 0.0944785685680017 0.6252952842316775	0.105687
H	0.8897685154661472 0.1056418299764148 0.6288013364103440	0.099045
F	0.2565115022607136 0.1488583056520932 0.3778726705034809	-0.602995
F	0.1595364741993096 0.2978795002614440 0.3785295004490216	-0.597262
F	0.3351562536171279 0.3079065560714005 0.3784687757792689	-0.600080
F	0.6920861016895646 0.6648479714372684 0.1215229061537764	-0.600130
F	0.7021269689526760 0.8404556212354380 0.1214711562931705	-0.597326
F	0.8511428451107288 0.7434863584168498 0.1221222530305829	-0.602990
F	0.6595335577057394 0.7978616107618539 0.6214725660886219	-0.597263
F	0.7564961713493823 0.6488602802464960 0.6221105984621206	-0.602948
F	0.8351562889631771 0.8079114507780245 0.6215460578937967	-0.600126
F	0.1920939671407554 0.1648400869489483 0.8784537871675028	-0.600156
F	0.3511479542355666 0.2434857702832704 0.8778840350557483	-0.603012
F	0.2021396389765059 0.3404609528904879 0.8785375080908457	-0.597316
F	0.2496912042888601 0.2500844892050001 0.2546511256700749	-0.524944
F	0.2496609875872123 0.2495594277605158 0.5019563709957973	-0.525646
F	0.7499370900039528 0.7502858437394143 0.2453483198464363	-0.524963
F	0.7504342833459456 0.7503261100960280 -0.0019600878137700	-0.525777
F	0.7496854862054183 0.7500521205627996 0.7453509500740790	-0.524963
F	0.7496897482749859 0.7495954615314782 0.4980489642380292	-0.525773
F	0.2499559872650080 0.2503165177109933 0.7546495994439940	-0.525022
F	0.2504113039927482 0.2503090285294898 0.0019529277796914	-0.525740
Fe	0.2499087614505706 0.2501849020560354 0.1283371722558204	0.777516
Fe	0.7498141013990895 0.7500911659652797 0.3716644244165191	0.777598
Fe	0.7499090974031555 0.7501801587263363 0.8716603038698437	0.777490
Fe	0.2498275853294779 0.2500832099357139 0.6283364252160202	0.777485
Ga	0.2504150364261356 0.2508647608500988 0.3782488796448493	1.479515
Ga	0.7491366071109855 0.7495777599007798 0.1217510047563952	1.479751
Ga	0.7504191539293845 0.7508667330218867 0.6217508577599589	1.479592
Ga	0.2491410316114458 0.2495777567177628 0.8782476719784976	1.479739
	  	
