#======================================================================

# CRYSTAL DATA

#----------------------------------------------------------------------

data_VESTA_phase_1


_pd_phase_name                         GaFFIVE_13_Fe_i
_cell_length_a                         15.42149
_cell_length_b                         15.29819
_cell_length_c                         7.93819
_cell_angle_alpha                      90.09901
_cell_angle_beta                       89.82953
_cell_angle_gamma                      89.90384
_symmetry_space_group_name_H-M         P 1
_symmetry_Int_Tables_number            1

loop_
_symmetry_equiv_pos_as_xyz
   x, y, z

loop_
   _atom_site_label
   _atom_site_fract_x
   _atom_site_fract_y
   _atom_site_fract_z
   _atom_site_charge
C	0.5400284669419183 0.6822117365949829 0.8722108033162835	0.111742
C	0.5431668006198100 0.7732114953994116 0.8702170017020905	-0.150842
C	0.4636253201619728 0.3208188548682812 0.8786928902276144	0.105116
C	0.4605177766688202 0.2297979334406959 0.8788984486052026	-0.143371
C	0.8153965726573786 0.9734106555916566 0.3658446976674888	0.106878
C	0.7254374132129033 0.9705980908046448 0.3619380743321717	-0.140667
C	0.3168648137032375 0.5413002394696798 0.8688868568495929	0.105545
C	0.2266447163007616 0.5451990826634289 0.8663513890561826	-0.152071
C	0.1877100505183376 0.9710950157065713 0.3580966013973538	0.093410
C	0.2777332165814232 0.9699157814979872 0.3548851539116347	-0.137458
C	0.6852112906582344 0.4633377325760236 0.8831902301733692	0.106473
C	0.7753131002891300 0.4601977331373039 0.8822395001784696	-0.140745
C	0.4556080123927430 0.6825413148899004 0.1144930019324019	0.106851
C	0.4522017268369004 0.7734657996070458 0.1162659330625005	-0.138213
C	0.5394462819052445 0.3226886715161112 0.1309236794846645	0.105094
C	0.5420913161096446 0.2316376441608412 0.1359917588964523	-0.150672
C	0.1854493363457615 0.0196849542706475 0.6354531185394694	0.108386
C	0.2752840955304507 0.0221462888383640 0.6423186223820757	-0.139129
C	0.6834279549422680 0.5433788958650256 0.1319611856316553	0.112316
C	0.7736458552624071 0.5467260505585001 0.1359168694384739	-0.148099
C	0.8147609040852916 0.0295807048307832 0.6378420281348883	0.103480
C	0.7248020237901781 0.0301951896456575 0.6442225034644081	-0.140737
C	0.3157952176430996 0.4588212235896740 0.1143957885347841	0.106798
C	0.2255964127786957 0.4563366810396387 0.1165472967465309	-0.142445
C	0.9653589629762344 0.8141950795340009 0.6338738855473502	0.104688
C	0.9645882452445306 0.7235478081908047 0.6403024271553583	-0.138559
C	0.9838639494678038 0.1832132759143313 0.6383885748383155	0.092820
C	0.9799842854723950 0.2736279131033861 0.6420023464560864	-0.138379
C	0.0208304302213399 0.8129167297253659 0.3609485791433799	0.105055
C	0.0237362321076482 0.7225092756122484 0.3573705197520241	-0.141577
C	0.0313412208409099 0.1827469414443292 0.3598574396602813	0.109652
C	0.0311119501061471 0.2733160189258668 0.3533484179582674	-0.139364
C	0.0039371025758883 0.3191819696186635 0.4967727492293758	0.038836
C	0.0011328180413278 0.4143367019428493 0.4969056983413478	0.257174
C	0.4978973650582397 0.8204919140312739 0.9935662586029476	0.055925
C	0.4989206309704157 0.9174079803739120 0.9983941831395865	0.248567
C	0.9950881494337306 0.6772430310869103 0.4999187368878710	0.037664
C	0.9972316123698740 0.5819191808970051 0.5000048443495303	0.247329
C	0.5010599305542711 0.1835620906474914 0.0089386547068914	0.056128
C	0.5004790709579403 0.0864986425888220 0.0094352463052714	0.251307
C	0.6792559691306705 -0.0003104266150022 0.5035937652676787	0.038904
C	0.5842920412982614 0.9978146461434328 0.5044998524847872	0.245169
C	0.1798277440146265 0.5012579546448406 0.9914835003920692	0.056610
C	0.0838996131546305 0.5022734582900801 0.9943929348298273	0.249931
C	0.3223495225236288 0.9960975640699266 0.4996619701575873	0.037835
C	0.4171914914830095 0.9962572237296103 0.5023268273722681	0.258217
C	0.8207727693690462 0.5035568261057205 0.0098228887989138	0.052820
C	0.9166961677714789 0.5034528119592253 0.0071227049572549	0.250375
H	0.5708950837924831 0.6435436261689281 0.7737191700587228	0.097840
H	0.5795266582459712 0.8065496137144137 0.7715628473214762	0.122719
H	0.4363511257990427 0.3583756931971182 0.7746035910514684	0.104562
H	0.4291831398168933 0.1947792534022645 0.7762167344535644	0.118327
H	0.8539086574378385 0.9519253315627267 0.2578206679276759	0.099865
H	0.6917234931342552 0.9468214555493129 0.2507347171660549	0.119227
H	0.3560185607324618 0.5719411967112310 0.7706892346052223	0.097597
H	0.1935351013757552 0.5811416142341567 0.7670130320851670	0.123401
H	0.1509199418486597 0.9545812342245400 0.2453979490885715	0.100275
H	0.3121495314051770 0.9506287483526508 0.2407932454074853	0.114089
H	0.6474432097698378 0.4352838420599598 0.7807019271611801	0.103487
H	0.8101441055093435 0.4273220247719755 0.7806505080692324	0.117241
H	0.4257747450435689 0.6444036139604137 0.2147561952549416	0.103718
H	0.4176713536313659 0.8076974309718976 0.2164717313765279	0.116469
H	0.5680353092861503 0.3620144408117675 0.2310391948552986	0.098259
H	0.5746724302775710 0.1988172425596150 0.2398605685647699	0.122725
H	0.1463244769134489 0.0364926000132734 0.7450848361057376	0.098294
H	0.3080646021207993 0.0423312512808977 0.7570703945996787	0.116889
H	0.6442707990865042 0.5721819716796990 0.2320209772305976	0.098383
H	0.8062901401878901 0.5811656444806993 0.2378917199503165	0.122007
H	0.8529641418489797 0.0506846494951301 0.7455959094160070	0.090197
H	0.6908093698525507 0.0525982684067834 0.7566342890404786	0.119061
H	0.3538861794003018 0.4287481089548431 0.2145968042823176	0.102507
H	0.1909192267582062 0.4228479186846516 0.2172363086836271	0.116606
H	0.9437490111757066 0.8533319494692498 0.7411671196851906	0.101436
H	0.9421266885498785 0.6895347126026048 0.7525284807198569	0.118095
H	0.9685956580572741 0.1454215877500543 0.7507790473867383	0.098933
H	0.9599276017384266 0.3080226722380348 0.7557371029255512	0.117279
H	0.0405443987770415 0.8512571462097525 0.2521227966232346	0.090309
H	0.0470305028813841 0.6876685661636089 0.2465551464438271	0.116749
H	0.0488646704815318 0.1438823325522065 0.2500330682601828	0.098235
H	0.0496057186337874 0.3075812863090264 0.2387492106722227	0.116527
N	0.9446995644764583 0.5397069662737045 0.6090524830857328	-0.142889
N	0.4225491190591302 0.0460531556015176 0.0085087953845625	-0.152617
N	0.5424372772688608 0.0505100996479510 0.6147753300185569	-0.143194
N	0.9569794163933379 0.4249026195207385 0.0022589219059621	-0.144762
N	0.0516714324178090 0.5427124768649724 0.3895990940081251	-0.145118
N	0.5775708379552990 0.0443588454279271 0.0109414283127958	-0.153695
N	0.9577888053687853 0.5813806027415316 0.0051304515214623	-0.150411
N	0.5446955924310836 0.9428707700455069 0.3957760090751480	-0.138488
N	0.0540528527559205 0.4566158510856311 0.3888385511162798	-0.138245
N	0.5768172346410108 0.9578565190124672 0.0011435586907407	-0.150551
N	0.4591469355163287 0.9420988218777726 0.3948542233501121	-0.136688
N	0.0435643872057145 0.5807464903560507 0.9944479213240731	-0.151558
N	0.9463049158376922 0.4535395734864363 0.6064603420795549	-0.137308
N	0.4218238229082111 0.9595050919944432 0.0063794478400300	-0.143165
N	0.0428085802929819 0.4243120138034879 0.9992757424004776	-0.150031
N	0.4568618294706718 0.0497457688345513 0.6134693382058269	-0.140368
N	0.0078762644814253 0.1386969450393057 0.4993240088771572	-0.223478
N	0.4981619753455057 0.6369415713499470 0.9936905602514355	-0.248174
N	0.9932958129431764 0.8578646333100681 0.4968408717831955	-0.219807
N	0.5014882695752655 0.3671367124257184 0.0038089362504788	-0.246008
N	0.8593137255641865 0.0021873380293699 0.5015057826389867	-0.219694
N	0.3607366509295625 0.4998607795197552 0.9918216971796529	-0.242740
N	0.1423639182081977 0.9947632814150903 0.4961776823226301	-0.223465
N	0.6398406648102022 0.5033327333522951 0.0069211459564218	-0.249524
Fe	0.0009359506800193 0.9983062939332346 0.4984166466902828	0.762734
Fe	0.5003919949653327 0.5019939200861462 0.9990276564134305	0.835428
Ga	0.9978233922680305 0.9955255275437520 0.9986244278947315	1.445663
Ga	0.4980257833923130 0.5021010102982225 0.4991839102509953	1.466664
F	0.0009419837832148 -0.0025776592501864 0.2462215505705903	-0.528499
F	0.5076969149829066 0.4977715360558572 0.7420063449897626	-0.536435
F	-0.0010163444774413 0.9971638192935319 0.7507846096739699	-0.528500
F	0.4917088871853768 0.5071308894035499 0.2561373297269399	-0.537599
F	0.9139446311887423 0.9121817173802864 0.0006097457212605	-0.564905
F	0.4160600385210587 0.4152959353962219 0.5038594974891368	-0.588600
F	0.9654474498239806 0.1099783431882320 0.9982338124312929	-0.558962
F	0.4623819574462368 0.6163952557518269 0.5123980118894957	-0.590345
F	0.1113379058113001 0.9626816100723145 -0.0027070133432381	-0.560077
F	0.6132679149213407 0.4725126657593658 0.4827702495489976	-0.590664
	  	
