#======================================================================

# CRYSTAL DATA

#----------------------------------------------------------------------

data_VESTA_phase_1


_pd_phase_name                         GaFFIVE_15_Co_i
_cell_length_a                         29.54405
_cell_length_b                         28.57944
_cell_length_c                         8.29527
_cell_angle_alpha                      89.99761
_cell_angle_beta                       89.99402
_cell_angle_gamma                      89.99516
_symmetry_space_group_name_H-M         P 1
_symmetry_Int_Tables_number            1

loop_
_symmetry_equiv_pos_as_xyz
   x, y, z

loop_
   _atom_site_label
   _atom_site_fract_x
   _atom_site_fract_y
   _atom_site_fract_z
   _atom_site_charge
C	0.9371866837005179 0.1062852544700169 0.8903866348369860	0.084080
C	0.9044982442912622 0.0715646547362537 0.8953324976437546	-0.162409
C	0.7718937889907709 0.9378580573574657 0.8971613499661302	-0.118670
C	0.7373986963295729 0.9051128462929122 0.8969798281237172	-0.114899
C	0.5674608097434720 0.7416378566282025 0.8902147469308518	0.089391
C	0.6015668961195882 0.7749086863767656 0.8955400868929426	-0.169601
C	0.4344478482623796 0.6020087492787981 0.8898731062642974	0.098939
C	0.4015772497967844 0.5674615878971407 0.8957034907843241	-0.167380
C	0.2685496100423772 0.4347307364143778 0.8972636507797065	-0.114553
C	0.2339774138932400 0.4020860450370087 0.8970124950271479	-0.114853
C	0.0645793768666956 0.2376238718785822 0.8900854266505039	0.088635
C	0.0984299652488682 0.2710969625944142 0.8950243288476620	-0.166564
C	0.0638834810154938 0.8943902280054010 0.3899779804905362	0.094048
C	0.0964172803594444 0.9293679376209362 0.3950423838826683	-0.163429
C	0.2297287231770750 0.0638755367810020 0.3967380995236063	-0.114565
C	0.2643056164495166 0.0966710132070147 0.3965108417520702	-0.115320
C	0.4352541461737561 0.2613659803975435 0.3898216297638701	0.090244
C	0.4012102597944315 0.2279544647403481 0.3947157896577742	-0.166478
C	0.5635876824514794 0.3943008494827338 0.3901337079569595	0.086476
C	0.5961307773426945 0.4293144418261411 0.3949994717541243	-0.163843
C	0.7297850396095317 0.5636471542353600 0.3966966930746501	-0.116298
C	0.7643297267639899 0.5964983635576502 0.3964689940786009	-0.116005
C	0.9350340317430466 0.7614952762222804 0.3899483634073150	0.083731
C	0.9008732768638147 0.7281572887891551 0.3946589637028485	-0.165671
C	0.0630453884809358 0.1066423921188626 0.6097450658013394	0.092080
C	0.0954209271386271 0.0716554035498925 0.6046089990936396	-0.164210
C	0.2278705012527943 0.9378808359342076 0.6028235580622895	-0.115346
C	0.2624664324142777 0.9052435440813885 0.6030207228123839	-0.115023
C	0.4324032144418850 0.7416241014894911 0.6098553808474840	0.088316
C	0.3983211604857409 0.7749311843584695 0.6045310646948246	-0.168971
C	0.5652110602873874 0.6022507359137719 0.6100674235332867	0.097059
C	0.5980592790924767 0.5677021830059575 0.6043041356629391	-0.166457
C	0.7311577728061827 0.4348808105602979 0.6027884042959593	-0.114928
C	0.7657218490280364 0.4022018388408226 0.6030430056874744	-0.116280
C	0.9356407238631452 0.2381167507320967 0.6097699984041383	0.081899
C	0.9015202085028494 0.2713553789669875 0.6050175017630574	-0.166558
C	0.9363657061930614 0.8947639853248573 0.1098789162705689	0.085460
C	0.9035096366517570 0.9294763647745956 0.1050018820349848	-0.163256
C	0.7700454902542319 0.0639344992170589 0.1032594705075688	-0.116094
C	0.7355371641535177 0.0968077793335340 0.1034482071323291	-0.116588
C	0.5645710333884110 0.2614162416442939 0.1101594156415475	0.090972
C	0.5986554927276353 0.2280518953936010 0.1052505154728772	-0.168334
C	0.4360217613011977 0.3945410300668384 0.1098894393236589	0.085807
C	0.4034940976477122 0.4295911046381031 0.1049936496571294	-0.162690
C	0.2699067559097452 0.5638280877420533 0.1032499930834290	-0.117222
C	0.2353545294646116 0.5966566546033151 0.1034661403322946	-0.116120
C	0.0651055019961197 0.7620631280145478 0.1101659022373513	0.090639
C	0.0989629975197127 0.7284533610940889 0.1052744177630662	-0.166898
C	0.0638823418602784 0.8943967812020774 0.1100031724948130	0.094057
C	0.0964170594392926 0.9293729276130833 0.1049110380175659	-0.163328
C	0.2297364169830478 0.0638803150462817 0.1032756177700193	-0.114768
C	0.2643123619367722 0.0966739090735910 0.1034840823211593	-0.115095
C	0.4352621882702817 0.2613632475622101 0.1101776438929945	0.090076
C	0.4012189933955080 0.2279532405720168 0.1053140907491159	-0.166522
C	0.5635954654129418 0.3943039870280650 0.1098760519283508	0.086396
C	0.5961378491490057 0.4293176676579357 0.1050009376441263	-0.163856
C	0.7297903274582656 0.5636493507857028 0.1033091526213394	-0.116129
C	0.7643345830739747 0.5964996435591468 0.1035064819257393	-0.115696
C	0.9350358860534687 0.7614988012095116 0.1100525613253341	0.083702
C	0.9008765509662460 0.7281612202789018 0.1053783699131656	-0.165651
C	0.9371888006277550 0.1062978658343298 0.6096004150518247	0.084508
C	0.9044997453217973 0.0715771129020250 0.6046661386501474	-0.162684
C	0.7719022864088001 0.9378644842221953 0.6027766803507191	-0.118634
C	0.7374091567306116 0.9051202707706703 0.6029549202406140	-0.114852
C	0.5674462199881707 0.7416441006347766 0.6100840293388851	0.089385
C	0.6015575353707272 0.7749088903587913 0.6047008326015711	-0.169000
C	0.4344227988830341 0.6020014794714152 0.6097803493447045	0.099125
C	0.4015496258238872 0.5674526298606914 0.6041176920417481	-0.167375
C	0.2685585990779148 0.4347375363074162 0.6027456468043140	-0.114513
C	0.2339867822239132 0.4020941803932672 0.6029838609127088	-0.114647
C	0.0645752271096395 0.2376374893869472 0.6099234224691740	0.088619
C	0.0984247663096706 0.2711113297718704 0.6049698670757013	-0.166696
C	0.9363588781593249 0.8947624181308554 0.3901343386004922	0.085693
C	0.9035007929467260 0.9294750860738996 0.3950094387080014	-0.163448
C	0.7700431466949046 0.0639395859336448 0.3967388718187405	-0.116314
C	0.7355358268836932 0.0968136615225892 0.3965445868512108	-0.116457
C	0.5645660473162929 0.2614160987521135 0.3897775350046327	0.091122
C	0.5986490907055579 0.2280497719046480 0.3946776063468592	-0.168626
C	0.4360176473006163 0.3945434840995362 0.3901386111172762	0.085658
C	0.4034876244549490 0.4295938069244251 0.3950322537674940	-0.162609
C	0.2699041642313108 0.5638322081055329 0.3967430892768106	-0.117430
C	0.2353521828963568 0.5966607208186268 0.3965192032372636	-0.115926
C	0.0650942916038147 0.7620614228468430 0.3898062527443131	0.090614
C	0.0989503398771688 0.7284507674262660 0.3947092211133254	-0.166994
C	0.0630424002169712 0.1066510366391368 0.8902935449053280	0.092113
C	0.0954168028281600 0.0716624008038320 0.8954395253980117	-0.164073
C	0.2278691647970583 0.9378853328835121 0.8971841653298454	-0.115525
C	0.2624660032496657 0.9052489052631824 0.8969917480152483	-0.114920
C	0.4324426838160690 0.7416694599333530 0.8899859569142170	0.088560
C	0.3983627343289823 0.7749744889113277 0.8953279436016826	-0.168627
C	0.5652416835017838 0.6022695358018653 0.8901788339890061	0.097225
C	0.5980938699171879 0.5677107469139808 0.8958958745411111	-0.166341
C	0.7311524507091505 0.4348837598128749 0.8972044427363665	-0.114799
C	0.7657174557371001 0.4022055811442248 0.8969461956747105	-0.116446
C	0.9356376524471456 0.2381258216830396 0.8902373028496413	0.081846
C	0.9015170311865153 0.2713635925789463 0.8949722382732862	-0.166525
C	0.6541821965701240 0.8260337591384080 0.7500560325692902	-0.103212
C	0.8871952398403566 0.0535471250976881 0.7499968529751561	0.159953
C	0.8241011823896612 0.9886444414920359 0.7499771802337856	-0.100029
C	0.6193572001746439 0.7923775210212942 0.7501137791424106	0.167137
C	0.7894995001197895 0.9547408860063433 0.7499675799490563	0.127995
C	0.7196034493447014 0.8882826758860997 0.7499672224571974	0.138299
C	0.6845392890524707 0.8549219325740133 0.7499957670316981	-0.103503
C	0.8535473643390530 0.0185791092626791 0.7499928105867359	-0.104883
C	0.1508703685549493 0.3227966657678341 0.7499837534189991	-0.104445
C	0.3842818753149369 0.5496768635870924 0.7499279918429028	0.161330
C	0.3209429234826481 0.4851778056041443 0.7499941662208230	-0.097072
C	0.1162161620767980 0.2888853067779017 0.7499887463615486	0.167835
C	0.2862215120892011 0.4515067807726114 0.7500073399808490	0.128584
C	0.2161635901084070 0.3852645962348055 0.7499948489875680	0.134986
C	0.1811036594643645 0.3518643488213778 0.7499868842645478	-0.099646
C	0.3505090940380652 0.5149343567354094 0.7499940249716928	-0.106565
C	0.3479867628481422 0.1764137841176498 0.2500218566863205	-0.104492
C	0.1135945705887704 0.9478787407959680 0.2499706420784664	0.160952
C	0.1769826020347099 0.0128454939701518 0.2500004613901212	-0.096074
C	0.3829260822947410 0.2103250336873220 0.2500145936078940	0.168072
C	0.2118483968154706 0.0467787120197269 0.2500102493057446	0.126765
C	0.2823996035041084 0.1137604440385386 0.2500017581675822	0.138013
C	0.3176784834428908 0.1472874570363560 0.2500045082493396	-0.098184
C	0.1472881861367024 0.9830540201905513 0.2499692181102020	-0.106784
C	0.8476772494914584 0.6765848959791708 0.2500219935414311	-0.103364
C	0.6133462802497849 0.4478107285548657 0.2500017824774196	0.161469
C	0.6769489343506234 0.5126254648165472 0.2500183625931703	-0.099832
C	0.8825778833663512 0.7105492226369857 0.2500200538368173	0.166334
C	0.7118612315709723 0.5465414337402434 0.2500102499901882	0.125340
C	0.7823533008376350 0.6136630275206110 0.2499812249014282	0.137927
C	0.8174984978664300 0.6473278660744862 0.2499864004170414	-0.099709
C	0.6471442364586283 0.4829373862450017 0.2500105421174072	-0.105571
C	0.3457397212435750 0.8261613627060016 0.7499533423360560	-0.100901
C	0.1123828294969183 0.0532984622993372 0.7500251258072176	0.161620
C	0.1755122227351137 0.9884537912367176 0.7500099784552963	-0.096273
C	0.3805450186204334 0.7924518257069320 0.7499356204588895	0.166465
C	0.2102162963229120 0.9546917411033796 0.7500030727859186	0.125293
C	0.2802976301408801 0.8884203211995668 0.7500051669213956	0.139313
C	0.3154005941023261 0.8550848002753033 0.7499836491410823	-0.104788
C	0.1458899244437644 0.0182008905634173 0.7500244877524853	-0.110877
C	0.8486506825478214 0.3226234605982182 0.7499886285296423	-0.104307
C	0.6153447983266003 0.5498856337585402 0.7500725105488617	0.161536
C	0.6787148998839414 0.4853635302134922 0.7500032897189081	-0.096838
C	0.8834201056967511 0.2887965903955348 0.7499876121415282	0.165474
C	0.7134575819505056 0.4516687427962076 0.7499924777419623	0.128309
C	0.7835464154195286 0.3853407897072622 0.7499941091827084	0.139150
C	0.8185723441881219 0.3518809417647275 0.7499966834246131	-0.100948
C	0.6491355375049045 0.5151228984599354 0.7500298433767557	-0.107802
C	0.6518918268181214 0.1765497553351948 0.2499701108159887	-0.106965
C	0.8860001288163318 0.9476549044873948 0.2500025069566319	0.160064
C	0.8226470816248113 0.0127248707485291 0.2500058748270903	-0.101478
C	0.6169419910818119 0.2104240323413412 0.2499709120457945	0.169483
C	0.7878932944402084 0.0467901932055219 0.2500040199840634	0.129796
C	0.7174662705593964 0.1138966926114235 0.2499929228738912	0.135501
C	0.6822086555089288 0.1474308026498534 0.2499831875017310	-0.095923
C	0.8521713232830749 0.9827433428215121 0.2500022027189853	-0.100031
C	0.1517533635013747 0.6764315265427183 0.2500028010786806	-0.103713
C	0.3862889588633569 0.4480629011601900 0.2500075163991418	0.160153
C	0.3226623745500137 0.5128172001068466 0.2499973128132129	-0.101931
C	0.1169337768518688 0.7104836418250204 0.2499985784858106	0.168203
C	0.2877785988358896 0.5467242875757995 0.2499972343143710	0.129245
C	0.2173261132933591 0.6137894969217464 0.2499909561061471	0.137918
C	0.1821010664544510 0.6473587291776360 0.2499954336286766	-0.098615
C	0.3524779316223422 0.4831609973336536 0.2500038685009396	-0.104758
H	0.9515632377520172 0.1203562932822536 0.0008254852440805	0.104623
H	0.8927462534275791 0.0584310201142052 0.0111541233356199	0.122773
H	0.7857889871221686 0.9508373051778962 0.0102599747297323	0.105375
H	0.7236017760945315 0.8919327592474673 0.0098637239182101	0.115218
H	0.5535068864730546 0.7269827160180609 0.0007540312704211	0.103334
H	0.6144619913392549 0.7870105375228243 0.0110551864895628	0.126649
H	0.4491562829022843 0.6164287218786705 -0.0005849638390185	0.099942
H	0.3895476022124094 0.5542589096708853 0.0111109039998543	0.121538
H	0.2825161068599064 0.4477499997119001 0.0102698514070048	0.107241
H	0.2202030592891454 0.3890036225264926 0.0100223274655171	0.115138
H	0.0505812811202013 0.2226886225536283 -0.0003081307390986	0.099573
H	0.1111743065873713 0.2830679470894556 0.0108489128615172	0.127027
H	0.0504005786351081 0.8789796526862728 0.4998317716991041	0.100823
H	0.1085213242987388 0.9420288381949968 0.5110764119536895	0.122323
H	0.2159903042289708 0.0509955782202902 0.5102555013415009	0.106242
H	0.2779149655103206 0.1096069875976446 0.5099865422412846	0.114858
H	0.4502450190527792 0.2751451415993350 0.4996936790222506	0.100128
H	0.3890383138713287 0.2155989264001267 0.5108880991919310	0.126440
H	0.5504775240284981 0.3790291737310505 0.5008471665280316	0.104965
H	0.6082297642683568 0.4418678904337401 0.5111485463360057	0.122664
H	0.7161153998400364 0.5506788146079522 0.5102230245204434	0.105858
H	0.7779819268731597 0.6094219914835254 0.5099010765233486	0.115113
H	0.9498301984279606 0.7748423580467485 0.5008815076659670	0.104095
H	0.8887055304456247 0.7157949217240378 0.5108637530626160	0.126013
H	0.0495392672876255 0.1221146444659172 0.5002140380297784	0.101674
H	0.1076006397507268 0.0588599602016027 0.4889006228523283	0.122794
H	0.2139487611930501 0.9507996404289760 0.4896791334293188	0.105184
H	0.2763619577276059 0.8921850139967031 0.4900948522255255	0.115316
H	0.4463781402658396 0.7269710096240353 0.4993750197404547	0.103611
H	0.3854469220277307 0.7870252618680694 0.4889838865086055	0.126628
H	0.5505227778869373 0.6166965976292416 0.5005576107321661	0.100861
H	0.6100782002513394 0.5545279881295561 0.4888377784994707	0.122009
H	0.7172838343341679 0.4479996199458387 0.4897781356198840	0.106747
H	0.7794980686645323 0.3891350023756012 0.4900212504839146	0.115068
H	0.9504665122427733 0.2246785829664991 0.4991579389567486	0.103858
H	0.8892001629017817 0.2837678461643191 0.4891573837349747	0.127145
H	0.9507058776482925 0.8807741643254047 0.9991230863973573	0.104977
H	0.8918210579005307 0.9424782760766459 0.9888718094343676	0.122838
H	0.7837540422112929 0.0509691668301945 0.9898024920620336	0.106418
H	0.7220053461481367 0.1098402166435575 0.9899829293127272	0.115134
H	0.5496090459828598 0.2752172976193996 0.0002522716127530	0.099934
H	0.6108935040696511 0.2157129718917558 0.9891129338577639	0.127075
H	0.4491383719077165 0.3793165504110410 0.9991305059614769	0.104881
H	0.3914000324314946 0.4422102705437529 0.9889003018719581	0.122212
H	0.2836613976771091 0.5509234366025390 0.9897632466326948	0.106147
H	0.2216864045972795 0.6095431039395948 0.9899881040842292	0.115659
H	0.0511685356474246 0.7769424127379561 0.0002555809294812	0.099610
H	0.1115640386165420 0.7165344552157751 0.9891084639280372	0.126612
H	0.0503968091801106 0.8789884322422248 0.0001608020531644	0.100764
H	0.1085209980547190 0.9420359785412583 0.9888679552035217	0.122268
H	0.2160015831104403 0.0510001379986010 0.9897690604689117	0.106354
H	0.2779270105180135 0.1096117505460147 0.9900063585278499	0.114753
H	0.4502588154229984 0.2751342108227822 0.0002874935215611	0.100276
H	0.3890517430125252 0.2155907089136812 0.9891539327486112	0.126567
H	0.5504875844610635 0.3790326024334658 0.9991691025968812	0.105005
H	0.6082438608333176 0.4418749330000974 0.9888460221726613	0.122633
H	0.7161215180669447 0.5506767698530060 0.9897916815881241	0.105714
H	0.7779878246230193 0.6094210454992521 0.9900639616297616	0.114948
H	0.9498298325739976 0.7748444900585669 0.9991048266910926	0.104124
H	0.8887106422984852 0.7157992665013230 0.9891780473481055	0.125969
H	0.9515645190211466 0.1203727337909590 0.4991637923442965	0.104439
H	0.8927440703025269 0.0584550882054669 0.4888310248216178	0.122761
H	0.7858038154653546 0.9508498902495776 0.4896819135552105	0.105264
H	0.7236186513472712 0.8919449248716196 0.4900575052440985	0.115153
H	0.5534590698824725 0.7269910128576337 0.4996233583529597	0.103362
H	0.6144696488863095 0.7869995207487035 0.4891750413579714	0.126415
H	0.4490971544233249 0.6163975730320983 0.5001247845775773	0.100326
H	0.3895119221599769 0.5542385660352337 0.4887439348331758	0.121215
H	0.2825346627729856 0.4477649657831540 0.4897521537534832	0.107207
H	0.2202170698667271 0.3890203972524852 0.4899665676331381	0.114987
H	0.0505717924557932 0.2227120806493775 0.5003312250698352	0.099619
H	0.1111657758218658 0.2830940238058205 0.4891334609478462	0.127113
H	0.9506950625108246 0.8807730988219222 0.5008904066333247	0.104930
H	0.8918067598088021 0.9424771689915863 0.5111337179234402	0.122904
H	0.7837470718023427 0.0509792475091892 0.5101930446840536	0.106465
H	0.7220011280182566 0.1098528315789047 0.5100066348883049	0.115100
H	0.5496087456141752 0.2752197252295232 0.4996915988891489	0.100060
H	0.6108819104267510 0.2157114013919635 0.5108114752847718	0.127194
H	0.4491342165371742 0.3793197261023548 0.5008913986064769	0.104895
H	0.3913879080865087 0.4422148477874199 0.5111217612668709	0.122104
H	0.2836555368916472 0.5509319532132719 0.5102339026073296	0.106174
H	0.2216808999432224 0.6095524171224793 0.5099998575689979	0.115556
H	0.0511483666803721 0.7769401783334376 0.4997177297881905	0.099642
H	0.1115395708107414 0.7165267548934598 0.5108793651771026	0.126717
H	0.0495400333858662 0.1221342668448406 -0.0001791459160972	0.101471
H	0.1075933733212969 0.0588713511696979 0.0111469510295476	0.122728
H	0.2139436271597964 0.9508086254156364 0.0103238973724771	0.105331
H	0.2763574256848939 0.8921936157686942 0.0099201841112034	0.115223
H	0.4464573616731131 0.7270446493869800 0.0004498669775411	0.103680
H	0.3855117189766791 0.7870989421846483 0.0108890532023207	0.126403
H	0.5505946304670848 0.6167228738398375 -0.0002375973282897	0.100597
H	0.6101187937553664 0.5545357573735137 0.0113023181789798	0.122025
H	0.7172754146038192 0.4480065093973182 0.0102025741319703	0.106725
H	0.7794900953574589 0.3891436261523374 0.0099779661131541	0.115037
H	0.9504582948039284 0.2246898836572140 0.0008506350880760	0.103898
H	0.8891930393800285 0.2837828029810244 0.0108245131066238	0.127123
Co	0.4998724584607723 0.6729876750674023 0.7500014639157782	0.574746
Co	-0.0000327319073608 0.1728468360052400 0.7500052196246910	0.571002
Co	0.4998129866671010 0.3274843807920285 0.2499969821604894	0.573912
Co	-0.0000455391680393 0.8276346429755753 0.2499980900439433	0.572343
Ga	0.4998641842859685 0.6717064373216741 0.2500258561130873	1.435679
Ga	0.0013419640436179 0.1731231495571576 0.2499658987074877	1.432796
Ga	0.4997182970531644 0.3257079317045842 0.7500093980887008	1.434273
Ga	0.0012831265961155 0.8272310299855171 0.7500075053634135	1.433252
F	0.4998663784358304 0.6080672624431246 0.2501163391538149	-0.572878
F	0.9713781814139629 0.2294847583609346 0.2500676161875795	-0.570861
F	0.9721842196390400 0.1163624222288484 0.2499706555730081	-0.567831
F	0.4993831451093993 0.2615699638950801 0.7501208473609710	-0.582542
F	0.9714753756619454 0.7707911143774295 0.7499638142800265	-0.571484
F	0.9719008960317855 0.8838845201125948 0.7500818778476970	-0.568605
F	0.5538530126778053 0.7023222022800464 0.2501040140073961	-0.565344
F	0.0634380365606959 0.1729906595777747 0.2497362330657239	-0.581520
F	0.4451298505585188 0.3564589327794330 0.7500384115786777	-0.569920
F	0.4459636780676673 0.7026174344664324 0.2499129234751939	-0.565737
F	0.5545214730820579 0.3559837056200238 0.7499659601554209	-0.568989
F	0.0633665911377094 0.8270313088805202 0.7499984300633437	-0.582129
F	0.4998393433909408 0.6727549539739314 0.4915906278729449	-0.556818
F	0.0000971947633362 0.1731431303193783 0.4830182983483620	-0.544994
F	0.4997240279749123 0.3271342996950662 -0.0162766879007106	-0.547846
F	0.0000779924101544 0.8273187241826278 -0.0164108449969539	-0.547934
F	0.4997840269972539 0.6727707882378037 0.0084821707613377	-0.556781
F	0.0000334164654687 0.1731659983826854 0.0169164617208091	-0.545171
F	0.4997150057915150 0.3271204687723530 0.5163080728763919	-0.547855
F	0.0000743394310580 0.8273456634302236 0.5164267485973788	-0.547947
N	0.5505010437145124 0.7252875281832825 0.7501670358920808	-0.188396
N	0.9532227422554732 0.1237106408296457 0.7499947347427067	-0.179095
N	0.0475387577574253 0.2210884425019878 0.7500062989379301	-0.176497
N	0.4504501797098426 0.6192958063303086 0.7498012088987496	-0.183834
N	0.4521265155910845 0.2783863479038733 0.2499945447792932	-0.178455
N	0.0474546234204167 0.8770011417958572 0.2499950154844809	-0.178345
N	0.9519703216764640 0.7784144147938417 0.2499947964754225	-0.182955
N	0.5472360186728052 0.3769185554934930 0.2500035859995509	-0.180046
N	0.4493430163601893 0.7252636918053758 0.7499143796663733	-0.185698
N	0.0468388985808491 0.1239297465308734 0.7500130842780864	-0.176948
N	0.9524627572255424 0.2214043732834738 0.7500076818283874	-0.178917
N	0.5492065994503615 0.6195147686086937 0.7501390194448555	-0.184224
N	0.5476437607461720 0.2783930489125408 0.2499705492120344	-0.179248
N	0.9526071676104670 0.8772455426745005 0.2500065677779648	-0.179872
N	0.0479864138523850 0.7788010141838774 0.2499846816528817	-0.178574
N	0.4523386741884404 0.3771005432791071 0.2500149702799282	-0.178733
	  	
