#======================================================================

# CRYSTAL DATA

#----------------------------------------------------------------------

data_VESTA_phase_1


_pd_phase_name                         GaFFIVE_4_Ni_i
_cell_length_a                         23.52509
_cell_length_b                         20.62696
_cell_length_c                         9.36082
_cell_angle_alpha                      90.00063
_cell_angle_beta                       89.99928
_cell_angle_gamma                      90.00379
_symmetry_space_group_name_H-M         P 1
_symmetry_Int_Tables_number            1

loop_
_symmetry_equiv_pos_as_xyz
   x, y, z

loop_
   _atom_site_label
   _atom_site_fract_x
   _atom_site_fract_y
   _atom_site_fract_z
   _atom_site_charge
C	0.4167284140732516 0.5971034137922557 0.6276349385194081	0.096388
C	0.3732623517022977 0.5516032410394613 0.6254173923990898	-0.172814
C	0.2773373298038950 0.4487904650418936 0.6248766888027648	-0.119935
C	0.2314891781879745 0.4064714087144506 0.6236275326900397	-0.113366
C	0.1308123842126250 0.3197036124021898 0.6222608271260466	-0.169891
C	0.0845221462946469 0.2780333949527715 0.6259670974485203	0.092355
C	0.9167607938639041 0.0970624899245873 0.6276301174819284	0.096837
C	0.8732798649372712 0.0515782903087341 0.6254016004532912	-0.172920
C	0.7773286607599035 0.9487956065619995 0.6248709581012217	-0.119802
C	0.7314786731183343 0.9064792291736039 0.6236233707473297	-0.113592
C	0.6307827934289639 0.8197480021531486 0.6222562896358039	-0.169292
C	0.5844928408307225 0.7780782792120665 0.6259656446151602	0.091671
C	0.5835007024261090 0.4025620665389597 0.1277646336414925	0.097153
C	0.6268803997441224 0.4481597041494869 0.1253691794957290	-0.178027
C	0.7228920328068599 0.5507594294535798 0.1248793589798363	-0.117051
C	0.7686171410906140 0.5932400877907307 0.1236196715963249	-0.112710
C	0.8690001820766328 0.6803713235561852 0.1222584961882554	-0.169783
C	0.9153157522002682 0.7220551499307805 0.1258493703842987	0.090619
C	0.0834423867493489 0.9026273155236673 0.1277669984178969	0.097345
C	0.1268447524462075 0.9481973271067987 0.1253683516058891	-0.178123
C	0.2229035859093152 0.0507522049303276 0.1248762366187010	-0.117234
C	0.2686285001131869 0.0932350151433271 0.1236188436357270	-0.112667
C	0.3690339116042016 0.1803390277794137 0.1222547789669535	-0.169483
C	0.4153605346402155 0.2220080768510734 0.1258405992082689	0.090633
C	0.5837344325440209 0.5975331321818592 0.8723255023609137	0.096643
C	0.6269138749074686 0.5516645273598872 0.8746321618662957	-0.175339
C	0.7227638154007877 0.4487503228714992 0.8751294171531431	-0.118248
C	0.7685777939879306 0.4063933374475218 0.8763631125324672	-0.111439
C	0.8695653012272895 0.3201873320463212 0.8777231131983486	-0.169496
C	0.9160204478210168 0.2787243501113363 0.8741165038919774	0.090728
C	0.0837363098918852 0.0975331001617913 0.8723168214326597	0.096807
C	0.1269225189138566 0.0516751305256336 0.8746362440327405	-0.175202
C	0.2227423576868754 0.9487350105558151 0.8751393638158164	-0.117913
C	0.2685592253534178 0.9063817602245202 0.8763698914429613	-0.112211
C	0.3695701312416645 0.8202115013921876 0.8777255060136185	-0.169760
C	0.4160281507249822 0.7787530324806053 0.8741180615312728	0.090749
C	0.4170343413099331 0.4032374030468263 0.3723009377099729	0.095692
C	0.3734081423190118 0.4485254628136391 0.3745717101670600	-0.174828
C	0.2770481245298332 0.5506203807892825 0.3751350272239922	-0.118709
C	0.2313233905850724 0.5931163917694666 0.3763968736553948	-0.113580
C	0.1313062264958508 0.6808316713918628 0.3777353797653660	-0.170616
C	0.0850078077990425 0.7225270324643795 0.3741084255039362	0.091120
C	0.9170076799189513 0.9032278178064230 0.3723161655522773	0.096648
C	0.8733884940588287 0.9485156844720397 0.3745850433475293	-0.174829
C	0.7770542728173043 0.0506207414934086 0.3751482499802652	-0.118708
C	0.7313326632614254 0.0931179621504939 0.3764096704996550	-0.113780
C	0.6313200957172300 0.1808177460493733 0.3777390216776201	-0.170369
C	0.5850233388509390 0.2225111387589413 0.3741086718670763	0.091213
C	0.5834999789671366 0.4025609019798351 0.3722324373657817	0.097205
C	0.6268797722476573 0.4481586344609505 0.3746326274806257	-0.178102
C	0.7228915454392536 0.5507594381331959 0.3751227628652906	-0.117189
C	0.7686176341797701 0.5932397274917152 0.3763810612972156	-0.112669
C	0.8689992422419721 0.6803714897217203 0.3777407647762154	-0.169742
C	0.9153147164371755 0.7220551556976842 0.3741536509399032	0.090608
C	0.0834434679100357 0.9026265359459352 0.3722321297496421	0.097387
C	0.1268468682258984 0.9481959952863013 0.3746319421131011	-0.178239
C	0.2229043279065501 0.0507509448221082 0.3751214146461559	-0.117301
C	0.2686283959383323 0.0932347158783283 0.3763787774405888	-0.112570
C	0.3690356369762590 0.1803387815817295 0.3777403338531569	-0.169638
C	0.4153615296345068 0.2220091405955264 0.3741537231455339	0.090761
C	0.4167313246910201 0.5971055519071312 0.8723721881066289	0.096568
C	0.3732657809077452 0.5516050231637216 0.8745941958154221	-0.172945
C	0.2773364481963427 0.4487885729580879 0.8751328873216740	-0.119845
C	0.2314880605672719 0.4064702482418995 0.8763777745134314	-0.113544
C	0.1308107585820703 0.3197027081570396 0.8777386126056739	-0.169844
C	0.0845202879610773 0.2780323835625762 0.8740276540663963	0.092269
C	0.9167623330009254 0.0970628382054033 0.8723662325994493	0.096862
C	0.8732822660172940 0.0515781830251979 0.8745948376744977	-0.172886
C	0.7773282941762979 0.9487941736944417 0.8751278818412159	-0.119912
C	0.7314780379814270 0.9064783433750302 0.8763790855270772	-0.113425
C	0.6307813777270521 0.8197453668203863 0.8777417322342220	-0.169464
C	0.5844912183926972 0.7780753803416878 0.8740272229311893	0.091765
C	0.4170346079954153 0.4032359695240468 0.1276722011219022	0.096001
C	0.3734084836892819 0.4485229004880139 0.1254067299068944	-0.174793
C	0.2770475916849468 0.5506217711840207 0.1248518717572715	-0.118719
C	0.2313226919446097 0.5931178163389983 0.1235973836202236	-0.113656
C	0.1313076388410548 0.6808319158257145 0.1222677102681077	-0.170646
C	0.0850094075848508 0.7225276292639192 0.1258962511533957	0.091115
C	0.9170081045731028 0.9032259235837544 0.1276817049156738	0.096623
C	0.8733888376364608 0.9485138976248461 0.1254118786350173	-0.174752
C	0.7770560261089987 0.0506189791412601 0.1248523087810976	-0.118711
C	0.7313341036388079 0.0931165853751383 0.1235958570164151	-0.113713
C	0.6313196254199421 0.1808148675563292 0.1222667780032108	-0.170343
C	0.5850230895170835 0.2225069540588602 0.1258976254295263	0.091187
C	0.5837363482696217 0.5975317362385878 0.6276774799084726	0.096535
C	0.6269156600510455 0.5516636679562362 0.6253652882035117	-0.175206
C	0.7227646540475446 0.4487495640979978 0.6248623964157065	-0.118181
C	0.7685780804308939 0.4063916410201527 0.6236270942837652	-0.111526
C	0.8695663809805051 0.3201861777863431 0.6222674835352744	-0.169595
C	0.9160211150334692 0.2787226297758174 0.6258720631231152	0.090595
C	0.0837387609559881 0.0975314614226640 0.6276749585936308	0.096840
C	0.1269243175891450 0.0516731763840637 0.6253593487579117	-0.175088
C	0.2227450254397708 0.9487331576869024 0.6248603932714344	-0.117858
C	0.2685621565195213 0.9063802119078607 0.6236279570876451	-0.112110
C	0.3695699895508568 0.8202124987754453 0.6222708911787485	-0.169824
C	0.4160278648100684 0.7787554235828386 0.6258742770697806	0.090928
C	0.3489666883073598 0.5247189985213170 0.7500091499482108	0.111519
C	0.3019792241489772 0.4746685321353258 0.7500068046997753	0.068811
C	0.2058413934673460 0.3848229571478149 0.7500023611286464	0.066025
C	0.1558620350099256 0.3414829351562145 0.7500007161601074	0.103380
C	0.8489759666421083 0.0247092745052601 0.7499971632548801	0.111210
C	0.8019731948738424 0.9746742791932290 0.7499975208236593	0.068620
C	0.7058272752050667 0.8848388513235378 0.7500024762326279	0.066246
C	0.6558365107472761 0.8415128178545142 0.7499999751157682	0.103192
C	0.6512265756528594 0.4750064665270626 0.2500018144116287	0.114625
C	0.6982272431626056 0.5249400669610209 0.2500021870722424	0.066269
C	0.7941540327690352 0.6150703063622012 0.2500003623440860	0.070173
C	0.8439955526921854 0.6585866410775982 0.2499987763236231	0.099740
C	0.1512113613782829 0.9750239632612744 0.2500009784575949	0.114363
C	0.1982314933446515 0.0249348630701195 0.2499987118277741	0.066420
C	0.2941638209480181 0.1150677604242367 0.2499979536264897	0.070339
C	0.3440184942890837 0.1585707818443581 0.2499972103283781	0.099540
C	0.6511220347516622 0.5246670866316117 0.7499976025419530	0.109093
C	0.6980804377996762 0.4745932424048346 0.7499950280164640	0.063341
C	0.7942183130969432 0.3847390228995283 0.7499963923027494	0.068216
C	0.8443290336169527 0.3416269625967808 0.7499955219285841	0.101653
C	0.1511183291563681 0.0246749019529498 0.7499984822816084	0.109112
C	0.1980657352552679 0.9745869741749770 0.7500010860300195	0.062863
C	0.2942091943376051 0.8847384814349192 0.7499987099327222	0.068651
C	0.3443299653152805 0.8416420940806995 0.7500003384008145	0.101628
C	0.3489085229139436 0.4751271120997847 0.2499901341817969	0.116293
C	0.3017501519340509 0.5248628003025364 0.2499926333482575	0.070606
C	0.2058525198705044 0.6150510385935247 0.2499987628990531	0.066066
C	0.1561587380129064 0.6588015446981219 0.2500010708811258	0.102227
C	0.8489000606295311 0.9751182414705901 0.2499984938491853	0.116276
C	0.8017516913706721 0.0248605857749729 0.2499977846446096	0.070439
C	0.7058668483631841 0.1150446226771656 0.2500037963297579	0.066291
C	0.6561679384076290 0.1587885915996986 0.2500036445333334	0.102050
H	0.4345821670103566 0.6161613333894532 0.5282968297137669	0.114325
H	0.3602602089339508 0.5392069499455587 0.5189945015698014	0.107761
H	0.2931896083112241 0.4603418581611347 0.5205247921011296	0.088341
H	0.2160137690309112 0.3906200445221333 0.5197685375001672	0.103887
H	0.1469526605679556 0.3343625483255255 0.5182516638514343	0.119560
H	0.0644165193316996 0.2593392576227700 0.5290457433415079	0.112648
H	0.9346453645969192 0.1160892160339886 0.5282904144473561	0.114209
H	0.8602774161449624 0.0391828064633450 0.5189839971146396	0.107797
H	0.7931790590989377 0.9603381774304549 0.5205181342309767	0.088331
H	0.7160040054972054 0.8906228216881346 0.5197704038513944	0.104067
H	0.6469172628868400 0.8344190381674542 0.5182514372029882	0.119314
H	0.5643658779241948 0.7594059826088618 0.5290462373448701	0.112944
H	0.5654049311172347 0.3829904010068001 0.0292052647478529	0.114048
H	0.6399459459159201 0.4607801133606292 0.0191793756984113	0.105986
H	0.7072045127547264 0.5390439582334327 0.0204558617818693	0.087448
H	0.7841328490631672 0.6091277283644280 0.0197947401761085	0.104717
H	0.8530296283884387 0.6658796615671880 0.0179744399281623	0.121510
H	0.9350638972414477 0.7404278899216584 0.0280940590836117	0.113860
H	0.0653050133802571 0.8831038911986977 0.0292088467215314	0.114075
H	0.1399040553754135 0.9608299436355886 0.0191819023460280	0.106031
H	0.2072292244045721 0.0390242598517394 0.0204490891202494	0.087527
H	0.2841458941838085 0.1091212002264699 0.0198004098442981	0.104713
H	0.3530730375985088 0.1658312458693694 0.0179737104575336	0.121435
H	0.4351428984635516 0.2403347751736498 0.0280880501377982	0.113769
H	0.5661933325893426 0.6173608545885608 -0.0286766900606574	0.114788
H	0.6399582214770749 0.5391916207279752 -0.0190297403550417	0.107357
H	0.7071507691748453 0.4605577467291636 -0.0204279984854100	0.087407
H	0.7841034239647279 0.3905793571733385 -0.0197926728343398	0.104842
H	0.8536866162658630 0.3350239187699469 -0.0181291389288974	0.120532
H	0.9363613959326309 0.2608438168853285 -0.0284583696406486	0.113881
H	0.0661901450423220 0.1173795800240791 -0.0287057953606100	0.114761
H	0.1399887649348109 0.0392226511268137 -0.0190407882960598	0.107309
H	0.2071196962374977 0.9605278507787380 -0.0204280340094094	0.087489
H	0.2840831403283998 0.8905603382419992 -0.0197869089237520	0.105027
H	0.3536864154443859 0.8350504696282556 -0.0181339027740470	0.120681
H	0.4363759290124934 0.7608636456606382 -0.0284676839686754	0.113886
H	0.4354568037066354 0.3844757916847488 0.4712637074070861	0.114363
H	0.3605572433685405 0.4612622745678848 0.4808550571227655	0.106638
H	0.2927779537476018 0.5388595507907773 0.4795060478679066	0.087810
H	0.2157747031973510 0.6089183763449524 0.4802464441976049	0.103598
H	0.1475511809130715 0.6665695999652106 0.4818916586502554	0.120668
H	0.0654072450020875 0.7414291866943723 0.4715757419152057	0.113169
H	0.9354369561380382 0.8844471425314751 0.4712512242504666	0.114167
H	0.8605295736542983 0.9612594155137295 0.4808553004362673	0.106416
H	0.7927898240298028 0.0388634327411056 0.4795193892722939	0.087768
H	0.7157827282672949 0.1089231000480813 0.4802445841261778	0.103658
H	0.6475781606006782 0.1665579551788632 0.4818812329372759	0.120461
H	0.5654128252979749 0.2414470238408678 0.4715278606101380	0.113206
H	0.5654041385440619 0.3829885938370553 0.4707920004025491	0.114059
H	0.6399446944910476 0.4607782073902553 0.4808233800725631	0.106026
H	0.7072062410809793 0.5390415753614867 0.4795473991693271	0.087492
H	0.7841340248360612 0.6091271299398672 0.4802058485799190	0.104721
H	0.8530278653479988 0.6658795538879713 0.4820243979769459	0.121483
H	0.9350624263164407 0.7404276431632711 0.4719090725699410	0.113840
H	0.0653060433388188 0.8831030447571105 0.4707929819870733	0.114055
H	0.1399070457852363 0.9608263296024864 0.4808163711509769	0.106099
H	0.2072313755404222 0.0390217590950086 0.4795490192945849	0.087510
H	0.2841462405284619 0.1091214421464113 0.4801978505662732	0.104703
H	0.3530746671225816 0.1658299606266698 0.4820224198565931	0.121478
H	0.4351427918784196 0.2403361881943089 0.4719051106733136	0.113755
H	0.4345854019400352 0.6161645218749514 -0.0282899077519633	0.114264
H	0.3602651624536616 0.5392081583053639 -0.0189807202536815	0.107768
H	0.2931866087155528 0.4603389171484351 -0.0205124944407671	0.088339
H	0.2160115152689411 0.3906176337445964 -0.0197645498201572	0.104029
H	0.1469498362031936 0.3343608477840783 -0.0182514269485388	0.119583
H	0.0644146165798281 0.2593382861886033 -0.0290508083835609	0.112702
H	0.9346465728210637 0.1160889416080311 -0.0282985310658437	0.114173
H	0.8602800111502226 0.0391800015337491 -0.0189856010636186	0.107759
H	0.7931806905653436 0.9603372546129127 -0.0205161289059241	0.088297
H	0.7160045880776879 0.8906235667167722 -0.0197727320091304	0.104002
H	0.6469154614036581 0.8344161734229784 -0.0182522128893503	0.119331
H	0.5643632237106330 0.7594014884762811 -0.0290550316808029	0.112958
H	0.4354581474171348 0.3844728933146346 0.0287105915086987	0.114289
H	0.3605573840178840 0.4612574091127477 0.0191205917925380	0.106574
H	0.2927772498508328 0.5388619708381406 0.0204769061522765	0.087722
H	0.2157744234098680 0.6089199798418926 0.0197522066009705	0.103634
H	0.1475534040648477 0.6665693411380804 0.0181104029325824	0.120676
H	0.0654106317806410 0.7414296628110773 0.0284292320501823	0.113164
H	0.9354384190128752 0.8844430220613357 0.0287467470148007	0.114142
H	0.8605306489439895 0.9612551164691382 0.0191406195401614	0.106434
H	0.7927906701335221 0.0388626079036584 0.0204845513734037	0.087803
H	0.7157836679703820 0.1089224082640358 0.0197579573478315	0.103549
H	0.6475777818250847 0.1665520918355325 0.0181252108245493	0.120460
H	0.5654111816359073 0.2414397676600636 0.0284822154140172	0.113236
H	0.5661938201421040 0.6173600783549746 0.5286806574389890	0.114816
H	0.6399597452266674 0.5391920637422201 0.5190263625821865	0.107317
H	0.7071528140641293 0.4605531370523090 0.5204216124422399	0.087511
H	0.7841045835406322 0.3905752853314192 0.5197792230923012	0.104776
H	0.8536880017234306 0.3350215998909190 0.5181188424414561	0.120584
H	0.9363632766862271 0.2608416003251240 0.5284481905917515	0.113898
H	0.0661935419494893 0.1173756440388121 0.5286978097453786	0.114695
H	0.1399918082286699 0.0392186302921154 0.5190360869084376	0.107313
H	0.2071222993495166 0.9605268189436845 0.5204228734889316	0.087443
H	0.2840859424904191 0.8905590070684426 0.5197893978107949	0.104979
H	0.3536879177433895 0.8350504205187542 0.5181315773267255	0.120645
H	0.4363765149875523 0.7608660990556344 0.5284599101337507	0.113847
Ni	0.4999862364828649 0.6888822921106184 0.7499594454411982	0.468034
Ni	-0.0000042962757223 0.1888759530550442 0.7499835222922770	0.468334
Ni	0.4999365320732697 0.3110156020979477 0.2499737711586231	0.467464
Ni	-0.0000818740515121 0.8110277408063020 0.2500025203971219	0.467865
F	0.4997805056066960 0.6873003383999449 0.4742653838428946	-0.614617
F	-0.0001789101602483 0.1873173086429144 0.4742228108260594	-0.614548
F	0.4996019528246984 0.3126521211081598 -0.0256401140968597	-0.614248
F	-0.0004462230077104 0.8127458549554136 0.9743765972537387	-0.614416
F	0.4998028409263829 0.6873233301665299 0.0258581850934263	-0.614602
F	-0.0001784650886958 0.1873099426606069 0.0258164857825703	-0.614543
F	0.4996032623991284 0.3126585618145614 0.5256926202469517	-0.614281
F	-0.0004505662196973 0.8127427405276837 0.5256144706778663	-0.614416
F	0.4754824090768048 0.7700382616334206 0.2500095970023831	-0.599366
F	0.5730689588959930 0.6634379702207273 0.2500395645971919	-0.594289
F	0.9746779190216794 0.2698037537459710 0.2500034766734202	-0.598923
F	0.0735768466325933 0.1648726642087026 0.2500015851723204	-0.594743
F	0.5726496352704915 0.2887076309766548 0.7499759173316667	-0.597573
F	0.4768056099593723 0.3970944058738825 0.7500738432170782	-0.590843
F	0.0719935878319874 0.7861840234293276 0.7499979382693603	-0.597120
F	0.9785277679060354 0.8974474714293829 0.7499832037262741	-0.590727
F	0.4443208518781133 0.6230669039278360 0.2500026949920048	-0.588860
F	0.9453981927536250 0.1221679054485785 0.2500450656487458	-0.588694
F	0.4432870398249595 0.2507800065592127 0.7500256289785234	-0.595610
F	0.9420170030382654 0.7521157394787422 0.7500005516872947	-0.596105
N	0.4388356874714381 0.6198540874403844 0.7499992446925140	-0.154262
N	0.5619559808439384 0.7572422741558031 0.7499939305994154	-0.164383
N	0.9388651851283274 0.1198143054563332 0.7499971268361153	-0.154547
N	0.0619749381091793 0.2572143021998884 0.7499959850307388	-0.164868
N	0.5613891573820564 0.3797999750383549 0.2499976622483514	-0.152986
N	0.4379368134578797 0.2428578235060879 0.2499955355378905	-0.166632
N	0.0613344158937877 0.8798608480176602 0.2500001252380830	-0.153138
N	0.9378972047884460 0.7428968447281343 0.2500016983827392	-0.166462
N	0.5616290496313445 0.6203031474690158 0.7500005770383376	-0.152546
N	0.4384602926154419 0.7577149761711807 0.7499948725700102	-0.162848
N	0.0616236309194983 0.1202961711444875 0.7499944556947757	-0.152572
N	0.9384521792320958 0.2576893969297060 0.7499931866214745	-0.163235
N	0.4391066314062316 0.3804019124128495 0.2499875113926943	-0.153845
N	0.5622599904808773 0.2431027085175213 0.2500034876838389	-0.164700
N	0.9390782669879025 0.8803974991842405 0.2499989799990872	-0.154513
N	0.0622456989601252 0.7431272033630759 0.2500023052580524	-0.164700
Ga	0.4984308390455613 0.6860206463912615 0.2500040331267286	1.447594
Ga	-0.0013930358505565 0.1861276519220855 0.2499988060006282	1.447204
Ga	0.4983466483896876 0.3125652901136925 0.7499995796813032	1.447341
Ga	-0.0016840044132911 0.8123947884695072 0.7499990702563016	1.447427
	  	
