#======================================================================

# CRYSTAL DATA

#----------------------------------------------------------------------

data_VESTA_phase_1


_pd_phase_name                         GaFFIVE_3_Ni
_cell_length_a                         14.04883
_cell_length_b                         14.04881
_cell_length_c                         7.96136
_cell_angle_alpha                      90.00082
_cell_angle_beta                       90.00013
_cell_angle_gamma                      90.11830
_symmetry_space_group_name_H-M         P 1
_symmetry_Int_Tables_number            1

loop_
_symmetry_equiv_pos_as_xyz
   x, y, z

loop_
   _atom_site_label
   _atom_site_fract_x
   _atom_site_fract_y
   _atom_site_fract_z
   _atom_site_charge
C	0.2703770508292839 0.4512367499512461 0.6403342466165555	0.059786
C	0.2293551394503288 0.0504152326570864 0.6390320057371370	0.061455
C	0.2299558545284065 0.4512352310593807 0.3605343583470558	0.053303
C	0.2705283666414033 0.0503353109911499 0.3598188494569948	0.065460
C	0.0503363000698749 0.2705265790209752 0.3598147350151593	0.065491
C	0.4512350773404186 0.2299592611146009 0.3605310219516715	0.053346
C	0.4512358321477735 0.2703814819079716 0.6403331330030285	0.059922
C	0.0504130244975990 0.2293536981683869 0.6390293110279145	0.061332
C	0.9512353096183951 0.2299585265321600 0.6394672472298860	0.053384
C	0.5503358183918063 0.2705274980190833 0.6401856558451152	0.065517
C	0.5504128384393034 0.2293541473788183 0.3609695626924741	0.061290
C	0.9512357743360418 0.2703801653846962 0.3596666781883127	0.059958
C	0.7293531344161769 0.0504126814285492 0.3609744803977936	0.061242
C	0.7703790229670253 0.4512356968269433 0.3596660861697413	0.059867
C	0.7705260941433174 0.0503369546900677 0.6401879723820418	0.065533
C	0.7299566819158080 0.4512365794241747 0.6394662772875968	0.053272
C	0.4512348169913095 0.7299582640034430 0.6394667352788431	0.053278
C	0.0503355951894601 0.7705277816780945 0.6401840686973228	0.065497
C	0.0504125549980584 0.7293549304046191 0.3609692043772748	0.061335
C	0.4512357727397501 0.7703805073247264 0.3596680495849416	0.059932
C	0.2293535763630360 0.5504123602233559 0.3609727420890587	0.061302
C	0.2703791561002163 0.9512351718452000 0.3596700740739823	0.059969
C	0.2705262498753759 0.5503368230469496 0.6401860612410321	0.065654
C	0.2299570067447468 0.9512367001387858 0.6394697137562722	0.053265
C	0.7703774642730853 0.9512370998152144 0.6403352050443963	0.059822
C	0.7293539871489891 0.5504143968119398 0.6390303677555602	0.061461
C	0.7299553942951766 0.9512349321983817 0.3605352615445956	0.053205
C	0.7705276738416990 0.5503359924708777 0.3598164551471758	0.065570
C	0.5503358955034010 0.7705274334338071 0.3598168776006321	0.065493
C	0.9512351143439643 0.7299591330059008 0.3605310332436418	0.053349
C	0.9512353484281217 0.7703806848383239 0.6403326610291373	0.059965
C	0.5504129956662653 0.7293540855925116 0.6390291222003738	0.061402
H	0.2837287156215861 0.4117176570116248 0.7553200475329579	0.108500
H	0.2121819429648058 0.0900349848682139 0.7528337525759129	0.108848
H	0.2150824330682457 0.4119962819059085 0.2453582471179304	0.113146
H	0.2859140590635952 0.0903575779633113 0.2460719687274362	0.103992
H	0.0903580474519569 0.2859135479103319 0.2460678854559296	0.103951
H	0.4119975385977850 0.2150827291743180 0.2453575251580754	0.113107
H	0.4117172584053253 0.2837305250001307 0.7553200916887455	0.108457
H	0.0900323661498179 0.2121831233038831 0.7528295909062452	0.108900
H	0.9119978760978743 0.2150839655360124 0.7546414253348266	0.113078
H	0.5903584834096568 0.2859136449770543 0.7539329051262307	0.103968
H	0.5900318457780834 0.2121829168095342 0.2471684724374231	0.108910
H	0.9117172868753920 0.2837303395919497 0.2446807684865650	0.108451
H	0.7121824873527740 0.0900329207610192 0.2471732257274192	0.108940
H	0.7837298349962390 0.4117164601484421 0.2446793379468325	0.108483
H	0.7859133023923139 0.0903602307503350 0.7539357641402621	0.103954
H	0.7150825330665255 0.4119990230920972 0.7546411585502932	0.113112
H	0.4119974954476932 0.7150839632391157 0.7546417879148215	0.113126
H	0.0903576582901143 0.7859143396660327 0.7539331433547940	0.103975
H	0.0900320423464585 0.7121829911020231 0.2471678612121304	0.108900
H	0.4117172473869976 0.7837310853784515 0.2446813797798932	0.108466
H	0.2121830161453526 0.5900325586936863 0.2471730666005575	0.108917
H	0.2837291311179601 0.9117155790508228 0.2446823365767341	0.108460
H	0.2859125104263458 0.5903600801994606 0.7539354607035310	0.103923
H	0.2150813739410059 0.9120003002845384 0.7546438255351413	0.113100
H	0.7837286788784844 0.9117185710324409 0.7553224828267669	0.108483
H	0.7121816079547622 0.5900351349252347 0.7528304458288401	0.108839
H	0.7150812545261072 0.9119959385745167 0.2453608291779838	0.113156
H	0.7859140920569547 0.5903581627722430 0.2460690781482384	0.103952
H	0.5903586689810992 0.7859143399156483 0.2460699749664397	0.103970
H	0.9119977838132524 0.7150830316338013 0.2453562535101530	0.113117
H	0.9117165472681295 0.7837305749992003 0.7553201414708066	0.108444
H	0.5900320990163279 0.7121828145339675 0.7528301673672397	0.108888
Ni	0.2507013865862316 0.2507020101372864 0.4989729507801852	0.748819
Ni	0.7507020543169023 0.2507024626978167 0.5010258539162340	0.748710
Ni	0.2507011804788293 0.7507017633659221 0.5010259425636230	0.748685
Ni	0.7507016315484506 0.7507011267648683 0.4989726605770364	0.748737
Ga	0.2485767965522238 0.2485581818956163 -0.0016914299245979	1.445905
Ga	0.7485692780597032 0.2485654744207532 0.0016891475990943	1.446076
Ga	0.2485631437585916 0.7485721370842274 0.0016902743750925	1.445972
Ga	0.7485717772150791 0.7485629293452079 -0.0016950954314205	1.445943
F	0.2507276155975974 0.2507247807365204 0.7507182103162203	-0.560373
F	0.2505086508068131 0.2505165338513152 0.2461432086325846	-0.561752
F	0.1571941619340562 0.1571889216061799 -0.0056871908988778	-0.552212
F	0.2128309848640922 0.3730672205474383 0.9988556048868995	-0.550260
F	0.3730836665197842 0.2128191159991073 0.9988539672407698	-0.550313
F	0.7505179102717594 0.2505170756233663 0.7538518850690076	-0.561778
F	0.7507175824328255 0.2507162284802175 0.2492814468947787	-0.560345
F	0.6571872919368463 0.1571916092071792 0.0056348020280026	-0.552229
F	0.7128343262653729 0.3730774120465127 0.0011567467320907	-0.550345
F	0.8730778749259797 0.2128227691269872 0.0011444338203844	-0.550317
F	0.2505157935855545 0.7505185782464967 0.7538536749629559	-0.561750
F	0.2507253279759826 0.7507114652382533 0.2492787447046673	-0.560338
F	0.1571884380955122 0.6571927479940506 0.0056534802434227	-0.552215
F	0.2128203464603778 0.8730830233859294 0.0011561080614440	-0.550329
F	0.3730757747685854 0.7128401031652328 0.0011408601971409	-0.550273
F	0.7507261127446355 0.7507243825769991 0.7507184988537737	-0.560341
F	0.7505102760781328 0.7505039049525257 0.2461437172871959	-0.561743
F	0.6571898936369033 0.6571939256211612 -0.0056783093573292	-0.552213
F	0.7128405817158776 0.8730739853279919 0.9988563576477525	-0.550255
F	0.8730767436418561 0.7128154376589985 0.9988477992704096	-0.550273
N	0.4016237292933214 0.2504824449186512 0.5002687157037905	-0.192197
N	0.1001723244854948 0.2500684245108118 0.4993038593679258	-0.192251
N	0.2504754043859197 0.4016240962094226 0.5002707585778550	-0.192163
N	0.2500723067804215 0.1001727547464074 0.4993109226038930	-0.192323
N	0.9016236342035119 0.2504797766083987 0.4997297705240558	-0.192217
N	0.6001718976766539 0.2500699376361796 0.5006936413095826	-0.192254
N	0.7504782754875491 0.4016246722492490 0.4997284353101529	-0.192149
N	0.7500703733267913 0.1001718593006692 0.5006974748756602	-0.192103
N	0.4016242718792855 0.7504794586112713 0.4997300537543925	-0.192154
N	0.1001713307184169 0.7500708719102575 0.5006935262672998	-0.192251
N	0.2504778593414000 0.9016237627967241 0.4997314108726950	-0.192198
N	0.2500698264038562 0.6001724348636972 0.5006978736095421	-0.192247
N	0.9016247496750159 0.7504809457553939 0.5002682403923847	-0.192203
N	0.6001715512740384 0.7500692094610836 0.4993065119927612	-0.192315
N	0.7504769867726365 0.9016244069826420 0.5002731351957750	-0.192035
N	0.7500721273965524 0.6001724921422605 0.4993057906939083	-0.192302
	  	
