#======================================================================

# CRYSTAL DATA

#----------------------------------------------------------------------

data_VESTA_phase_1


_pd_phase_name                         GaFFIVE_14_Zn_i
_cell_length_a                         13.38599
_cell_length_b                         13.36643
_cell_length_c                         8.09104
_cell_angle_alpha                      87.76375
_cell_angle_beta                       87.65019
_cell_angle_gamma                      89.91109
_symmetry_space_group_name_H-M         P 1
_symmetry_Int_Tables_number            1

loop_
_symmetry_equiv_pos_as_xyz
   x, y, z

loop_
   _atom_site_label
   _atom_site_fract_x
   _atom_site_fract_y
   _atom_site_fract_z
   _atom_site_charge
C	0.5714363334405965 0.2648027701213998 0.3666355621386245	-0.182058
C	0.4676352538518877 0.2683282573698442 0.3699301905087408	0.110332
C	0.9382390310149950 0.2870087256623258 0.4155221098614671	-0.175937
C	0.0416569365724929 0.2793630354804838 0.3995367730685665	0.111395
C	0.2631338561971331 0.5712119418587766 0.3684011187292907	-0.184236
C	0.2663403126302616 0.4672267961006413 0.3722542415068596	0.110060
C	0.2956003866643331 0.9384053128939358 0.4112570595208000	-0.175662
C	0.2873370626023152 0.0419822671045334 0.3964116324479445	0.110046
C	0.9305783037811434 0.2354874194950062 0.1332839948718370	-0.185400
C	0.0344031997148630 0.2313541455544716 0.1274245583165983	0.108235
C	0.5658881723176951 0.2096066245943542 0.0864316454314231	-0.171161
C	0.4623837909631447 0.2186629283177028 0.0983198933615412	0.104366
C	0.2111094643415811 0.5654346907896231 0.0866537805611066	-0.174632
C	0.2200231265097178 0.4618401223034288 0.0988938347534651	0.101958
C	0.2321303901204433 0.9303751171153497 0.1366798095680240	-0.186122
C	0.2279128319183316 0.0343394659595675 0.1313426295508700	0.109778
C	0.4305931460440630 0.7365006745905618 0.6343435014325816	-0.183682
C	0.5344036838521408 0.7333369606373052 0.6277371022340603	0.108850
C	0.0657522165458851 0.7303532869590398 0.5768926030972292	-0.166230
C	0.9620268832238889 0.7347961846797418 0.5917748344781827	0.103514
C	0.7371657292285072 0.4306072727797416 0.6335013539747001	-0.183666
C	0.7341249334815795 0.5345687739540728 0.6270928480198567	0.110752
C	0.7178392625978816 0.0653423084923412 0.5815281351225328	-0.168114
C	0.7246294080683268 0.9615908906980524 0.5946967283943168	0.102664
C	0.0709133482265579 0.7592946703654424 0.8691347118329791	-0.180733
C	0.9670362509876329 0.7602530935914417 0.8739859951649722	0.107206
C	0.4383679749990018 0.7775574779361544 0.9217251608487819	-0.167173
C	0.5419469813406835 0.7725946844965613 0.9041111705473859	0.111894
C	0.7780907162973689 0.4384122333478652 0.9208974471313682	-0.170192
C	0.7726953510710063 0.5420572743445491 0.9036953920192793	0.111306
C	0.7634030739171288 0.0708597770766106 0.8667809602355687	-0.180291
C	0.7657501485113255 0.9669068834303528 0.8706764409302535	0.109993
C	0.6218315242373018 0.2351478067590730 0.2209691880759350	0.188023
C	0.8813017773248352 0.2633398052906681 0.2810579340513912	0.191230
C	0.2351375722901410 0.6215139072132017 0.2220325039186319	0.193042
C	0.2661931730279464 0.8812012651572031 0.2802448096390089	0.190940
C	0.3813547671551434 0.7589009674964854 0.7852293637466115	0.188150
C	0.1215195177735840 0.7439293586431823 0.7166598609125794	0.188830
C	0.7594061068634977 0.3813651097817552 0.7841755307605915	0.188336
C	0.7389821357871751 0.1213161038951365 0.7183133390433725	0.188610
H	0.6121264652880083 0.2800669053087609 0.4766360868887440	0.108227
H	0.4249092560115373 0.2858588458707477 0.4826245856510282	0.096993
H	0.9024118052588842 0.3105944380941826 0.5305861782640529	0.124771
H	0.0891611852772993 0.2957935375620990 0.5012128953619065	0.096364
H	0.2770901641732740 0.6123670616193893 0.4785918866281563	0.110936
H	0.2821381160653619 0.4247175601617200 0.4857992112741610	0.097872
H	0.3240944116752744 0.9026037971354264 0.5227456594188710	0.125200
H	0.3082482084979849 0.0896736340206797 0.4956953859034275	0.096883
H	0.8886250800185193 0.2214043442568399 0.0240916481517259	0.107568
H	0.0759889986788653 0.2113434575001093 0.0145132586667548	0.098711
H	0.6027219222502650 0.1836170485370908 0.9738723241369928	0.124156
H	0.4168126263771086 0.2025182075607797 0.9937606073522132	0.104051
H	0.1867901257980769 0.6020783861550926 0.9729554798827726	0.124176
H	0.2054501565532371 0.4161553915832022 0.9936665316353983	0.104635
H	0.2135313167777521 0.8881015348447888 0.0299079684207943	0.110191
H	0.2037479365318915 0.0759206715396716 0.0211656714782844	0.099007
H	0.3890129933859723 0.7244201509391965 0.5238257254607163	0.103758
H	0.5760656775613918 0.7162823390898054 0.5134718198836825	0.098682
H	0.1026750218988039 0.7169355620943912 0.4577435574794841	0.121709
H	0.9166371916631031 0.7257167612676370 0.4845165722139841	0.102872
H	0.7257788656500876 0.3886864785326392 0.5229583568150658	0.104470
H	0.7174832043536984 0.5763334018154325 0.5128869772953550	0.098287
H	0.6968320517834398 0.1022394204220587 0.4660836445332147	0.123142
H	0.7110105089044970 0.9160196359927844 0.4889849573779040	0.103480
H	0.1112015397946216 0.7669978070671754 0.9823085057205486	0.103141
H	0.9244346832839612 0.7676005256749460 0.9905732076514923	0.099022
H	0.4025292207947596 0.7953887551928933 0.0399388118808620	0.122921
H	0.5893877554182287 0.7860013283219287 0.0070508183044725	0.094839
H	0.7961577968035708 0.4024936607745921 0.0387868793018433	0.123948
H	0.7857309189287212 0.5896136966020751 0.0068378198004720	0.094659
H	0.7763019538902854 0.1113949476514604 0.9781520469933133	0.104873
H	0.7797174793743330 0.9241573045448339 0.9847890799964345	0.098760
N	0.7762570468184734 0.2743177986358289 0.3005959112163169	-0.105892
N	0.2783895958909502 0.7759654222146578 0.2970198685142308	-0.107966
N	0.7269090976020669 0.2240895885571550 0.2028033834692007	-0.099812
N	0.2235690944821037 0.7266631556562625 0.2060105702394107	-0.101093
N	0.2265792316014904 0.7370816044867167 0.6923859224419793	-0.098213
N	0.7299228686642902 0.2265003637608483 0.6965091932765262	-0.098041
N	0.2762596571002870 0.7667895874264828 0.8106074812889872	-0.104110
N	0.7683177504527274 0.2762091416936628 0.8074823389731451	-0.104542
N	0.4140133629888220 0.2474823620873924 0.2379575715120713	-0.219071
N	0.0890107977138764 0.2521167459844743 0.2583399095875175	-0.215723
N	0.2469611249485594 0.4134588481745995 0.2395406213635910	-0.220474
N	0.2541324412102414 0.0891293826238774 0.2591779090974289	-0.216293
N	0.5891775965225795 0.7510772714268873 0.7599795378069225	-0.214974
N	0.9134274765672302 0.7493056860777249 0.7379802947943290	-0.218699
N	0.7514318282012379 0.5893722335248847 0.7596229914048289	-0.215791
N	0.7479851202199340 0.9131619856173196 0.7370964580043030	-0.216516
F	0.3744581053336214 0.1963527888892018 0.7407510642702094	-0.573809
F	0.2078747159264981 0.3761683272965728 0.7422057082460004	-0.572546
F	0.1456458992544089 0.1515340798452705 0.7699931716653593	-0.579940
F	0.7009762842843670 0.8762713181223249 0.2417639868610796	-0.568594
F	0.8753541851367100 0.7041337728457496 0.2425639936694572	-0.565193
F	0.6486853028123949 0.6494308796664051 0.2664996987369320	-0.576448
F	0.2506125092514539 0.2498180281632407 0.5069682449996100	-0.554484
F	0.2510177861872540 0.2490721027151455 0.9909314927030981	-0.553798
F	0.7488868458234827 0.7501840419138940 0.4903419825155358	-0.551590
F	0.7505950106413852 0.7512909539429479 0.0072075512197754	-0.551104
Ga	0.2460069190723009 0.2442892766972438 0.7498729123410943	1.454552
Ga	0.7448522806361295 0.7463265613884285 0.2497790402697834	1.448047
Zn	0.2514240325915444 0.2512690719625549 0.2476843731668615	0.729959
Zn	0.7513276588472257 0.7513144795297996 0.7477868337109662	0.729633
	  	
