#======================================================================

# CRYSTAL DATA

#----------------------------------------------------------------------

data_VESTA_phase_1


_pd_phase_name                         GaFFIVE_2_Cu
_cell_length_a                         13.71057
_cell_length_b                         13.71060
_cell_length_c                         8.20191
_cell_angle_alpha                      90.11115
_cell_angle_beta                       89.89011
_cell_angle_gamma                      90.03222
_symmetry_space_group_name_H-M         P 1
_symmetry_Int_Tables_number            1

loop_
_symmetry_equiv_pos_as_xyz
   x, y, z

loop_
   _atom_site_label
   _atom_site_fract_x
   _atom_site_fract_y
   _atom_site_fract_z
   _atom_site_charge
C	0.5299079273999380 0.6988309369267013 0.1327297501346446	0.100318
C	0.5311295119000998 0.7999684620382825 0.1379469602183772	-0.163701
C	0.4689190803809036 0.3020071731157481 0.1329778734662762	0.098331
C	0.4683468302618827 0.2007662954091556 0.1374889292491914	-0.163505
C	0.3019615371307625 0.5306033982265268 0.1317572359915968	0.101326
C	0.2008047845896613 0.5314949061338762 0.1372593568008943	-0.163828
C	0.6986608421806706 0.4699966675786142 0.1326930504997635	0.093875
C	0.7998881408545978 0.4689604006746216 0.1370918432092439	-0.163689
C	0.4699979193140532 0.6986547831742309 0.8673059239205499	0.093823
C	0.4689586494676099 0.7998845527937489 0.8629086974640829	-0.163696
C	0.5306043957601125 0.3019591589358835 0.8682403114721131	0.101395
C	0.5314959616539412 0.2008025312124375 0.8627360542798207	-0.163835
C	0.6988348587428278 0.5299053495348586 0.8672670929107470	0.100287
C	0.7999695965396111 0.5311271807027953 0.8620528752305133	-0.163744
C	0.3020076614043537 0.4689166457188020 0.8670209979060856	0.098357
C	0.2007658036221574 0.4683457159347985 0.8625080934658108	-0.163577
C	0.5000366073967879 0.1478705810358778 0.0000435857477521	0.169848
C	0.5001899592440018 0.0447327088446204 0.0000345981170491	-0.096180
C	0.5000913061544427 0.8527933700715068 0.0005203562091132	0.167023
C	0.5001841594576663 0.9558888192538232 0.0005746744877468	-0.088860
C	0.8527955946090066 0.5000912826806641 0.9994794277810198	0.167051
C	0.9558865647718210 0.5001849222490410 0.9994252356806386	-0.089232
C	0.1478709943200419 0.5000364481309759 -0.0000482317866815	0.169901
C	0.0447369758784280 0.5001910297776762 -0.0000373303043069	-0.095792
H	0.5509552806033020 0.6552899522114335 0.2377370291558144	0.104171
H	0.5557584231405683 0.8377069270891778 0.2472376768080743	0.127968
H	0.4451055895193572 0.3453727314152190 0.2375996998759013	0.106712
H	0.4432003963042379 0.1629384959424146 0.2463581842669015	0.129640
H	0.3458796922109569 0.5540605120280939 0.2352757349879671	0.102063
H	0.1630321805044473 0.5565339549572795 0.2464069834345350	0.128423
H	0.6555902238019247 0.4486478904266920 0.2388767654896696	0.109748
H	0.8374818029545160 0.4442260344654996 0.2462027253069492	0.129814
H	0.4486460242675018 0.6555848693737331 0.7611223908191607	0.109830
H	0.4442257442411043 0.8374802342715280 0.7537929576766759	0.129778
H	0.5540576660433442 0.3458794445746411 0.7647237803024222	0.102027
H	0.5565350142285977 0.1630270774900912 0.7535889815835540	0.128494
H	0.6552926310577337 0.5509506491535637 0.7622608760978212	0.104186
H	0.8377029213232057 0.5557555341972175 0.7527653287037788	0.128032
H	0.3453695232074354 0.4451020403447876 0.7623992676615146	0.106681
H	0.1629395564990895 0.4431993495085947 0.7536386382556031	0.129626
Cu	0.5002853575502386 0.5002729506629373 -0.0000020312767031	0.727057
Ga	0.4989803902883800 0.4989880366105711 0.5000035846451992	1.459220
F	0.4988315033432097 0.5016786860440622 0.7336978435607149	-0.584963
F	0.5016618960361995 0.4988359374894308 0.2663091002658693	-0.584965
F	0.4617829039868449 0.6287778869713836 0.4965664752565983	-0.595990
F	0.4036207008748743 0.4035831327776733 0.5000187676679962	-0.597372
F	0.6287794663410733 0.4618741661907762 0.5034452687012094	-0.596009
N	0.4998462667321985 0.3515177698243697 0.0006554049639707	-0.220708
N	0.5000235767423257 0.6491713036686337 0.0000080403311815	-0.222373
N	0.6491805967686040 0.5000192398763622 0.9999885117475600	-0.222349
N	0.3515190743933248 0.4998419032785552 -0.0006552584419477	-0.220636
	  	
