#======================================================================

# CRYSTAL DATA

#----------------------------------------------------------------------

data_VESTA_phase_1


_pd_phase_name                         GaFFIVE_18_Co
_cell_length_a                         14.00266
_cell_length_b                         14.01999
_cell_length_c                         7.97994
_cell_angle_alpha                      89.81409
_cell_angle_beta                       95.32242
_cell_angle_gamma                      90.07174
_symmetry_space_group_name_H-M         P 1
_symmetry_Int_Tables_number            1

loop_
_symmetry_equiv_pos_as_xyz
   x, y, z

loop_
   _atom_site_label
   _atom_site_fract_x
   _atom_site_fract_y
   _atom_site_fract_z
   _atom_site_charge
F	0.4987828769706834 0.3440086237785663 0.5044432964056574	-0.559439
F	0.5218779713776509 0.4899241733706801 0.7415041373101989	-0.544292
F	0.3773447513030654 0.5237895513292010 0.5144552561303366	-0.531141
F	0.9996070540960613 0.8450929168675771 0.5072441603149610	-0.558415
F	0.0207175389778922 0.9933151625317848 0.7414946626585229	-0.544038
F	0.8765651771258439 0.0236699046498878 0.5143798990846680	-0.530533
F	0.6218853121601755 0.5236838333629918 0.4875623180960824	-0.529852
F	0.4785200108040880 0.4877442779724715 0.2618003684675028	-0.546219
F	0.1227629420152411 0.0238876887981000 0.4885213069107450	-0.529638
F	0.9792266043009225 0.9897075711980561 0.2632474387449661	-0.545008
C	0.6830319199962281 0.1624668814143144 0.6571076667659740	-0.420505
C	0.7554182650657784 0.1543639145959802 0.8050866002407377	0.203899
C	0.7603131345517515 0.1986861573051348 0.9627050368634876	-0.150151
C	0.6907233949572602 0.2642052674331811 0.0239782668734571	-0.145489
C	0.6756728492861931 0.3616725779288981 0.9809410097213241	0.219393
C	0.7292003145853809 0.4217578022447082 0.8665856842389014	-0.426062
C	0.8866409207429423 0.1928534320450081 0.2234094182954075	-0.432582
C	0.8466353534078839 0.1659586067332565 0.0506396336284799	0.220416
C	0.6244653383942171 0.2428656569755647 0.1398137684990035	0.206427
C	0.6023595051134947 0.1510943293147407 0.2224989046349013	-0.427352
C	0.1802629142364549 0.6622631973732904 0.6587609348174429	-0.422161
C	0.2530505516476281 0.6537622319377546 0.8060869973385010	0.203170
C	0.2583516901407069 0.6975163447781246 0.9642623151971956	-0.150123
C	0.1889551642725158 0.7628837152433052 0.0267225155844615	-0.143835
C	0.1740601070997500 0.8604232635781479 0.9844585723068722	0.217485
C	0.2272853489180993 0.9206984377802602 0.8698031259307872	-0.424125
C	0.3858970272015682 0.6915140180239098 0.2233333097344586	-0.432588
C	0.3452205259703374 0.6649548223323609 0.0507653212071863	0.220435
C	0.1226403032388064 0.7414275380739279 0.1425113314769066	0.206961
C	0.1002278637276001 0.6495812526077653 0.2246244399746338	-0.426588
C	0.3156597344756633 0.1664814566300493 0.3430626359987167	-0.420648
C	0.2434230865945007 0.1568250757054098 0.1953131035089988	0.204018
C	0.2398202491593628 0.1983807792693352 0.0351093568753400	-0.149136
C	0.3110300847264534 0.2621088584632021 0.9733720799517495	-0.144493
C	0.3269611646124980 0.3589626872226974 0.0182996881776941	0.219294
C	0.2710108935801933 0.4185304743190765 0.1286968409982674	-0.427309
C	0.1126862281518806 0.1951871480717513 0.7766166853136236	-0.428264
C	0.1522846857621274 0.1674821993417130 0.9494824943583361	0.218964
C	0.3785698244992414 0.2408568612995004 0.8599973249960854	0.208429
C	0.4001724880633345 0.1505454451347331 0.7732318822899105	-0.427341
C	0.8158666194876131 0.6651849274259193 0.3430458077132035	-0.421403
C	0.7438022947724428 0.6559475142438217 0.1948937935506991	0.202607
C	0.7410697803687152 0.6968986873485626 0.0344136892399392	-0.151042
C	0.8126192107092670 0.7602859957219740 0.9725947886478352	-0.141847
C	0.8287024866498464 0.8571737267364474 0.0175592246461161	0.216328
C	0.7728179631491280 0.9166437198054564 0.1285453936783777	-0.426733
C	0.6143542786838558 0.6943679466820571 0.7752215585210570	-0.428139
C	0.6533327486323672 0.6665300617933053 0.9484452383981937	0.219029
C	0.8801524978169658 0.7390801285415000 0.8592325775139137	0.205310
C	0.9017461007094342 0.6488640225500291 0.7722766346521766	-0.427843
H	0.7168295603771612 0.1831073869244018 0.5436028441672555	0.144686
H	0.6295814177790892 0.2167966422297440 0.6799805252279510	0.139513
H	0.6456417278742638 0.0944232756380314 0.6294491532823772	0.129407
H	0.6814677305743774 0.4519965073130675 0.7631859999296395	0.144346
H	0.7843589163059077 0.3788295665652124 0.8133843601529955	0.129117
H	0.7644373908718711 0.4819436440486384 0.9355659552067779	0.131329
H	0.8559737602311459 0.0601680278368289 0.7056158315955868	0.275778
H	0.8715385963518943 0.1380955762210699 0.3161980587800370	0.138772
H	0.8541960775392426 0.2602612826107389 0.2589819344845479	0.126462
H	0.9648547920204528 0.2012790061777854 0.2294761985552879	0.137937
H	0.5675710964465721 0.1632190981240088 0.3381319653839931	0.142006
H	0.6679577008840949 0.1094121580705467 0.2531332508750004	0.150348
H	0.5536989498902626 0.1072663602151999 0.1379167543454445	0.131412
H	0.5266834459244760 0.3379167871043788 0.2443871631603124	0.268090
H	0.2139685508421207 0.6836059699431923 0.5454670230238353	0.145267
H	0.1266700364091280 0.7162673710764647 0.6828467479019728	0.139532
H	0.1429342183891455 0.5941759250149046 0.6307914055138790	0.130203
H	0.1791948110565801 0.9506739605342467 0.7665527729177758	0.142748
H	0.2825835650168447 0.8779722956854458 0.8163660368436300	0.129373
H	0.2623590489582225 0.9811536966166230 0.9383871694016260	0.132093
H	0.3536199317265928 0.5602953113163989 0.7047885217070041	0.275903
H	0.3708345219095499 0.6368838254944091 0.3163902867577707	0.139176
H	0.3541910203335332 0.7591553599798556 0.2593246366280504	0.126550
H	0.4640705106282935 0.6997448369233850 0.2287296316670235	0.137743
H	0.0648863281259652 0.6614546717413567 0.3396958425139061	0.141253
H	0.1657780259013396 0.6080993223945047 0.2565110042646059	0.149844
H	0.0519617758434082 0.6056945069247637 0.1395782986014893	0.132084
H	0.0251752630370277 0.8365297064266299 0.2480593368967983	0.268737
H	0.2809763926802609 0.1823384886827253 0.4575655658981489	0.144011
H	0.3656326032976112 0.2247322982912417 0.3228102168247792	0.140500
H	0.3575375228080182 0.1006671754865400 0.3669503219603025	0.129667
H	0.3174800195214744 0.4553465025451571 0.2260034558218084	0.144631
H	0.2200906691024587 0.3736613174340006 0.1896527771176113	0.130246
H	0.2297776578140194 0.4731444718662807 0.0538437860896003	0.131515
H	0.1416508516770654 0.0652714769372384 0.2991658049257285	0.275656
H	0.1257619809480829 0.1397360739942139 0.6844660562161122	0.137804
H	0.1474848353996605 0.2615177981852118 0.7405420251096588	0.125428
H	0.0348888881621325 0.2067578223762633 0.7708286069811751	0.138473
H	0.4370494852218715 0.1652572627888900 0.6604486727287370	0.142391
H	0.3341173278647773 0.1106785076659812 0.7364574492134450	0.150469
H	0.4467460129808681 0.1039519781748763 0.8566816220347306	0.131316
H	0.4783132807744084 0.3354245026505620 0.7594412731807961	0.269453
H	0.7808730402751468 0.6809827626150796 0.4572616018567285	0.144598
H	0.8662152332017505 0.7232263560479489 0.3231638666161546	0.140489
H	0.8573149439412029 0.5990902440111036 0.3667702003934586	0.129945
H	0.8193563595592768 0.9535650324774338 0.2256916168041158	0.144435
H	0.7222661013324186 0.8714615890699957 0.1899524593061190	0.131279
H	0.7312916759938975 0.9712305861816597 0.0539729130489459	0.131982
H	0.6410104627915381 0.5653780678535996 0.2981306349265449	0.276079
H	0.6267264227775990 0.6387271680015224 0.6831714262637590	0.137668
H	0.6499834519682096 0.7601291926926962 0.7387107637519981	0.125551
H	0.5367452402581478 0.7070989978455245 0.7687021647119654	0.137034
H	0.9382736932326521 0.6635614063695817 0.6592167887980074	0.141885
H	0.8357833538869374 0.6089605800966316 0.7355095530935184	0.151148
H	0.9486848085651937 0.6023094244144812 0.8550404055799283	0.131385
H	0.9789607404953203 0.8338715558460893 0.7566292238056518	0.268106
N	0.8341238673561464 0.0990040107702236 0.8056932879519793	-0.149894
N	0.6043193799870897 0.3969024786644424 0.0642436827410624	-0.270897
N	0.8906508091732024 0.1050280695288881 0.9527446092362689	-0.268335
N	0.5753190401642019 0.3241489813561020 0.1598206144044065	-0.146206
N	0.3318812518478526 0.5986386750375836 0.8052916892214721	-0.148276
N	0.1027585088573150 0.8955700382346941 0.0681353397480842	-0.270925
N	0.3890535655011574 0.6045388680819488 0.9517355393770830	-0.270338
N	0.0736260697233721 0.8227421839878720 0.1632118546989402	-0.145086
N	0.1631529949712105 0.1038805777477108 0.1979884043707170	-0.150639
N	0.4002243817805969 0.3940107204281788 0.9390777698799391	-0.268986
N	0.1067451377855258 0.1089447946866000 0.0504374742501068	-0.270288
N	0.4298014694013519 0.3215271238793575 0.8444001432181516	-0.147694
N	0.6627573832025113 0.6040042404117566 0.1973884041929952	-0.150433
N	0.9018481860496168 0.8922099509292629 0.9381234033762339	-0.269432
N	0.6068736859030993 0.6089983280667086 0.0494557025454777	-0.269383
N	0.9314545785604690 0.8197861806969842 0.8434684444591747	-0.144731
Ga	0.4995559245139538 0.4754763649533961 0.5019701700166486	1.454496
Ga	-0.0002245485985344 0.9769191467680257 0.5030760599890720	1.454768
Co	0.4986522596628122 0.5063691742014026 -0.0000665179094674	0.848047
Co	-0.0000406029145912 0.0068587329290256 0.0022560369015560	0.843546
	  	
