#======================================================================

# CRYSTAL DATA

#----------------------------------------------------------------------

data_VESTA_phase_1


_pd_phase_name                         GaFFIVE_2_Ni_i
_cell_length_a                         13.86089
_cell_length_b                         13.86092
_cell_length_c                         8.10292
_cell_angle_alpha                      89.99991
_cell_angle_beta                       90.00053
_cell_angle_gamma                      89.85610
_symmetry_space_group_name_H-M         P 1
_symmetry_Int_Tables_number            1

loop_
_symmetry_equiv_pos_as_xyz
   x, y, z

loop_
   _atom_site_label
   _atom_site_fract_x
   _atom_site_fract_y
   _atom_site_fract_z
   _atom_site_charge
C	0.0002714142350065 0.3020695134248232 0.3512744475768150	-0.158992
C	0.0001879054790921 0.2020177208631554 0.3569072780468447	0.095845
C	0.5002687086962589 0.8020584686884830 0.8512846061097530	-0.159044
C	0.5001871869955627 0.7020065050414298 0.8569045888039107	0.095968
C	0.0000192942283532 0.6985922728016973 0.3511894689925266	-0.163162
C	-0.0002695463391212 0.7986415683157727 0.3570158308038464	0.104302
C	0.5000092735527480 0.1986167627710769 0.8511966828798199	-0.163009
C	0.4997193445111400 0.2986701910175260 0.8570057087963655	0.104116
C	0.6985927706364876 0.0000202176445474 0.3511860804748231	-0.163337
C	0.7986418596984932 -0.0002690268613758 0.3570162810577615	0.104356
C	0.1986161846347516 0.5000099695263492 0.8511950340952364	-0.163077
C	0.2986686031119798 0.4997195664035327 0.8570093070753826	0.104154
C	0.3020703353632075 0.0002718860984604 0.3512750858897651	-0.159016
C	0.2020174564821620 0.0001879131625973 0.3569036820176337	0.095836
C	0.8020574700891822 0.5002691677390515 0.8512877610977104	-0.158837
C	0.7020043136001556 0.5001877860670779 0.8569023205157215	0.095823
C	0.0002713518962092 0.3020695225276681 0.6487275856711611	-0.159021
C	0.0001877011707228 0.2020181794881536 0.6430942093113093	0.095803
C	0.5002691665413049 0.8020601873227757 0.1487095857155455	-0.158954
C	0.5001873421984144 0.7020056743212578 0.1430990947272378	0.095827
C	0.0000195033648694 0.6985920588029199 0.6488094552947207	-0.163174
C	-0.0002693329152004 0.7986416394368232 0.6429857900473052	0.104289
C	0.5000091501954952 0.1986186507514657 0.1488075126300946	-0.163155
C	0.4997193698077682 0.2986695448573122 0.1429912310044602	0.104216
C	0.3020693659755210 0.0002720926868636 0.6487283081640873	-0.159026
C	0.2020183735624008 0.0001882569356573 0.6430908833982597	0.095813
C	0.8020582445283094 0.5002692760037190 0.1487140396898960	-0.158929
C	0.7020052560232040 0.5001874903018182 0.1430970765949459	0.095836
C	0.6985920341250400 0.0000200687608960 0.6488067612402700	-0.163099
C	0.7986422195898737 -0.0002689035711408 0.6429871243476646	0.104294
C	0.1986169885264019 0.5000100005338782 0.1488070025812978	-0.163005
C	0.2986699595773027 0.4997195558910313 0.1429956854866782	0.104099
C	0.0003708651046111 0.4563413787549287 0.5000004252024954	-0.091617
C	0.0003892277670250 0.3543496297806760 0.5000000959617282	0.158921
C	0.5003754623334343 0.9563304453436999 -0.0000018498543668	-0.091084
C	0.5003876135780653 0.8543366541286146 0.0000024883807751	0.158746
C	0.0004324867549289 0.5442949246064336 0.5000003021202978	-0.099442
C	0.0003450007542925 0.6462972147735211 0.5000001331068649	0.163478
C	0.5004425096903824 0.0442989892950424 0.0000019713438159	-0.100167
C	0.5003394768492377 0.1463189794820794 -0.0000009972916286	0.163475
C	0.5442966619192455 0.0004339279104091 0.4999966892418517	-0.099584
C	0.6462976563393527 0.0003460301989534 0.4999983680578878	0.163457
C	0.0442975747650638 0.5004437044218423 0.0000007823050591	-0.100342
C	0.1463182965080820 0.5003405020187321 0.0000018899779372	0.163517
C	0.4563405817930999 0.0003713488103497 0.5000012451607031	-0.091446
C	0.3543502398683473 0.0003901628878272 0.4999988583758140	0.158894
C	0.9563294499216062 0.5003765320185874 0.0000012974472516	-0.090910
C	0.8543352282686908 0.5003882856522519 -0.0000010401911879	0.158620
H	-0.0001615521296448 0.3391352208970992 0.2329158220556956	0.118439
H	-0.0011537922507639 0.1600369980888411 0.2434695395927037	0.098210
H	0.4998423049191382 0.8391437540731242 0.7329512347428143	0.118422
H	0.4988429469739742 0.6600714000749327 0.7434125422341312	0.098221
H	-0.0003656077989362 0.6612305060265596 0.2331001030786986	0.118865
H	-0.0017969733168536 0.8414600336443576 0.2445298748409506	0.092830
H	0.4996319124649330 0.1612284992880939 0.7331387512553587	0.118844
H	0.4981886266277444 0.3414447047416531 0.7444967762607029	0.092872
H	0.6612300017210744 -0.0003645350589280 0.2330983308972784	0.118975
H	0.8414601323422009 -0.0017965746654441 0.2445267634482309	0.092848
H	0.1612274999497441 0.4996319786289177 0.7331388520410195	0.118849
H	0.3414428309427386 0.4981862097006853 0.7444952418941584	0.092914
H	0.3391361188118991 -0.0001610379996075 0.2329151085119741	0.118417
H	0.1600363029241332 -0.0011538128763718 0.2434687757662043	0.098251
H	0.8391427596998893 0.4998422473859146 0.7329516767032035	0.118355
H	0.6600678220301224 0.4988414924691002 0.7434170226136998	0.098252
H	-0.0001615475560007 0.3391358395474441 0.7670855305414547	0.118436
H	-0.0011539505826716 0.1600371346999318 0.7565333222373567	0.098254
H	0.4998424630510876 0.8391442349078817 0.2670484779609877	0.118389
H	0.4988437211186098 0.6600713975190060 0.2565814987049970	0.098270
H	-0.0003653689119375 0.6612303920954409 0.7668992948931210	0.118851
H	-0.0017965066760161 0.8414597925032173 0.7554694120127946	0.092850
H	0.4996320960017340 0.1612300922705930 0.2668623450553269	0.118897
H	0.4981878724273480 0.3414451973270635 0.2555069978008150	0.092872
H	0.3391364370030461 -0.0001609037240659 0.7670855333904709	0.118414
H	0.1600371043782866 -0.0011536497952634 0.7565323151225246	0.098266
H	0.8391442461230106 0.4998422443300069 0.2670478871428775	0.118377
H	0.6600699225381652 0.4988406219595313 0.2565844823292536	0.098252
H	0.6612306131505891 -0.0003649677643647 0.7668970740062842	0.118833
H	0.8414612877927292 -0.0017970713534679 0.7554686164075931	0.092826
H	0.1612290775709562 0.4996323189971515 0.2668633847223615	0.118858
H	0.3414445442359815 0.4981855955372040 0.2555084353067088	0.092913
Ni	0.0005625786299252 0.0005627533930708 0.5000000749006168	0.757387
Ni	0.5005742827036673 0.5005762763767446 -0.0000001272561477	0.757310
Ga	-0.0007073914267239 -0.0007080557754277 -0.0000000712435015	1.444651
Ga	0.4993305530968888 0.4993227531356975 0.4999986193904488	1.444893
N	0.0002342478230444 0.1522923298624350 0.5000017357731144	-0.231128
N	0.5002338628859928 0.6522777163101097 -0.0000043230343810	-0.231140
N	-0.0000606442454255 0.8484242319932769 0.4999993429777876	-0.227953
N	0.4999311160980366 0.3484389436001637 0.0000025520353385	-0.227745
N	0.8484245277582152 -0.0000605658852522 0.4999980446340791	-0.227979
N	0.3484379503154155 0.4999313723988414 0.0000013601474528	-0.227780
N	0.1522918873267426 0.0002344984117635 0.5000012385147590	-0.231100
N	0.6522760138086805 0.5002348117332992 0.0000011763450257	-0.231062
F	0.0003982233529081 0.0004070882035915 0.7556882668894609	-0.553870
F	0.5004328511845618 0.5004207142523384 0.2555796416464131	-0.553914
F	0.0004052384405131 0.0003964100741533 0.2443126535418746	-0.553910
F	0.5004182053452737 0.5004325938553804 0.7444204099365572	-0.553916
F	0.6258800163867623 0.4633893428792675 0.5000177435114701	-0.550052
F	0.4634942311538644 0.6258974351256801 0.4999958767388024	-0.550100
F	0.4065957609425327 0.4066605188645998 0.4999781236242982	-0.563909
F	0.9066465070400425 0.9066491047601700 0.0000051792403535	-0.563970
F	0.9633975477346707 0.1257712668642675 0.0000128319610470	-0.550055
F	0.1257714837095499 0.9633905812503472 -0.0000174683307472	-0.550042
	  	
