#======================================================================

# CRYSTAL DATA

#----------------------------------------------------------------------

data_VESTA_phase_1


_pd_phase_name                         GaFFIVE_2_Cd_i
_cell_length_a                         14.33158
_cell_length_b                         14.33147
_cell_length_c                         8.32533
_cell_angle_alpha                      90.00007
_cell_angle_beta                       90.00019
_cell_angle_gamma                      89.82053
_symmetry_space_group_name_H-M         P 1
_symmetry_Int_Tables_number            1

loop_
_symmetry_equiv_pos_as_xyz
   x, y, z

loop_
   _atom_site_label
   _atom_site_fract_x
   _atom_site_fract_y
   _atom_site_fract_z
   _atom_site_charge
C	0.0000691715191574 0.3087503233429036 0.3546451409022995	-0.160929
C	-0.0002690489857376 0.2118482364063047 0.3600333960063747	0.098074
C	0.5000689722059578 0.8087583111268226 0.8546619799005797	-0.160631
C	0.4997301539126843 0.7118699042075118 0.8600574018615410	0.097788
C	-0.0001113361111795 0.6918270418083000 0.3546279138645476	-0.163539
C	-0.0005676454958640 0.7887179123982250 0.3603095067697665	0.104430
C	0.4998791009840955 0.1918362050985756 0.8546416245763203	-0.163451
C	0.4994208837071778 0.2887162944387545 0.8603284669657715	0.104152
C	0.6918290961397467 -0.0001126313859450 0.3546272927829802	-0.163437
C	0.7887208554627435 -0.0005684016456924 0.3603089622393809	0.104367
C	0.1918364554370367 0.4998776195429255 0.8546420005725914	-0.163358
C	0.2887157520658155 0.4994186597710490 0.8603281859870037	0.104138
C	0.3087528550272265 0.0000680478573737 0.3546464886982754	-0.160821
C	0.2118505784828198 -0.0002702462869695 0.3600362308533082	0.097855
C	0.8087583810052842 0.5000668922553009 0.8546630245071984	-0.160684
C	0.7118704181565180 0.4997281663259836 0.8600580865871558	0.097845
C	0.0000692495407924 0.3087503646258635 0.6453534049158663	-0.160966
C	-0.0002689258838122 0.2118483544171074 0.6399645772307193	0.098104
C	0.5000688952771531 0.8087588700466480 0.1453384531004658	-0.160607
C	0.4997303004783171 0.7118705228077040 0.1399434720042745	0.097810
C	-0.0001112943983938 0.6918276248074252 0.6453730281460721	-0.163567
C	-0.0005676263021487 0.7887185024542315 0.6396894645436313	0.104405
C	0.4998792340423894 0.1918359783766604 0.1453590784441723	-0.163490
C	0.4994209180224866 0.2887159833372649 0.1396730689050706	0.104298
C	0.3087532102441224 0.0000680196233952 0.6453536383737610	-0.160877
C	0.2118517349971087 -0.0002706509206700 0.6399649453841612	0.097926
C	0.8087594584526034 0.5000667248235325 0.1453393154624540	-0.160678
C	0.7118714811065623 0.4997279892094265 0.1399450692145209	0.097788
C	0.6918299801540844 -0.0001127529721813 0.6453735444445144	-0.163399
C	0.7887217266591607 -0.0005687203282365 0.6396897977949805	0.104375
C	0.1918364653340197 0.4998773912292408 0.1453589590062927	-0.163276
C	0.2887159069712784 0.4994182285306313 0.1396740712659532	0.104159
C	0.0004307927132239 0.4577282929299920 0.4999994867101188	-0.091246
C	0.0003236518342582 0.3590228921804451 0.4999991174432225	0.162141
C	0.5004317716292284 0.9577241119852001 -0.0000003237856175	-0.090791
C	0.5003265325602531 0.8590368880456598 -0.0000002394250363	0.161589
C	0.0004494461615592 0.5428275210776097 0.5000001418735722	-0.102223
C	0.0002469171313607 0.6415257936289102 0.5000001514339285	0.165658
C	0.5004458313438377 0.0428457296398424 -0.0000002096570245	-0.102335
C	0.5002407835869451 0.1415242980595724 0.0000001676960022	0.165523
C	0.5428301885255142 0.0004469180574181 0.4999999469972707	-0.102503
C	0.6415298419610462 0.0002452786822146 0.4999996817305696	0.165482
C	0.0428454359722984 0.5004449624579096 -0.0000003785230111	-0.102557
C	0.1415251966159717 0.5002397689960671 0.0000001420672444	0.165387
C	0.4577307929667666 0.0004292687266053 0.5000001347239335	-0.090848
C	0.3590251020157915 0.0003235661807100 0.4999997463170605	0.161970
C	0.9577243910301563 0.5004297675686998 0.0000005510770141	-0.090581
C	0.8590358429444532 0.5003248476992826 0.0000009245012430	0.161635
H	-0.0001974376948895 0.3449550309538460 0.2395956856774503	0.119717
H	-0.0015164135917253 0.1704034008448876 0.2498103647948735	0.103125
H	0.4998050722177133 0.8449476830310068 0.7396116052501689	0.119767
H	0.4984867592915669 0.6704311773747469 0.7498513463902736	0.103144
H	-0.0003423725860179 0.6554562789806737 0.2397415103313205	0.119558
H	-0.0018642623729073 0.8308178717965174 0.2510415091104913	0.098515
H	0.4996505717152295 0.1554735806027792 0.7397510636724749	0.119543
H	0.4981232068864277 0.3308165612323237 0.7510744205116654	0.098592
H	0.6554599611944125 -0.0003443326752238 0.2397412556069494	0.119546
H	0.8308201199033898 -0.0018653398567343 0.2510422772931685	0.098497
H	0.1554748914392458 0.4996487392433910 0.7397503064042573	0.119527
H	0.3308160774746126 0.4981191096341465 0.7510740734633266	0.098611
H	0.3449563357220191 -0.0001991178151917 0.2395965861360205	0.119759
H	0.1704054937053639 -0.0015187146719557 0.2498112452016921	0.103171
H	0.8449481301646387 0.4998033767412403 0.7396134755344603	0.119780
H	0.6704309546364063 0.4984845617311406 0.7498527350107084	0.103117
H	-0.0001973342319640 0.3449548880099860 0.7604029781844338	0.119733
H	-0.0015162409579497 0.1704034697222337 0.7501876458903176	0.103107
H	0.4998049208009375 0.8449487006541224 0.2603881018197182	0.119768
H	0.4984871132923585 0.6704319892462387 0.2501497916809426	0.103105
H	-0.0003423706036309 0.6554566426262355 0.7602578959604559	0.119553
H	-0.0018642479884634 0.8308180974520101 0.7489572635549526	0.098530
H	0.4996506327724857 0.1554728741915125 0.2602489413468514	0.119529
H	0.4981225293326954 0.3308159510425292 0.2489275673722728	0.098570
H	0.3449566083707921 -0.0001992140880358 0.7604032974311064	0.119756
H	0.1704058846198445 -0.0015187980167027 0.7501876654635115	0.103165
H	0.8449499807452929 0.4998031269733241 0.2603885903991675	0.119775
H	0.6704326346463976 0.4984844178395602 0.2501503028525638	0.103137
H	0.6554609250953441 -0.0003443789952522 0.7602574556265814	0.119523
H	0.8308212366981579 -0.0018654843632547 0.7489568152961731	0.098500
H	0.1554745705993856 0.4996484435788850 0.2602498184037244	0.119510
H	0.3308159632907652 0.4981179767862934 0.2489293068014877	0.098592
Cd	0.0007085295509325 0.0007074521778866 0.4999981911011782	0.822751
Cd	0.5007155252164165 0.5007176108740100 0.0000037185896260	0.822342
Ga	0.0001256954302517 0.0001209119266075 -0.0000027082151403	1.460160
Ga	0.5001495101143483 0.5001792761725309 0.5000012379212730	1.460540
N	-0.0002874314630000 0.1645624154485710 0.4999989932168664	-0.235817
N	0.4997109511459917 0.6645708791480714 0.0000008513298737	-0.235598
N	-0.0005151640869808 0.8360978792074406 0.4999993242119817	-0.234580
N	0.4994752413240484 0.3361041588098548 0.0000006654724705	-0.234443
N	0.8361008820702898 -0.0005148534451269 0.4999997801213180	-0.234483
N	0.3361034129420866 0.4994725812084790 0.0000015627349807	-0.234453
N	0.1645650922493389 -0.0002888879712830 0.4999995793232445	-0.235730
N	0.6645718258888285 0.4997084975064172 0.0000015806685476	-0.235587
F	0.0001887897580667 0.0001755586121867 0.7680153317360253	-0.562372
F	0.5001808078194427 0.5001948535293184 0.2679426466021388	-0.561991
F	0.0001939144617071 0.0001751831349110 0.2319794595053963	-0.562390
F	0.5001768440422750 0.5001952316214223 0.7320599892319136	-0.562056
F	0.6242161700972928 0.4667640843740494 0.5000064041719657	-0.583669
F	0.4667718221073352 0.6242553405640653 0.4999998352349354	-0.583717
F	0.4095893439289514 0.4096844448155719 0.4999946813971844	-0.595069
F	0.9096600247958132 0.9096634659296469 -0.0000025436928418	-0.594906
F	0.9666330542452745 0.1240872793684261 -0.0000032138584808	-0.583421
F	0.1240873835714952 0.9666233589340691 -0.0000068227704918	-0.583438
	  	
