#======================================================================

# CRYSTAL DATA

#----------------------------------------------------------------------

data_VESTA_phase_1


_pd_phase_name                         GaFFIVE_1_Cd
_cell_length_a                         11.76593
_cell_length_b                         11.76605
_cell_length_c                         8.31885
_cell_angle_alpha                      91.07869
_cell_angle_beta                       88.91026
_cell_angle_gamma                      89.71258
_symmetry_space_group_name_H-M         P 1
_symmetry_Int_Tables_number            1

loop_
_symmetry_equiv_pos_as_xyz
   x, y, z

loop_
   _atom_site_label
   _atom_site_fract_x
   _atom_site_fract_y
   _atom_site_fract_z
   _atom_site_charge
C	0.2456552420471713 0.4660721393960905 0.3633944862271926	0.100881
C	0.1274382563517245 0.4647867355629632 0.3603879100721900	-0.170829
C	0.7597477496465640 0.5227360024928193 0.3665176409573681	0.099007
C	0.8779385235352597 0.5247782580984875 0.3612844622583574	-0.171881
C	0.5310957573328324 0.2426976921766085 0.3711956260712744	0.100973
C	0.5324962789107599 0.1245240473272161 0.3653672686158630	-0.171952
C	0.4745526985704918 0.7573892278189130 0.3636951441867950	0.098945
C	0.4729270648263022 0.8756243769878174 0.3609230453212764	-0.172867
C	0.7573953472047527 0.4745237628681287 0.6363323329089207	0.098836
C	0.8756336576089703 0.4728902694934071 0.6390665239944293	-0.172974
C	0.2426853423085407 0.5310512716946602 0.6287477614460679	0.100637
C	0.1245139934258613 0.5324581940889880 0.6345723569982883	-0.172059
C	0.4660936964093062 0.2456282724655932 0.6365515035313843	0.100452
C	0.4648017789753858 0.1274144125774131 0.6395589194043971	-0.170661
C	0.5227491595045083 0.7597471396538267 0.6335073782783318	0.098980
C	0.5248030591039460 0.8779339437386506 0.6387049243186742	-0.171789
C	0.0642076964816742 0.4986884970574516 0.4980908729348264	0.101004
C	0.9385749754620122 0.4988067752760050 0.4995603549416649	0.097015
C	0.4987178488906669 0.0642007074181088 0.5018530266708653	0.101268
C	0.4988415175885186 0.9385662696441174 0.5004087686966965	0.096752
H	0.2975666931413973 0.4405756819083648 0.2581536357596753	0.101442
H	0.0850319300775998 0.4356201908740122 0.2519066759622230	0.119011
H	0.7099076124106405 0.5387941626730565 0.2598245897862190	0.099475
H	0.9223068246977064 0.5478615150940511 0.2505852468662002	0.117746
H	0.5556907266858222 0.2929004043466379 0.2671497698800019	0.096358
H	0.5613659445789533 0.0798770492537933 0.2560883013984716	0.117647
H	0.4572852007993620 0.7063993600733327 0.2556163677211456	0.105699
H	0.4497086701516376 0.9180843452549462 0.2508135103324636	0.119516
H	0.7064071989088435 0.4572484412387364 0.7444319298948280	0.105559
H	0.9180979112974332 0.4496731628443091 0.7491681282419260	0.119580
H	0.2928752363784564 0.5556377816676334 0.7327837742593241	0.096567
H	0.0798490949614976 0.5613233910794011 0.7438475596279930	0.117679
H	0.4405857382461468 0.2975305112451636 0.7417791687330264	0.101421
H	0.4356268848911885 0.0849919420786555 0.7480461078174737	0.118827
H	0.5387878114329027 0.7099100682063306 0.7402206110851938	0.099416
H	0.5478804600261331 0.9222990268192015 0.7493944035758680	0.117772
Cd	0.5015567952740330 0.5015592128068310 0.5000710342564227	0.821508
Ga	0.4996191353562311 0.4997096619940834 0.0000666081038684	1.468705
F	0.4979797018840218 0.5034244580651537 0.7681224114062526	-0.565659
F	0.5034250080363422 0.4981631273986313 0.2320078801465554	-0.565745
F	0.3893863932192438 0.3896625024990439 0.0002550622568944	-0.599159
F	0.6505511609315645 0.4576549526839310 -0.0077625319626528	-0.594226
F	0.4576729386762861 0.6506802273525070 0.0077174993918622	-0.594261
N	0.3019177369472495 0.4987920172663296 0.4956938647931283	-0.233634
N	0.7009276435078932 0.4986800604408140 0.5017699154460680	-0.238661
N	0.4988301483466654 0.3019104685076683 0.5042561637612649	-0.233496
N	0.4986997729494835 0.7009283414901053 0.4982721636234390	-0.238823
	  	
