#======================================================================

# CRYSTAL DATA

#----------------------------------------------------------------------

data_VESTA_phase_1


_pd_phase_name                         GaFFIVE_5_Cu_i
_cell_length_a                         19.73808
_cell_length_b                         19.73808
_cell_length_c                         16.15783
_cell_angle_alpha                      89.99997
_cell_angle_beta                       90.00036
_cell_angle_gamma                      89.98359
_symmetry_space_group_name_H-M         P 1
_symmetry_Int_Tables_number            1

loop_
_symmetry_equiv_pos_as_xyz
   x, y, z

loop_
   _atom_site_label
   _atom_site_fract_x
   _atom_site_fract_y
   _atom_site_fract_z
   _atom_site_charge
F	0.2896693071231115 0.1637495283351408 0.3521725749906394	-0.599214
F	0.1586440865369093 0.2633874466201887 0.3510003931762134	-0.609673
F	0.3107148504173740 0.3227002244576684 0.3510306660190830	-0.605296
F	0.6772943702275722 0.6892946221917839 0.1489445420660616	-0.605347
F	0.7366349632730027 0.8413668114450962 0.1490078350928595	-0.609658
F	0.8362504385534927 0.7103344664864689 0.1478312146719399	-0.599232
F	0.6586571650553156 0.7634469762853847 0.6489954014177897	-0.609592
F	0.7896257330518807 0.6637409645896036 0.6478374415731720	-0.599263
F	0.8107303739187369 0.8227023271056376 0.6489745101844443	-0.605329
F	0.1772995129995165 0.1892841742465504 0.8510516827834931	-0.605331
F	0.3362566957254347 0.2103736784002880 0.8521499211099540	-0.599221
F	0.2365208309162776 0.3413480721655520 0.8509850697625053	-0.609608
F	0.2498503472120760 0.2498417254017158 0.4687749540061076	-0.588617
F	0.2500652223049823 0.2488737429890168 0.2337761304204564	-0.587213
F	0.7501527392385805 0.7501472345667054 0.0312241842498903	-0.588711
F	0.7511377469072157 0.7499526996413786 0.2662170765210148	-0.587260
F	0.7498570371129490 0.7498529881442910 0.5312285586072103	-0.588646
F	0.7500535281465563 0.7488513629537649 0.7662278031368734	-0.587243
F	0.2501612442084257 0.2501586284703371 0.9687773720391819	-0.588700
F	0.2511390458551557 0.2499506991178196 0.7337830530023447	-0.587269
N	0.3532967091930985 0.2478124485909478 0.6006230666569043	-0.229114
N	0.1468033664517600 0.2528512090027407 0.6017392753113312	-0.226971
N	0.2522731036445347 0.3532588505143696 0.6012235827890500	-0.227769
N	0.2471494265181582 0.1467853554987654 0.6020931351513025	-0.227992
N	0.6467407735512023 0.7477253736300161 0.8987778248182077	-0.227752
N	0.8532151095622440 0.7528505913248462 0.8979084056029284	-0.228020
N	0.7471480248266583 0.8531952567122398 0.8982595204592352	-0.227092
N	0.7521885708758312 0.6467023657130305 0.8993789161064311	-0.229043
N	0.6468041678758264 0.7528515667026809 0.3982630233781234	-0.226843
N	0.8532977070104308 0.7478111335092710 0.3993760146512780	-0.229127
N	0.7471492106122550 0.6467850666944567 0.3979092349724184	-0.227928
N	0.7522745326458277 0.8532592726355400 0.3987771812525321	-0.227697
N	0.3532163393458143 0.2528511637101699 0.1020941774648361	-0.227916
N	0.1467415387955484 0.2477261654079267 0.1012228244533289	-0.227716
N	0.2521880888230831 0.1467033160265535 0.1006221824520767	-0.229034
N	0.2471481709891586 0.3531963022008486 0.1017399852781233	-0.227057
C	0.3864899178038321 0.2194028846390324 0.6646148164842722	0.099671
C	0.4568010166662767 0.2176706186457149 0.6680667357852413	-0.176035
C	0.4949920534003148 0.2472432931165846 0.6044059425283145	0.104292
C	0.4592877063108653 0.2768309200496099 0.5384536605725552	-0.181585
C	0.3888529120441110 0.2757566904362668 0.5381584802912298	0.101582
C	0.5695860901632206 0.2478895845313293 0.6075147556902533	0.055901
C	0.6058688299846305 0.1916011954127291 0.6370948447146830	-0.130872
C	0.6762836263719049 0.1923640456704588 0.6398680331981290	-0.125832
C	0.7127435261584554 0.2498509729056998 0.6144245296282042	0.068713
C	0.6764142535589025 0.3065487276231089 0.5862382869415039	-0.120500
C	0.6060570212049564 0.3053205891952322 0.5820669761789742	-0.127056
C	0.1135896825491947 0.2811818515267886 0.6657239657202558	0.103823
C	0.0433071858880987 0.2826984476024099 0.6694325451877297	-0.179253
C	0.0051127630244355 0.2528455480166463 0.6058337240316849	0.108258
C	0.0407947105613956 0.2236023616437086 0.5397388610549326	-0.179003
C	0.1111631408191636 0.2250794587543100 0.5393970970590722	0.107326
C	0.9305326912026879 0.2520353474687779 0.6086746489692231	0.054706
C	0.8941635428408650 0.3084275093458457 0.6377727805591166	-0.131445
C	0.8237480087435818 0.3077444474665381 0.6400441088790404	-0.124087
C	0.7873418717919363 0.2502406954612911 0.6145627781187676	0.068243
C	0.8237420910874018 0.1935333876157391 0.5864530590387353	-0.121321
C	0.8941311124682806 0.1946732731844953 0.5828064278821360	-0.124345
C	0.2805983221853367 0.3865191593249853 0.6651006075107062	0.107704
C	0.2824082166483564 0.4567877096136971 0.6685713590004527	-0.175726
C	0.2528628826066970 0.4949379468842677 0.6048246607271437	0.108323
C	0.2232537947798371 0.4592289504321663 0.5388864513572071	-0.181696
C	0.2243764936705580 0.3888571909355200 0.5388655264845876	0.104039
C	0.2521759947345553 0.5695078432469229 0.6077875737941679	0.054559
C	0.3084762712898162 0.6058022244674067 0.6372332879572017	-0.131368
C	0.3077131373391715 0.6762184154499730 0.6398837826360338	-0.125176
C	0.2501911370030264 0.7126681546492661 0.6144267936899465	0.069225
C	0.1935120128574407 0.6763137687275839 0.5862565269261298	-0.120759
C	0.1947363442898027 0.6059506216572783 0.5822308490760612	-0.125311
C	0.2188222608258621 0.1135989986725778 0.6662179613686178	0.100048
C	0.2173011201956744 0.0432594091763307 0.6696226147574776	-0.179978
C	0.2470707671607214 0.0050734874584761 0.6059667444163552	0.104591
C	0.2763328349168873 0.0408059355909901 0.5399507010550570	-0.179836
C	0.2749535928820776 0.1112178134872820 0.5395690609964809	0.098696
C	0.2479022686247072 0.9304655399305888 0.6087343718708165	0.055211
C	0.1915377567283280 0.8940822572259765 0.6378229643860507	-0.131151
C	0.1922350028206946 0.8236659643145902 0.6400417233488889	-0.124683
C	0.2497496125911126 0.7872670674761524 0.6145456085933254	0.067902
C	0.3064288532888728 0.8236620145895688 0.5864494026372654	-0.121278
C	0.3052700574798811 0.8940503024374499 0.5828339634194766	-0.124986
C	0.6134802147552186 0.7193994038325215 0.8349004618828677	0.107660
C	0.5432107459881371 0.7175902970284499 0.8314283990784800	-0.175712
C	0.5050614524128302 0.7471368593301618 0.8951742293850699	0.108237
C	0.5407706036392461 0.7767453928067217 0.9611134644423546	-0.181660
C	0.6111422131920744 0.7756220789962910 0.9611351028223273	0.104001
C	0.4304914070752439 0.7478236843865990 0.8922110594188269	0.054532
C	0.3941976738494281 0.6915233284380811 0.8627658072360531	-0.131389
C	0.3237814379007803 0.6922859540906372 0.8601161075089331	-0.125149
C	0.2873314156257211 0.7498079357344524 0.8855732637965559	0.069216
C	0.3236862789299625 0.8064875749132459 0.9137423617342126	-0.120851
C	0.3940492172719097 0.8052631714343846 0.9177678028611670	-0.125251
C	0.8864002932435429 0.7811783525891990 0.8337823661628392	0.100068
C	0.9567401615662343 0.7826982561816064 0.8303772841785546	-0.179964
C	0.9949269023294594 0.7529279349084945 0.8940330220019037	0.104549
C	0.9591950153868745 0.7236657194057083 0.9600497601355421	-0.179753
C	0.8887828798449416 0.7250450759617364 0.9604323001645751	0.098663
C	0.0695345460202563 0.7520965076301130 0.8912648837844039	0.055191
C	0.1059167764776625 0.8084612739737254 0.8621763115490315	-0.131127
C	0.1763329977964472 0.8077644490100631 0.8599573400772859	-0.124694
C	0.2127323161729523 0.7502496595759575 0.8854535933880433	0.067956
C	0.1763373449825908 0.6935701465716767 0.9135499810913489	-0.121297
C	0.1059491775253615 0.6947287966038095 0.9171655235200021	-0.124920
C	0.7188171974539770 0.8864092669642899 0.8342741906485086	0.103889
C	0.7173004359015525 0.9566920457486686 0.8305646160529703	-0.179261
C	0.7471540900878230 0.9948865137532839 0.8941637353224342	0.108178
C	0.7763974982847966 0.9592039355399098 0.9602585531028043	-0.179005
C	0.7749204489444987 0.8888356228692205 0.9606009605423353	0.107363
C	0.7479637506130917 0.0694663420334523 0.8913233771980767	0.054872
C	0.6915714211972279 0.1058352250265960 0.8622267179601467	-0.131375
C	0.6922544545014849 0.1762509729648478 0.8599553072322912	-0.124242
C	0.7497587467860143 0.2126568721465550 0.8854365218456223	0.068309
C	0.8064660029187904 0.1762563023046690 0.9135465061853815	-0.121449
C	0.8053257535738928 0.1058671044878165 0.9171924521609606	-0.124318
C	0.7805981570953867 0.6135092667581324 0.8353871967870884	0.099670
C	0.7823291975630807 0.5431977471523225 0.8319351720993408	-0.176089
C	0.7527555400717176 0.5050065413721740 0.8955948920679739	0.104327
C	0.7231686313972115 0.5407105285148032 0.9615474458884182	-0.181629
C	0.7242437037373018 0.6111461553406260 0.9618430583408908	0.101628
C	0.7521097930720090 0.4304132783343292 0.8924854965293739	0.055856
C	0.8083976764976165 0.3941308355504807 0.8629051682377730	-0.130785
C	0.8076352409712499 0.3237165335595422 0.8601315693230283	-0.125900
C	0.7501482532389356 0.2872553521511390 0.8855750693607499	0.068673
C	0.6934509050097348 0.3235855652418765 0.9137612506258629	-0.120528
C	0.6946790063672497 0.3939420004979424 0.9179327620584472	-0.126936
C	0.6135900028612852 0.7811816094803586 0.3342778869790308	0.103829
C	0.5433078177256024 0.7826978278729826 0.3305676182465496	-0.179309
C	0.5051132551887709 0.7528447944957342 0.3941665464611762	0.108203
C	0.5407957848091856 0.7236015125661839 0.4602617176731372	-0.178991
C	0.6111639348094233 0.7250792090983423 0.4606044063493388	0.107179
C	0.4305330207047602 0.7520349636305912 0.3913250657196708	0.054750
C	0.3941640651956307 0.8084271028356554 0.3622271321241851	-0.131444
C	0.3237484144938995 0.8077444333356570 0.3599559487703751	-0.124098
C	0.2873421921911407 0.7502407350321458 0.3854373895279416	0.068258
C	0.3237427349054968 0.6935332718247647 0.4135469752608774	-0.121390
C	0.3941317521625168 0.6946732490503236 0.4171934018927984	-0.124323
C	0.8864905050177353 0.7194013729188432 0.3353841691829089	0.099679
C	0.9568016559866558 0.7176697973653817 0.3319326700900161	-0.176000
C	0.9949929541780949 0.7472436012319744 0.3955931598764132	0.104296
C	0.9592891888097221 0.7768308795277272 0.4615458704757776	-0.181607
C	0.8888543720891037 0.7757559403830575 0.4618404144965055	0.101662
C	0.0695869032807215 0.7478898302718374 0.3924847897664347	0.055920
C	0.1058689615088913 0.6916016061337559 0.3629046995513872	-0.130887
C	0.1762835676658501 0.6923641743127996 0.3601318967557887	-0.125841
C	0.2127437825279674 0.7498511511491414 0.3855757844575612	0.068750
C	0.1764143941379077 0.8065489112788947 0.4137618080198564	-0.120569
C	0.1060574570251040 0.8053205327012644 0.4179327330936340	-0.126967
C	0.7188218630472774 0.6135994750586993 0.3337828561046543	0.099989
C	0.7173011937909691 0.5432601818627169 0.3303770373529709	-0.179837
C	0.7470714644360472 0.5050731571874006 0.3940330979315708	0.104525
C	0.7763336416619595 0.5408052401010636 0.4600505466268121	-0.179720
C	0.7749539277520604 0.6112170827709316 0.4604336342588429	0.098526
C	0.7479030808212909 0.4304651650619453 0.3912649669170281	0.055088
C	0.6915380804720009 0.3940824615922784 0.3621766186425189	-0.131139
C	0.6922348970616471 0.3236660207195444 0.3599578971888804	-0.124614
C	0.7497494571807403 0.2872672023374256 0.3854538321276949	0.067850
C	0.8064292039505305 0.3236619640372263 0.4135502594709762	-0.121268
C	0.8052706736783369 0.3940501921257982 0.4171657080329936	-0.124891
C	0.7806002152617448 0.8865199832914507 0.3348996955058652	0.107573
C	0.7824090127789509 0.9567885324847479 0.3314288440170547	-0.175683
C	0.7528631894622744 0.9949383625388954 0.3951753028492961	0.108381
C	0.7232545017219770 0.9592289879467411 0.4611145080383936	-0.181667
C	0.7243780168037485 0.8888577121532345 0.4611352506000360	0.103947
C	0.7521767411979482 0.0695084769953127 0.3922127635162744	0.054483
C	0.8084767301294963 0.1058025155610670 0.3627670972269454	-0.131425
C	0.8077134864924772 0.1762187692383828 0.3601164795088193	-0.125102
C	0.7501914333338975 0.2126683372965065 0.3855729106818218	0.069254
C	0.6935122784129233 0.1763137517771503 0.4137428007150552	-0.120771
C	0.6947373480484068 0.1059506440019485 0.4177687897327921	-0.125335
C	0.3864028160782595 0.2811793821316930 0.1662183717084560	0.099929
C	0.4567423193271835 0.2826998858928693 0.1696242246092063	-0.179814
C	0.4949281192847347 0.2529288783166352 0.1059673109306839	0.104557
C	0.4591957450256791 0.2236666842145301 0.0399500451684407	-0.179745
C	0.3887833918306276 0.2250459462184373 0.0395680024985303	0.098593
C	0.5695353256120492 0.2520973054886969 0.1087359700702589	0.055104
C	0.6059180693750514 0.3084616189658607 0.1378242306737969	-0.131200
C	0.6763346755560271 0.3077649748810499 0.1400421368555166	-0.124631
C	0.7127330765366428 0.2502499677716878 0.1145452268600946	0.067898
C	0.6763379035311899 0.1935704722844238 0.0864492446391165	-0.121293
C	0.6059494923839538 0.1947294778735961 0.0828349448575281	-0.124929
C	0.1134815230081336 0.2193997277517709 0.1651003165428472	0.107608
C	0.0432118285336161 0.2175906463219197 0.1685708328886394	-0.175744
C	0.0050622196790602 0.2471371872655472 0.1048244669788696	0.108359
C	0.0407705251871839 0.2767457339353029 0.0388851180675050	-0.181674
C	0.1111427657115254 0.2756230905972681 0.0388641955936641	0.103999
C	0.9304923634761968 0.2478237330530185 0.1077879876544635	0.054573
C	0.8941985117505147 0.1915237475266506 0.1372329903009393	-0.131398
C	0.8237818596831443 0.1922864751190080 0.1398829666141187	-0.125175
C	0.7873316105303556 0.2498086235720121 0.1144261217967335	0.069155
C	0.8236861566375369 0.3064875815581926 0.0862563084683808	-0.120768
C	0.8940495446975054 0.3052633701403639 0.0822316027956494	-0.125302
C	0.2805975167765095 0.1135095973084820 0.1646143593189966	0.099573
C	0.2823287127644527 0.0431982477594567 0.1680661219848112	-0.176057
C	0.2527552505356080 0.0050070581498270 0.1044051970220569	0.104348
C	0.2231689610676894 0.0407114362117388 0.0384514347200631	-0.181747
C	0.2242436679492556 0.1111468893884671 0.0381562670604757	0.101665
C	0.2521097832066701 0.9304135653867734 0.1075138867524781	0.055937
C	0.3083978690497130 0.8941310285838766 0.1370941982678430	-0.130879
C	0.3076355453636933 0.8237163968348676 0.1398679738134224	-0.125803
C	0.2501486446338241 0.7872555320426691 0.1144242342730618	0.068768
C	0.1934509484469981 0.8235853319584548 0.0862380483882783	-0.120502
C	0.1946793117341878 0.8939424649434431 0.0820663497171728	-0.127071
C	0.2188166562716878 0.3864101308018127 0.1657247849044860	0.103881
C	0.2172999727985553 0.4566927867333795 0.1694340318761207	-0.179266
C	0.2471535738455115 0.4948871107897861 0.1058347327983325	0.108230
C	0.2763967284519151 0.4592050791897525 0.0397392459897822	-0.179026
C	0.2749198649324938 0.3888368970824705 0.0393978041052342	0.107369
C	0.2479640060267186 0.5694665425964280 0.1086755775056750	0.054728
C	0.1915723214747760 0.6058355080456808 0.1377731622983945	-0.131334
C	0.1922551473316387 0.6762514185753902 0.1400443209319313	-0.124088
C	0.2497587655404988 0.7126575669376165 0.1145626618191406	0.068180
C	0.3064660412594492 0.6762570225921128 0.0864530350215916	-0.121332
C	0.3053254257232440 0.6058675617901549 0.0828069487504046	-0.124365
H	0.3555767052144507 0.1999030633431787 0.7153160288584410	0.106836
H	0.4814933675177175 0.1951760708989925 0.7218150485211751	0.116159
H	0.4861578460624660 0.2995442366408734 0.4864407179153037	0.115041
H	0.3594497598695816 0.2966304836470626 0.4868041942835971	0.104679
H	0.5783625824460474 0.1464529845222613 0.6567576957947264	0.100331
H	0.7036464954468433 0.1483353159947086 0.6633020577637120	0.101908
H	0.7038540955331092 0.3512930577186097 0.5651110394155565	0.102148
H	0.5787341538898469 0.3497735087289141 0.5599065690006070	0.103042
H	0.1451611404733746 0.3017315576156374 0.7150923016659392	0.101065
H	0.0185277560531128 0.3052659661012673 0.7230553637996642	0.114945
H	0.0139710954636510 0.2011643412631057 0.4874846098220527	0.116599
H	0.1406545802614733 0.2054943304418964 0.4876208419453844	0.103910
H	0.9216070218943638 0.3536561508883582 0.6572762365872086	0.100328
H	0.7963463064076777 0.3519317312816856 0.6630099681913877	0.102399
H	0.7963120898581117 0.1489019173796850 0.5649275960610116	0.102713
H	0.9214349314042051 0.1501980108071161 0.5606646571237257	0.103494
H	0.3000145367864758 0.3551665367434161 0.7152583336833774	0.103261
H	0.3046966309499969 0.4815175175977964 0.7224105724003159	0.116213
H	0.2006256289132758 0.4860848171156957 0.4867838860227503	0.115333
H	0.2035054669005803 0.3590511256782833 0.4880661378284478	0.102035
H	0.3536628043165993 0.5783154340136051 0.6568552762689742	0.099887
H	0.3517736968911176 0.7035932337726934 0.6632018583517133	0.102588
H	0.1487631082636299 0.7037611130247354 0.5650531274196745	0.102135
H	0.1502451711660518 0.5786553089264026 0.5601675219099997	0.103107
H	0.1984688218187174 0.1447052968356165 0.7163456720858024	0.104914
H	0.1946749276490535 0.0184673335881840 0.7231935586301301	0.115514
H	0.2989519222873597 0.0140201142359880 0.4877799966329970	0.116639
H	0.2947651841657791 0.1403322886101092 0.4873800860530830	0.107743
H	0.1463416036390915 0.9215593491600766 0.6574117831293662	0.100501
H	0.1480744807871453 0.7962710728640302 0.6630126286992305	0.101720
H	0.3510598652845642 0.7962280513794741 0.5649137386068579	0.102596
H	0.3497046614420561 0.9213751581911047 0.5606461198932932	0.103654
H	0.6448331731936489 0.6999821027744708 0.7847440188659336	0.103277
H	0.5184823724484221 0.6953027571752053 0.7775883642824279	0.116246
H	0.5139151517918056 0.7993741948747682 0.0132147981888877	0.115324
H	0.6409488483497950 0.7964943410754018 0.0119335572733863	0.102060
H	0.4216839444686469 0.6463365917722085 0.8431446747856437	0.099899
H	0.2964058762052373 0.6482253898547490 0.8367977684221132	0.102603
H	0.2962383046564977 0.8512361414543692 0.9349460945048387	0.102169
H	0.4213443138493057 0.8497543931493369 0.9398303328577906	0.103095
H	0.8552939879705025 0.8015327845566238 0.7836544162577015	0.104950
H	0.9815313117258677 0.8053241879396390 0.7768057084601162	0.115465
H	0.9859809089174226 0.7010467866685334 0.0122206261059678	0.116643
H	0.8596681267734697 0.7052320103573646 0.0126204242108244	0.107695
H	0.0784399499673235 0.8536574483004047 0.8425876232341023	0.100500
H	0.2037282390464986 0.8519247881225822 0.8369860421722016	0.101700
H	0.2037719559407498 0.6489390398130542 0.9350853081593664	0.102578
H	0.0786249021756129 0.6502942901039908 0.9393536752626732	0.103647
H	0.6982668095294091 0.8548379612545567 0.7849063042495690	0.101027
H	0.6947326995199459 0.9814715061027443 0.7769417944328765	0.114954
H	0.7988349988562604 0.9860265575000753 0.0125132106904322	0.116651
H	0.7945074790178740 0.8593444397118640 0.0123769376012393	0.103899
H	0.6463425681798216 0.0783924454166314 0.8427227325805018	0.100289
H	0.6480671848658126 0.2036530836721111 0.8369895771842593	0.102456
H	0.8510977756408561 0.2036862415512078 0.9350724178520319	0.102731
H	0.8498008106153047 0.0785637274076623 0.9393340937015565	0.103504
H	0.8000991165229224 0.6444232689843193 0.7846876294850740	0.106859
H	0.8048228682425105 0.5185068211210380 0.7781857580064921	0.116174
H	0.7004543723077281 0.5138412499177201 0.0135600607474194	0.115013
H	0.7033699577984610 0.6405500513895490 0.0131970239664044	0.104669
H	0.8535456480811572 0.4216374579258353 0.8432433734644516	0.100307
H	0.8516638029636580 0.2963532911023654 0.8366973705080193	0.101937
H	0.6487062362567316 0.2961444739549943 0.9348885131281193	0.102149
H	0.6502261383485700 0.4212641510207956 0.9400932005635281	0.102972
H	0.6451618900753984 0.8017301860474734 0.2849101778471137	0.101069
H	0.5185284385017422 0.8052647652160297 0.2769450422659117	0.114953
H	0.5139729703753053 0.7011639332503160 0.5125153492328109	0.116654
H	0.6406557040517562 0.7054922921453569 0.5123792133531548	0.103952
H	0.4216071785547296 0.8536562186470199 0.3427236418151202	0.100311
H	0.2963464211282221 0.8519321675559518 0.3369903657910852	0.102428
H	0.2963127882434142 0.6489016518444490 0.4350725185322965	0.102720
H	0.4214354024280416 0.6501976785647307 0.4393347189190611	0.103496
H	0.8555767831019871 0.6998999840177610 0.2846840738696058	0.106814
H	0.9814928196836497 0.6951761580287720 0.2781838819177436	0.116142
H	0.9861589386518227 0.7995445836232127 0.5135581767705214	0.115038
H	0.8594506622397833 0.7966292730324956 0.5131942118360223	0.104651
H	0.0783627343087918 0.6464532425370589 0.3432418760979006	0.100305
H	0.2036467833987619 0.6483357074134043 0.3366975832522734	0.101911
H	0.2038546495482201 0.8512933558488933 0.4348893166858037	0.102150
H	0.0787346604194988 0.8497737312617228 0.4400929480157725	0.103017
H	0.6984681591819585 0.6447063195790997 0.2836558706562296	0.104895
H	0.6946756565736468 0.5184692115509667 0.2768056122660936	0.115451
H	0.7989527024040545 0.5140194451070231 0.5122208292904826	0.116665
H	0.7947647106085763 0.6403317411025874 0.5126228586422498	0.107762
H	0.6463416172514177 0.4215597110945928 0.3425877367874480	0.100509
H	0.6480739978045544 0.2962711816089063 0.3369868821196423	0.101700
H	0.8510600328161187 0.2962271694442736 0.4350859787608753	0.102577
H	0.8497057582632398 0.4213744592615563 0.4393538335509569	0.103652
H	0.8000150935547483 0.8551683379225544 0.2847408556431854	0.103285
H	0.8046966052121849 0.9815179310191197 0.2775898525878914	0.116212
H	0.7006267577765163 0.9860841933194816 0.5132159982839700	0.115330
H	0.7035067800916085 0.8590511351192405 0.5119340201724066	0.102069
H	0.8536633394143149 0.0783159875915889 0.3431452156743097	0.099903
H	0.8517737281739108 0.2035941712643488 0.3367979119773549	0.102578
H	0.6487631678095173 0.2037612550051245 0.4349462663459494	0.102149
H	0.6502459665124806 0.0786550926395236 0.4398317749071730	0.103131
H	0.3552957768645719 0.3015334799934616 0.2163455745667684	0.104908
H	0.4815333482909886 0.3053255642982337 0.2231948927147795	0.115442
H	0.4859815770753689 0.2010480986677963 0.9877797061498897	0.116650
H	0.3596676251643756 0.2052341856371719 0.9873803049899611	0.107739
H	0.5784414176917859 0.3536582660984879 0.1574133141525588	0.100538
H	0.7037303378919885 0.3519259130719616 0.1630132809854518	0.101705
H	0.7037717916226769 0.1489387501405406 0.0649125633239476	0.102590
H	0.5786241945103456 0.1502954740387411 0.0606470503975014	0.103672
H	0.1448336273184223 0.1999838895852976 0.2152587404880951	0.103282
H	0.0184838350925569 0.1953037017983488 0.2224108908453688	0.116204
H	0.0139158067541083 0.2993746373090052 0.9867833997931412	0.115327
H	0.1409482593926397 0.2964951496999257 0.9880655876907373	0.102081
H	0.9216849021585072 0.1463370759506242 0.1568549094354136	0.099898
H	0.7964067738353620 0.1482253182727354 0.1632016764131125	0.102610
H	0.7962382468931462 0.3512371041765782 0.0650522862783409	0.102167
H	0.9213442726982736 0.3497542957856497 0.0601681039260207	0.103102
H	0.3000998961352012 0.1444232339525953 0.2153142117974865	0.106840
H	0.3048225680372026 0.0185071285097483 0.2218151219805297	0.116188
H	0.2004547942060972 0.0138419743820832 0.9864388900006502	0.115096
H	0.2033693308269352 0.1405504879105125 0.9868020135940436	0.104658
H	0.3535460504321381 0.9216376866438130 0.1567566689557611	0.100300
H	0.3516650241594987 0.7963537270971337 0.1633026922915257	0.101912
H	0.1487058619740568 0.7961447306200042 0.0651099620547817	0.102134
H	0.1502259373002800 0.9212644291622553 0.0599061273958080	0.103036
H	0.1982671484123018 0.3548375414846265 0.2150914887924123	0.101050
H	0.1947335475285864 0.4814716897602848 0.2230568733561141	0.114974
H	0.2988340668572285 0.4860280606525279 0.9874852725758728	0.116635
H	0.2945074881062560 0.3593442724311608 0.9876246361512425	0.103871
H	0.1463432330034626 0.5783919817441140 0.1572760293500551	0.100278
H	0.1480669121793909 0.7036530307332126 0.1630104229845077	0.102405
H	0.3510980940115491 0.7036865850862124 0.0649264450426192	0.102710
H	0.3498005573171176 0.5785637362644530 0.0606645658488886	0.103489
Cu	0.2500750706353126 0.2499463084063729 0.6006948501329332	0.738493
Cu	0.7500551301112384 0.7499239392172004 0.8993070810400391	0.738595
Cu	0.7500760515379772 0.7499454531420988 0.3993069192850822	0.738520
Cu	0.2500548610620740 0.2499240431191404 0.1006989775985653	0.738602
Ga	0.2516875320259055 0.2498048778715305 0.3512836989980521	1.470399
Ga	0.7501960584678495 0.7483197970749833 0.1487122206652672	1.470536
Ga	0.7516869833932701 0.7498208235632917 0.6487179024799240	1.470391
Ga	0.2501836438437561 0.2483282024571732 0.8512912413813977	1.470442
	  	
