#======================================================================

# CRYSTAL DATA

#----------------------------------------------------------------------

data_VESTA_phase_1


_pd_phase_name                         GaFFIVE_14_Cu_i
_cell_length_a                         13.01234
_cell_length_b                         13.00198
_cell_length_c                         8.38560
_cell_angle_alpha                      89.31071
_cell_angle_beta                       89.20297
_cell_angle_gamma                      89.08937
_symmetry_space_group_name_H-M         P 1
_symmetry_Int_Tables_number            1

loop_
_symmetry_equiv_pos_as_xyz
   x, y, z

loop_
   _atom_site_label
   _atom_site_fract_x
   _atom_site_fract_y
   _atom_site_fract_z
   _atom_site_charge
C	0.5687754506458951 0.2641298136607405 0.3618327121416406	-0.176429
C	0.4623009484236031 0.2686280121513890 0.3671329830629009	0.103954
C	0.9435790754167460 0.2870787732792014 0.4141767934438332	-0.166472
C	0.0498218834949994 0.2797865971386776 0.3993662625914384	0.110737
C	0.2621663443241198 0.5686481130269921 0.3643865741745814	-0.175190
C	0.2664668735859942 0.4620425325223355 0.3696552714463983	0.103054
C	0.2951496547044682 0.9438216294985599 0.4101436693754057	-0.166273
C	0.2868225412364836 0.0501169348460822 0.3961820818541305	0.109096
C	0.9324852734122644 0.2377198557618977 0.1377765280458881	-0.179990
C	0.0390114634589651 0.2332112026796401 0.1318193954098129	0.105040
C	0.5581778701898705 0.2086004153740995 0.0883564573425577	-0.160777
C	0.4518738144911898 0.2171799993373380 0.1016169929258937	0.100321
C	0.2101362147385506 0.5580231711808488 0.0893589732698772	-0.163072
C	0.2188050325166592 0.4516952888500370 0.1024436847854145	0.101160
C	0.2345553996080940 0.9323224748376168 0.1396077940917850	-0.181177
C	0.2293481506393010 0.0389241887359739 0.1341613171895241	0.105241
C	0.4327288367833260 0.7362366626355376 0.6400533653123658	-0.178783
C	0.5391599331649847 0.7338002403146211 0.6328083778970452	0.103232
C	0.0576808921558656 0.7300931816271047 0.5798706546226623	-0.157363
C	0.9513589726305781 0.7329276216752212 0.5958888882822347	0.098782
C	0.7372406967905083 0.4326061820251645 0.6390491278319544	-0.179998
C	0.7344572399517230 0.5391431617341360 0.6323055239063946	0.104101
C	0.7180344851203539 0.0573935314106835 0.5835928446371216	-0.156350
C	0.7237678640133874 0.9510064782769339 0.5983658045849789	0.099448
C	0.0685398304617274 0.7607375433575359 0.8629699784904014	-0.173701
C	0.9621209882696503 0.7616476181224684 0.8700370360379650	0.102091
C	0.4443248879309610 0.7761511220749847 0.9201800851257954	-0.158184
C	0.5505823899863684 0.7730033103086439 0.9032814707755770	0.110068
C	0.7771354568229302 0.4441245420384537 0.9191467886596035	-0.163396
C	0.7729002172905225 0.5504339247926966 0.9030050417769053	0.111027
C	0.7645093352957835 0.0684097773608096 0.8610807828269036	-0.173353
C	0.7675705736470554 0.9619224645208078 0.8672460840319917	0.103699
C	0.6179462955576982 0.2344685223617554 0.2189643777853339	0.191268
C	0.8835768125833989 0.2642042822399336 0.2823163369239157	0.194142
C	0.2343600137225678 0.6177804166132369 0.2208829402441957	0.191130
C	0.2669971417708895 0.8836119104380372 0.2810580530456736	0.193185
C	0.3839962846189152 0.7578075111879446 0.7869289182138952	0.191817
C	0.1176669043803777 0.7447321473100277 0.7146615616253789	0.190715
C	0.7587134875077689 0.3838365973281641 0.7856843716236858	0.193988
C	0.7396405808395126 0.1174601545515532 0.7159457278976815	0.190042
H	0.6132755058855126 0.2791234490189857 0.4679073123204897	0.106688
H	0.4195271658488052 0.2869673086581921 0.4759386074088428	0.106838
H	0.9075784221457124 0.3092291401696886 0.5266990160150505	0.127088
H	0.1007922907832045 0.2949712345605783 0.4978019321216321	0.102692
H	0.2758006456933920 0.6133855940609974 0.4708765878194530	0.109034
H	0.2831576369038551 0.4193266429465527 0.4790814896474139	0.107267
H	0.3222392865378622 0.9079015281359003 0.5199380214578193	0.127174
H	0.3060085929603017 0.1012642273900032 0.4928544104425051	0.103191
H	0.8876661331747016 0.2245019992302571 0.0314450697480558	0.106853
H	0.0815798761077888 0.2146266369530805 0.0226029850803119	0.105651
H	0.5939540107967433 0.1830004872228974 0.9775887724979245	0.127843
H	0.4023671341646878 0.2009322671736901 0.0014645189304504	0.109606
H	0.1862340553493075 0.5938670612770079 0.9778528449911639	0.127593
H	0.2043086790712639 0.4022559604409945 0.0013721862719445	0.108720
H	0.2173515946333370 0.8872773324899172 0.0349389868697316	0.109591
H	0.2065923164358146 0.0814177246655226 0.0269683215481466	0.106471
H	0.3881938080647762 0.7243113833728648 0.5330674576121247	0.103666
H	0.5817144799620902 0.7181411534464237 0.5225157398895353	0.107171
H	0.0932839489899115 0.7165736013403926 0.4638990205128787	0.126884
H	0.9019377499307955 0.7220732397367583 0.4938022347785001	0.108052
H	0.7260656404788717 0.3879342834958855 0.5318298997473061	0.105296
H	0.7191102283685473 0.5818327327213884 0.5221804968885784	0.107208
H	0.6971940727536249 0.0929748581038351 0.4704669904637327	0.127398
H	0.7091418321921156 0.9015253784193489 0.4974710781984147	0.107506
H	0.1127661572288512 0.7690088482713801 0.9713373076408539	0.102212
H	0.9196821969240148 0.7704441893247554 0.9820875308927988	0.109160
H	0.4086697082874819 0.7927214714636960 0.0352543235868959	0.126117
H	0.6016535340447819 0.7868351975390219 0.0019892554935935	0.101778
H	0.7940978684711556 0.4083850219852515 0.0338619972868036	0.127429
H	0.7859207370306092 0.6015117530714659 0.0021486135087818	0.100701
H	0.7775056611013711 0.1127628871173658 0.9680909127341870	0.104384
H	0.7829599424930521 0.9192794720486388 0.9771265525474577	0.109393
N	0.7760603499357840 0.2740296502827571 0.3014801781739983	-0.106225
N	0.2779323340497530 0.7759186884701075 0.2988967873391766	-0.107809
N	0.7255219499727498 0.2244425945615140 0.2002244488881184	-0.099714
N	0.2240440752188266 0.7254222604813180 0.2031979375501163	-0.099091
N	0.2249205093687668 0.7380527921712660 0.6912776494998613	-0.098109
N	0.7308965480176474 0.2248639699367639 0.6943625079354252	-0.099928
N	0.2767260953230145 0.7654700024943015 0.8104539702113792	-0.105942
N	0.7671014781837915 0.2764917991955099 0.8077559589779794	-0.104921
N	0.4056290608395777 0.2468666022740538 0.2385388898903867	-0.211510
N	0.0959665708170437 0.2532766382791409 0.2608392781784911	-0.211639
N	0.2465155951495915 0.4054164067200313 0.2401538033580973	-0.213707
N	0.2543658741863363 0.0960357460353559 0.2607997919467982	-0.210236
N	0.5964938540999551 0.7523138409642611 0.7622484925489096	-0.208109
N	0.9051873461512644 0.7484430298400057 0.7384262161284821	-0.209343
N	0.7521450442746822 0.5964337731273918 0.7621904718931881	-0.208556
N	0.7481565290107616 0.9049294134778290 0.7377054621616979	-0.209967
F	0.3826700854063765 0.2001100179123043 0.7489182529130750	-0.585955
F	0.2088704696923789 0.3839086493749051 0.7500865186157450	-0.585451
F	0.1459323927963468 0.1510458131979015 0.7391710363173956	-0.598130
F	0.7031325091880424 0.8835351548794831 0.2499893922114166	-0.581634
F	0.8827074056886449 0.7049298365155779 0.2482359671636553	-0.579660
F	0.6476897335949767 0.6493817363187828 0.2330872687141312	-0.593018
F	0.2590704692396188 0.2578458555339480 0.5179914665422566	-0.583397
F	0.2435311081758517 0.2418719080364692 0.9784835020086996	-0.585957
F	0.7411710491527334 0.7412240671441762 0.4768283320006917	-0.582612
F	0.7596442438960463 0.7604525922226503 0.0176187632110799	-0.579648
Ga	0.2479122017208815 0.2467264666013368 0.7481621787409717	1.451933
Ga	0.7467015889274469 0.7478179213339411 0.2471948069506388	1.447263
Cu	0.2507820418168230 0.2506994395669315 0.2499790682905944	0.700535
Cu	0.7508448621058891 0.7506612110093323 0.7503294203734299	0.697045
	  	
