#======================================================================

# CRYSTAL DATA

#----------------------------------------------------------------------

data_VESTA_phase_1


_pd_phase_name                         GaFFIVE_6_Zn_i
_cell_length_a                         17.83351
_cell_length_b                         17.83349
_cell_length_c                         15.63422
_cell_angle_alpha                      89.99992
_cell_angle_beta                       90.00024
_cell_angle_gamma                      89.98064
_symmetry_space_group_name_H-M         P 1
_symmetry_Int_Tables_number            1

loop_
_symmetry_equiv_pos_as_xyz
   x, y, z

loop_
   _atom_site_label
   _atom_site_fract_x
   _atom_site_fract_y
   _atom_site_fract_z
   _atom_site_charge
N	0.2439543840148736 0.1291681181840752 0.1279760152181908	-0.228093
N	0.2561276518363662 0.3709420771273877 0.1285694549611220	-0.228696
N	0.3708482068084564 0.2439030343920838 0.1283957221039325	-0.226746
N	0.1290909873794609 0.2560256188053237 0.1276363359910506	-0.229962
N	0.7560967229339906 0.6291520469752691 0.3716040282856355	-0.226723
N	0.7439746031966217 0.8709086568222464 0.3723634029635844	-0.229959
N	0.6290584139215118 0.7438722126887681 0.3714289864393794	-0.228755
N	0.8708325776398661 0.7560464411243317 0.3720236405932886	-0.228212
N	0.7561276084059717 0.8709410465472770 0.8714285414106189	-0.228777
N	0.7439533658771248 0.6291678205836531 0.8720243491483574	-0.228169
N	0.6290912401250973 0.7560250453120031 0.8723624701005240	-0.229886
N	0.8708481822203152 0.7439031588849044 0.8716051199011510	-0.226825
N	0.2439728465227056 0.3709082935175471 0.6276368314713545	-0.229911
N	0.2560966580728642 0.1291520484204703 0.6283952562128938	-0.226791
N	0.3708322867880333 0.2560464378680810 0.6279753862364255	-0.228160
N	0.1290585556860662 0.2438719713426135 0.6285711323537215	-0.228816
C	0.2007905039338979 0.0932161560484796 0.1852426073385205	0.108851
C	0.1923722154251315 0.0157764744445125 0.1847460494807867	-0.181942
C	0.2323765189082180 0.9729212659397689 0.1249219710137864	0.110096
C	0.2785263715671973 0.0111383688502670 0.0667506676432142	-0.182221
C	0.2816982085998269 0.0889376026840438 0.0694138952100467	0.104587
C	0.2265730830472234 0.8904940761545730 0.1237385341245449	0.060188
C	0.2906218565617888 0.8466082000728848 0.1208805359310833	-0.174177
C	0.2861976504302753 0.7675030256425606 0.1220608824051664	0.087371
C	0.1487927503236503 0.7784247489412133 0.1246351475582980	-0.123282
C	0.1550698031690188 0.8552661769453533 0.1267496372131607	-0.134162
C	0.2992839512890270 0.4068032339269936 0.1861018395364716	0.097843
C	0.3076044510019792 0.4842916158055494 0.1854458903335074	-0.184103
C	0.2675755687503063 0.5271313263345755 0.1255444596783404	0.107526
C	0.2215712654666212 0.4889070473897287 0.0672730966589659	-0.182118
C	0.2184522675767544 0.4110534821905556 0.0697002538215557	0.100563
C	0.2734470268547030 0.6095583470692353 0.1240718327257357	0.060612
C	0.2093797191288954 0.6534169653650308 0.1210062465187967	-0.172894
C	0.2137792555828948 0.7325192268847208 0.1220609865015464	0.083840
C	0.3511811072113666 0.7215904724104093 0.1246582092242698	-0.123986
C	0.3449678429074730 0.6447545410874674 0.1269037448583431	-0.135046
C	0.4067859391378755 0.2006272893903909 0.1856306680647880	0.100779
C	0.4842408023121076 0.1923527298301643 0.1852706265916064	-0.183996
C	0.5271006126269636 0.2324810021535399 0.1255097710554954	0.110392
C	0.4888844906067724 0.2785344331699443 0.0672870513506718	-0.179397
C	0.4110629327581946 0.2816443460641952 0.0698371268201195	0.109047
C	0.6095177210965742 0.2265906503245706 0.1240782251568583	0.060234
C	0.6533715790933596 0.2906348788279693 0.1210226888099977	-0.172521
C	0.7324826015133836 0.2861868809100214 0.1220758989714774	0.085024
C	0.7215895264823480 0.1488051918919304 0.1246740229804936	-0.122467
C	0.6447524883586735 0.1550670004057093 0.1269032230446596	-0.134728
C	0.0932133786404286 0.2991291282882713 0.1851815144911349	0.103567
C	0.0157299306561610 0.3075268140687021 0.1845827336500801	-0.183904
C	0.9728957751620325 0.2675761199413090 0.1247172153059630	0.108846
C	0.0111196108948703 0.2214745328232089 0.0664373893305197	-0.185534
C	0.0889663185819679 0.2182935186735392 0.0688490356859591	0.099882
C	0.8904513584694839 0.2733662871444633 0.1236397867052960	0.060516
C	0.8465948322162165 0.2093285908666869 0.1208393193870227	-0.173091
C	0.7674929100030525 0.2137590117668544 0.1220761748098661	0.084030
C	0.7783702612143868 0.3511602296647616 0.1246450791340223	-0.123872
C	0.8552140040688810 0.3448873101468707 0.1267158285036047	-0.134530
C	0.7993722757350188 0.5932141001553278 0.3143694811699629	0.100831
C	0.8076464604004223 0.5157590337623023 0.3147297029480728	-0.184184
C	0.7675183570591522 0.4728992131649674 0.3744906325281052	0.110528
C	0.7214650510915089 0.5111154308939825 0.4327124908539838	-0.179414
C	0.7183549013991896 0.5889370216436894 0.4301619368743624	0.109050
C	0.7734091458153124 0.3904824248852102 0.3759222929351088	0.060151
C	0.7093652926396982 0.3466284678097218 0.3789774955453287	-0.172461
C	0.7138131405266260 0.2675175470310288 0.3779240133798770	0.084979
C	0.8511945635814983 0.2784106681203352 0.3753258399812360	-0.122486
C	0.8449326348759950 0.3552476992243446 0.3730969205466884	-0.134617
C	0.7008705251250632 0.9067865692585898 0.3148186354415328	0.103515
C	0.6924728452471079 0.9842701915858895 0.3154173857958912	-0.183906
C	0.7324236458328632 0.0271041511940452 0.3752827241537632	0.108843
C	0.7785252563849687 0.9888800942997603 0.4335625169765491	-0.185558
C	0.7817065794825513 0.9110334286607803 0.4311506749505526	0.099977
C	0.7266336257140195 0.1095485563512089 0.3763599750894575	0.060529
C	0.7906711520488117 0.1534051830778503 0.3791605415027077	-0.173070
C	0.7862409112575122 0.2325071172817683 0.3779236962929114	0.083979
C	0.6488398972223638 0.2216297707462855 0.3753548022707950	-0.123872
C	0.6551127739128155 0.1447860562394540 0.3732839927134954	-0.134562
C	0.5931965007275140 0.7007155216747520 0.3138974549309848	0.097944
C	0.5157081184538509 0.6923953484083473 0.3145540526097748	-0.184165
C	0.4728687008643616 0.7324241292433433 0.3744549922368851	0.107613
C	0.5110937238455058 0.7784281570241958 0.4327254260226999	-0.182186
C	0.5889470757480429 0.7815477340854003 0.4302982872195587	0.100525
C	0.3904417770562180 0.7265529703978830 0.3759280418129481	0.060569
C	0.3465829885414545 0.7906201564527616 0.3789937569133259	-0.172891
C	0.2674807522817116 0.7862209448610732 0.3779390995274761	0.083821
C	0.2784096466279102 0.6488189265984823 0.3753416643403746	-0.123966
C	0.3552454960145257 0.6550321758796039 0.3730961238851838	-0.135052
C	0.9067847011934609 0.7992104520726219 0.3147574250312343	0.108900
C	0.9842242330784603 0.8076285439656008 0.3152541179807055	-0.181906
C	0.0270795022288014 0.7676237087688390 0.3750780191614314	0.110020
C	0.9888623366669310 0.7214733877428559 0.4332487049001984	-0.182254
C	0.9110631933601763 0.7183020796374396 0.4305857938573094	0.104710
C	0.1095061703187341 0.7734268186074571 0.3762615161135381	0.060255
C	0.1533922289069503 0.7093781417567712 0.3791194361007283	-0.174142
C	0.2324971285342086 0.7138023635792043 0.3779390262791483	0.087354
C	0.2215751875670425 0.8512073482080036 0.3753654808302264	-0.123251
C	0.1447336441486836 0.8449302119842397 0.3732503333973862	-0.134236
C	0.7992843827422254 0.9068030516437829 0.8138972293552718	0.097933
C	0.8076046243986696 0.9842915770573631 0.8145540552851838	-0.184120
C	0.7675757628998071 0.0271311190420724 0.8744549149608550	0.107609
C	0.7215718986583635 0.9889059359110403 0.9327253083199911	-0.182177
C	0.7184522760411861 0.9110525330967808 0.9302981627419189	0.100537
C	0.7734469791967624 0.1095580525722103 0.8759280163899081	0.060568
C	0.7093799220824424 0.1534169623208059 0.8789937460491410	-0.172890
C	0.7137793226551196 0.2325190989422729 0.8779390016100703	0.083801
C	0.8511807247073987 0.2215905553078603 0.8753417109118248	-0.124002
C	0.8449675637523161 0.1447546057083458 0.8730960803148835	-0.135061
C	0.7007897456298812 0.5932156364723817 0.8147573306907154	0.108857
C	0.6923715394103293 0.5157761409283260 0.8152542257405760	-0.181888
C	0.7323762254893724 0.4729207080144917 0.8750780189051625	0.110038
C	0.7785264885661551 0.5111380150054815 0.9332488586153195	-0.182202
C	0.7816977414647185 0.5889371363428838 0.9305867133548172	0.104652
C	0.7265730913893947 0.3904939890070780 0.8762612715275870	0.060198
C	0.7906217341413230 0.3466080268249897 0.8791192650044158	-0.174203
C	0.7861975481745694 0.2675030849470796 0.8779390655952265	0.087423
C	0.6487929938717721 0.2784246186231040 0.8753647426490494	-0.123280
C	0.6550698847185000 0.3552660499581837 0.8732501025573812	-0.134167
C	0.5932128944588581 0.7991290101239766 0.8148177585765132	0.103548
C	0.5157293797601419 0.8075270536036381 0.8154169945092171	-0.183953
C	0.4728956244124960 0.7675764975294243 0.8752825280509546	0.108891
C	0.5111200419052245 0.7214750911466548 0.9335621323170123	-0.185527
C	0.5889667426026155 0.7182934574150397 0.9311502437142940	0.099851
C	0.3904513904976553 0.7733663261457365 0.8763598847543319	0.060516
C	0.3465946633366461 0.7093289514172300 0.8791604763009842	-0.173081
C	0.2674929447588849 0.7137593115904523 0.8779237770311020	0.084040
C	0.2783701869739756 0.8511597555185746 0.8753548736621694	-0.123845
C	0.3552137938856582 0.8448869659586055 0.8732839578869824	-0.134581
C	0.9067859279768080 0.7006276206151044 0.8143700440591937	0.100873
C	0.9842411047285226 0.6923536625276185 0.8147300623823291	-0.184116
C	0.0271010305127180 0.7324816190269444 0.8744907619890053	0.110474
C	0.9888848766551270 0.7785347663941137 0.9327133042071503	-0.179362
C	0.9110635642121265 0.7816451687285360 0.9301634115558028	0.109064
C	0.1095176742642010 0.7265910244311219 0.8759222796194976	0.060178
C	0.1533718505382002 0.7906347026840569 0.8789775070235422	-0.172495
C	0.2324825212727481 0.7861867677539226 0.8779240871646822	0.084901
C	0.2215894173053106 0.6488058436514569 0.8753259377946802	-0.122503
C	0.1447524462626184 0.6550676191069497 0.8730968789615746	-0.134559
C	0.2008690939107839 0.4067863455366109 0.6851817037831228	0.103535
C	0.1924721519030686 0.4842700789507665 0.6845829942542485	-0.183911
C	0.2324228833193248 0.5271039791249601 0.6247175846793380	0.108881
C	0.2785241257561326 0.4888795364702228 0.5664379753357232	-0.185538
C	0.2817052352223715 0.4110326577925212 0.5688498938013151	0.099913
C	0.2266335500398205 0.6095483355463731 0.6236401311466686	0.060546
C	0.2906711417809388 0.6534050599995324 0.6208393131747475	-0.173127
C	0.2862407467271595 0.7325069641638617 0.6220760215147682	0.084098
C	0.1488400181169761 0.7216297325502590 0.6246449823101480	-0.123836
C	0.1551127207510208 0.6447860547135096 0.6267158336322420	-0.134581
C	0.2993721774468442 0.0932141101443976 0.6856299571318660	0.100852
C	0.3076464878740431 0.0157590526787512 0.6852700847993984	-0.184125
C	0.2675184649982663 0.9728990770344078 0.6255090998592793	0.110473
C	0.2214653620486786 0.0111155149043628 0.5672865669808428	-0.179382
C	0.2183553583657591 0.0889371141898807 0.5698367795795169	0.109089
C	0.2734090165235946 0.8904823213324968 0.6240776667507800	0.060184
C	0.2093651351594546 0.8466282207879812 0.6210224245640987	-0.172484
C	0.2138131103927755 0.7675173325640922 0.6220757904751779	0.084910
C	0.3511943266052932 0.7784104652784051 0.6246738709775206	-0.122497
C	0.3449325908294777 0.8552475268204388 0.6269029387707663	-0.134672
C	0.4067843902192048 0.2992098035553403 0.6852422652836074	0.108761
C	0.4842239035662612 0.3076283288158818 0.6847457922413658	-0.181919
C	0.5270790831307101 0.2676236940344944 0.6249220547964895	0.110067
C	0.4888617792912512 0.2214733997039687 0.5667511381329072	-0.182224
C	0.4110625451079374 0.2183022663931455 0.5694133721093365	0.104701
C	0.6095062041051804 0.2734270133621060 0.6237386915212791	0.060183
C	0.6533921019385913 0.2093780953948472 0.6208806386340172	-0.174183
C	0.7324971370397859 0.2138024198010312 0.6220607588053497	0.087390
C	0.7215754501597568 0.3512075682559985 0.6246350987845960	-0.123320
C	0.6447340340244219 0.3449305340033981 0.6267497322280084	-0.134140
C	0.0931968505245334 0.2007154171409112 0.6861027744728496	0.097881
C	0.0157084630669866 0.1923953492394765 0.6854461146094774	-0.184088
C	0.9728687529856040 0.2324242588008504 0.6255448818064232	0.107527
C	0.0110936216249032 0.2784283865053706 0.5672742943914715	-0.182152
C	0.0889469575903889 0.2815477293715994 0.5697016012162741	0.100563
C	0.8904417051842027 0.2265530377901742 0.6240717201858000	0.060612
C	0.8465830348996819 0.2906204305515760 0.6210060856130607	-0.172897
C	0.7674808095435559 0.2862209581870914 0.6220608374580001	0.083800
C	0.7784095105615387 0.1488189027972597 0.6246581616737807	-0.123988
C	0.8552454561607524 0.1550321216051582 0.6269037500271087	-0.135047
H	0.1737687582310567 0.1281758741595532 0.2333953569238407	0.097625
H	0.1570278828820763 0.9886470115413607 0.2324513673357138	0.113056
H	0.3099401852960624 0.9802997893951082 0.0183401738613229	0.112447
H	0.3145156267698999 0.1210311167212878 0.0232814045457286	0.096398
H	0.3457883620874815 0.8731066871575462 0.1202847899637900	0.107520
H	0.0936916600392449 0.7518233346801808 0.1253155087503538	0.109581
H	0.1049894510142296 0.8903404655926764 0.1287792230621712	0.098475
H	0.3266477794462735 0.3718023125932285 0.2342691244572846	0.101869
H	0.3434888231612676 0.5114205130217618 0.2326874573334588	0.112085
H	0.1903037287379130 0.5195761674126653 0.0185863788018094	0.114061
H	0.1870428493434900 0.3792786578577168 0.0219431304279706	0.103536
H	0.1542465681767682 0.6268665472634055 0.1203088370958689	0.108107
H	0.4062572580320946 0.7482253081204290 0.1252720655243992	0.106185
H	0.3950540631609832 0.6096672362407166 0.1288940422160190	0.099425
H	0.3715251055164185 0.1726658919064875 0.2329293334777072	0.096987
H	0.5114312428907924 0.1565900226797226 0.2325795346106789	0.111578
H	0.5195784786371115 0.3096141633739234 0.0185234310495564	0.113958
H	0.3791705869681803 0.3135094433722661 0.0227730365287450	0.098135
H	0.6268402844606678 0.3457944371161681 0.1203593533674557	0.108465
H	0.7481930083392361 0.0936910594176245 0.1252493960142885	0.107094
H	0.6097303663187019 0.1049640066209922 0.1288212974264674	0.100198
H	0.1278793641289179 0.3255421299328644 0.2341888402391368	0.102321
H	0.9886847722785937 0.3429473273227620 0.2323246101500787	0.114215
H	0.9802664777081143 0.1898440296018360 0.0182010284845265	0.113141
H	0.1209838534707494 0.1857880811061072 0.0221619543630993	0.100860
H	0.8731397281272102 0.1541653651612822 0.1202153812008097	0.106695
H	0.7517066046088159 0.4062427843286586 0.1253457507821296	0.108029
H	0.8903207256943576 0.3949284661656367 0.1288235941791363	0.098168
H	0.8273341533187402 0.6284748629633904 0.2670713595472846	0.096982
H	0.8434092032886578 0.4885684326215605 0.2674218961183959	0.111605
H	0.6903857410408583 0.4804212872208948 0.4814762039264200	0.113969
H	0.6864899923279489 0.6208294013830365 0.4772260936432619	0.098066
H	0.6542058912136142 0.3731597815928239 0.3796407643364795	0.108469
H	0.9063086123814114 0.2518068248363252 0.3747504111071386	0.107087
H	0.8950355521103336 0.3902696697250551 0.3711787313131890	0.100189
H	0.6744571934614570 0.8721209023906119 0.2658111397672250	0.102315
H	0.6570527166831698 0.0113159020027260 0.2676752925438175	0.114210
H	0.8101561540309039 0.0197335908567285 0.4817984353581463	0.113128
H	0.8142131023349044 0.8790156389654196 0.4778371693134952	0.100803
H	0.8458342820321951 0.1268602751663999 0.3797845034659562	0.106704
H	0.5937573961067132 0.2482936813869423 0.3746543261266350	0.108042
H	0.6050718474005415 0.1096791890794382 0.3711763247774225	0.098176
H	0.6281967373844597 0.6733514306233866 0.2657305568570563	0.101871
H	0.4885787511652364 0.6565110671911949 0.2673129370619595	0.112096
H	0.4804251014330967 0.8096958659697006 0.4814120615044197	0.114085
H	0.6207220170572496 0.8129568772848837 0.4780550872798684	0.103544
H	0.3731333550935417 0.8457534452309893 0.3796912663627823	0.108118
H	0.2517747915140751 0.5937426355672599 0.3747277693569785	0.106186
H	0.3903325515391138 0.6049459106226722 0.3711057102670099	0.099425
H	0.8718249006553904 0.8262320969452306 0.2666046029594795	0.097607
H	0.0113535584379393 0.8429727011576797 0.2675488772705283	0.113031
H	0.0197011019364690 0.6900598833053930 0.4816593657912299	0.112469
H	0.8789700653040998 0.6854843005121217 0.4767178230648551	0.096375
H	0.1268937112939103 0.6542116665766080 0.3797153087884104	0.107496
H	0.2481766371356718 0.9063082879039963 0.3746844969821497	0.109578
H	0.1096597367125236 0.8950107110546281 0.3712206534572771	0.098488
H	0.8266486322574849 0.8718026306875452 0.7657307564212533	0.101843
H	0.8434888663615232 0.0114208288853538 0.7673128995549835	0.112084
H	0.6903043781346003 0.0195747233545733 0.9814120170308277	0.114093
H	0.6870435226688666 0.8792774258310683 0.9780548394501776	0.103556
H	0.6542468407756824 0.1268666258095448 0.8796912176554383	0.108120
H	0.9062569097502112 0.2482252659818389 0.8747277791945620	0.106198
H	0.8950537222493606 0.1096676840382663 0.8711057428798804	0.099431
H	0.6737690442116895 0.6281756526560398 0.7666047093454343	0.097643
H	0.6570275091344326 0.4886472670625828 0.7675485352540972	0.113030
H	0.8099401785039726 0.4802992656093908 0.9816592790527230	0.112435
H	0.8145151850150826 0.6210303300437745 0.9767184883849436	0.096380
H	0.8457880743956366 0.3731065136867841 0.8797151765004917	0.107532
H	0.5936919539644744 0.2518233505600855 0.8746842985698711	0.109585
H	0.6049896297792154 0.3903401491491569 0.8712204668183314	0.098484
H	0.6278784489378237 0.8255424603631939 0.7658108011045184	0.102295
H	0.4886841636008904 0.8429474722517835 0.7676748324012674	0.114231
H	0.4802669864106194 0.6898442173043671 0.9817981198915340	0.113114
H	0.6209845478908419 0.6857880012315656 0.9778372725996842	0.100865
H	0.3731393411279411 0.6541660027631280 0.8797844615878819	0.106705
H	0.2517067917703581 0.9062421664324339 0.8746542467683953	0.108053
H	0.3903201590378287 0.8949278642571696 0.8711761859704091	0.098199
H	0.8715251053357380 0.6726663322981686 0.7670721164333494	0.096939
H	0.0114309100195758 0.6565912894055119 0.7674213938754789	0.111603
H	0.0195786993637223 0.8096142735024611 0.9814766466691279	0.113973
H	0.8791707127579247 0.8135095932607278 0.9772267094882716	0.098111
H	0.1268406572476908 0.8457939284951288 0.8796407413274991	0.108487
H	0.2481925701355145 0.5936917481302024 0.8747503660961131	0.107083
H	0.1097308176938107 0.6049647383176142 0.8711786182870386	0.100126
H	0.1744564088928793 0.3721213991428414 0.7341896859564156	0.102344
H	0.1570524793906517 0.5113158994406247 0.7323252860053570	0.114213
H	0.3101554376974680 0.5197320301217365 0.5182017384986399	0.113111
H	0.3142103021734807 0.3790144340560209 0.5221630888973039	0.100775
H	0.3458342833773079 0.6268602307014447 0.6202154137462129	0.106717
H	0.0937576115502192 0.7482931842744912 0.6253456510125446	0.108038
H	0.1050719756195496 0.6096792214778159 0.6288236218415295	0.098180
H	0.3273339356531246 0.1284748484751548 0.7329280001851722	0.096948
H	0.3434091291930519 0.9885686859973474 0.7325784410112868	0.111594
H	0.1903858104752141 0.9804211660727973 0.5185232942738786	0.113938
H	0.1864902573946922 0.1208295816439043 0.5227728300923931	0.098137
H	0.1542058786776718 0.8731597649421634 0.6203591870497508	0.108474
H	0.4063083442163855 0.7518070932526961 0.6252493079957585	0.107082
H	0.3950353530346762 0.8902695779184112 0.6288210365062554	0.100196
H	0.3718244765036531 0.3262314687050201 0.7333947273693809	0.097653
H	0.5113531911742724 0.3429725596296935 0.7324513054776631	0.113043
H	0.5197007422897342 0.1900596936934910 0.5183408413563539	0.112468
H	0.3789694890951956 0.1854844828180792 0.5232807856754700	0.096387
H	0.6268934988005377 0.1542116065707077 0.6202847036231793	0.107525
H	0.7481766954773449 0.4063086799722149 0.6253153913971404	0.109618
H	0.6096598472977591 0.3950108682686701 0.6287792199457539	0.098488
H	0.1281971893653180 0.1733514570694795 0.7342698456425996	0.101902
H	0.9885792335549856 0.1565110313539989 0.7326872882535904	0.112084
H	0.9804247401162554 0.3096961391324210 0.5185873775307249	0.114082
H	0.1207217952184902 0.3129566954600545 0.5219448441766883	0.103567
H	0.8731334681153322 0.3457537406238406 0.6203087125841176	0.108105
H	0.7517747852107222 0.0937426375954601 0.6252720970686316	0.106182
H	0.8903326262621818 0.1049458715161812 0.6288941975954800	0.099422
F	0.2563440906899012 0.1478223842485915 0.3779219393710558	-0.610267
F	0.1584480760074399 0.2986807590211805 0.3786236353735616	-0.603964
F	0.3358001289579369 0.3086153178865231 0.3783317759688668	-0.607559
F	0.6913921522247241 0.6641965263377952 0.1216717640152251	-0.607567
F	0.7013158684033437 0.8415476779862339 0.1213806957566629	-0.603950
F	0.8521792196368300 0.7436739257451234 0.1220813491549142	-0.610308
F	0.6584567899620446 0.7986976038080548 0.6213715099034169	-0.603972
F	0.7563014986264178 0.6478187994544972 0.6220786379674816	-0.610349
F	0.8358094554176956 0.8086002241276187 0.6216807619044864	-0.607562
F	0.1913767862328206 0.1642109650748880 0.8783345870542162	-0.607527
F	0.3521758646322228 0.2436677091198025 0.8779175333131140	-0.610282
F	0.2013205588645953 0.3415534745835705 0.8786172716516123	-0.603970
F	0.2496112299521955 0.2501136636839537 0.2564389251373705	-0.549354
F	0.2498832463491250 0.2497155266008028 0.5004141361652162	-0.550779
F	0.7498912235401741 0.7503784455981085 0.2435690763869058	-0.549455
F	0.7502783237818305 0.7501174662262180 -0.0004128169018370	-0.550822
F	0.7496160480848800 0.7501061093875693 0.7435648493800973	-0.549407
F	0.7498783014791787 0.7497204460913385 0.4995857692613535	-0.550294
F	0.2498933863941763 0.2503796547301061 0.7564333402966578	-0.549413
F	0.2502857798597454 0.2501225795647736 0.0004091329180099	-0.550748
Zn	0.2498410414631571 0.2502542461230441 0.1286444322992630	0.736608
Zn	0.7497462114943727 0.7501583098256457 0.3713537416139564	0.736526
Zn	0.7498414499004837 0.7502535015768910 0.8713518488924042	0.736712
Zn	0.2497464720111519 0.2501584079142953 0.6286465926072756	0.736757
Ga	0.2502116467307033 0.2509632498811642 0.3783946912204654	1.482727
Ga	0.7490381310041583 0.7497878039804642 0.1216103521469713	1.482889
Ga	0.7502105446348190 0.7509645497132926 0.6216073397194476	1.482701
Ga	0.2490358119980471 0.2497927859494836 0.8783889967449811	1.482780
	  	
