#======================================================================

# CRYSTAL DATA

#----------------------------------------------------------------------

data_VESTA_phase_1


_pd_phase_name                         GaFFIVE_14_Ni_i
_cell_length_a                         13.25940
_cell_length_b                         13.24254
_cell_length_c                         8.01483
_cell_angle_alpha                      87.65018
_cell_angle_beta                       87.55007
_cell_angle_gamma                      89.73965
_symmetry_space_group_name_H-M         P 1
_symmetry_Int_Tables_number            1

loop_
_symmetry_equiv_pos_as_xyz
   x, y, z

loop_
   _atom_site_label
   _atom_site_fract_x
   _atom_site_fract_y
   _atom_site_fract_z
   _atom_site_charge
C	0.5699142795426060 0.2665999041296268 0.3663956814772229	-0.182665
C	0.4651929043046253 0.2707042712883259 0.3705320571522485	0.112531
C	0.9397816050567495 0.2888437553009607 0.4167210349461379	-0.175327
C	0.0442030679839200 0.2813298065804896 0.3996953638535988	0.111077
C	0.2647618005478181 0.5697550739290930 0.3682415170039461	-0.183430
C	0.2686480467017033 0.4648614840590531 0.3727907445283026	0.112063
C	0.2969236703087673 0.9399508431659674 0.4121322274011693	-0.174382
C	0.2887992074116800 0.0444725924060676 0.3960260745081058	0.109186
C	0.9319354913762250 0.2349788332215309 0.1336353111934438	-0.186168
C	0.0367291769003764 0.2305913532263197 0.1267960473848759	0.109467
C	0.5640651918659423 0.2073383127653621 0.0864675939243513	-0.170729
C	0.4595974846346610 0.2166196715240863 0.0993226964229729	0.104217
C	0.2087135929387144 0.5636762024292031 0.0866441008597109	-0.173041
C	0.2179655962915113 0.4591449486292642 0.0997514492798017	0.101230
C	0.2314946921428729 0.9316200820535169 0.1367111184242430	-0.185486
C	0.2270581402297481 0.0365252481764873 0.1302700018787864	0.110352
C	0.4321925903575938 0.7351964771031969 0.6339890365858224	-0.184495
C	0.5369532526210854 0.7321396410646723 0.6263362422698711	0.110115
C	0.0639836676138738 0.7292655656828194 0.5757349278431722	-0.165425
C	0.9593071382601139 0.7334312258916036 0.5919141462043325	0.101483
C	0.7358739150483598 0.4320455910019168 0.6332645770173871	-0.182726
C	0.7331011163239940 0.5369703168166990 0.6257497645195023	0.110315
C	0.7162063309283565 0.0633572380602685 0.5810683327157468	-0.165131
C	0.7226916604163542 0.9586440997768284 0.5956614621714688	0.101230
C	0.0695543281212754 0.7612776208762502 0.8692331742318802	-0.181428
C	0.9647586000333165 0.7625604761841469 0.8751254239451919	0.107795
C	0.4402074666267639 0.7782206008507078 0.9229052806351969	-0.167736
C	0.5447250673854974 0.7741319900916556 0.9039088506968124	0.112804
C	0.7788735482198954 0.4400297747029305 0.9220513646709733	-0.169892
C	0.7744603374319449 0.5446282175507213 0.9035209348949491	0.111570
C	0.7656027444269238 0.0693238376881653 0.8666708546421574	-0.178842
C	0.7683029200957118 0.9644546394322271 0.8715943350702854	0.111447
C	0.6208092156616252 0.2349709551704351 0.2204138632494896	0.189532
C	0.8821204388783784 0.2637591295921352 0.2822706872217982	0.191681
C	0.2348282038942888 0.6205697544025891 0.2214793885861950	0.191552
C	0.2663527480469013 0.8820201636968862 0.2812258693363130	0.189544
C	0.3825076134447398 0.7582840631784639 0.7860617085875671	0.190303
C	0.1205996989923167 0.7444897473598890 0.7156531145394511	0.188494
C	0.7587329872430009 0.3822844668148106 0.7851523466039322	0.189605
C	0.7393778033415608 0.1202110243494714 0.7174383020338608	0.186353
H	0.6116270219327739 0.2831650106934655 0.4759731450831236	0.107287
H	0.4227059060557989 0.2900169785782880 0.4840043485367941	0.094989
H	0.9037325808783040 0.3129310429313861 0.5328377671934338	0.124967
H	0.0922533656618678 0.2988949551598393 0.5013041791269828	0.094751
H	0.2801456726701956 0.6118808925203746 0.4780566307815012	0.109563
H	0.2863663275965527 0.4226198863610479 0.4872288714672280	0.095927
H	0.3256708143094060 0.9039993965176784 0.5249313804113067	0.124920
H	0.3107348814276384 0.0927402182777598 0.4950676410830172	0.095530
H	0.8891185920710666 0.2201586178914860 0.0244987142819497	0.107686
H	0.0779255829341331 0.2092246675649357 0.0127556786394054	0.096493
H	0.6007133208753963 0.1795426811570631 0.9733064495973924	0.124229
H	0.4136252929189863 0.1991804234155378 0.9948129271809373	0.102056
H	0.1825895162813705 0.6001854365374748 0.9723279622923794	0.123980
H	0.2022489606873173 0.4130936813341552 0.9943791621026624	0.102547
H	0.2122013060592644 0.8884699271417572 0.0300855128153036	0.109647
H	0.2016453360334578 0.0777205975375490 0.0189893045099556	0.096441
H	0.3898470655277240 0.7226409469114047 0.5233176910489737	0.103471
H	0.5783051130321484 0.7140307391644577 0.5109005836130048	0.096145
H	0.1007732427583991 0.7144822818554658 0.4553984231586595	0.122366
H	0.9136282989802583 0.7227913391673159 0.4842967759798233	0.101761
H	0.7238410122981728 0.3894352933719062 0.5225500051684432	0.102947
H	0.7154010926520529 0.5784593448220370 0.5103474478563651	0.096700
H	0.6935540895344371 0.1000427446558627 0.4647603303219436	0.123382
H	0.7073981878374679 0.9127681989996430 0.4899942914093697	0.102280
H	0.1107433750180123 0.7698294112511331 0.9825496394488356	0.102883
H	0.9223790939284873 0.7710904174993989 0.9930653217836276	0.097778
H	0.4041432737446399 0.7963930965662874 0.0422132086281804	0.124108
H	0.5927482050345446 0.7894504063495226 0.0064423400578844	0.092211
H	0.7972397884602720 0.4039584858512684 0.0411076034655294	0.124463
H	0.7892357866746594 0.5927251502329784 0.0064141774092555	0.092305
H	0.7797201907138404 0.1107636025205116 0.9778234515057463	0.103915
H	0.7838815117518197 0.9219170757401013 0.9866310445867158	0.096682
N	0.7760545790344195 0.2747944930501492 0.3013842209455987	-0.106104
N	0.2786585196481854 0.7758412361486681 0.2977967291477686	-0.108286
N	0.7268282033229025 0.2237112284539063 0.2027098483683983	-0.102620
N	0.2230285640332248 0.7266519112579505 0.2058257414964248	-0.103227
N	0.2266208017801028 0.7380872813088120 0.6908424353523810	-0.097466
N	0.7306926336306503 0.2263011129154241 0.6948778817502210	-0.098950
N	0.2764366407930708 0.7655816213082592 0.8120611616121971	-0.104388
N	0.7670657881920178 0.2761447158602753 0.8092799625416398	-0.104058
N	0.4105973485751374 0.2478530533438446 0.2389076366865263	-0.228219
N	0.0922943540556750 0.2525560707332626 0.2578161699181364	-0.225233
N	0.2473915294663327 0.4101242510668812 0.2403858929855348	-0.229800
N	0.2543395647265320 0.0923002928774131 0.2580135066258066	-0.224883
N	0.5926630142880359 0.7513394360040903 0.7587695407079363	-0.223506
N	0.9101612470657412 0.7498498939901382 0.7389109745390611	-0.226058
N	0.7519706402217932 0.5926784603333434 0.7584276678817589	-0.223551
N	0.7483490132245854 0.9097203376639125 0.7383417210475467	-0.225792
F	0.3752668377499707 0.1959174836905042 0.7389482721711724	-0.563434
F	0.2062675290856809 0.3765505307173216 0.7397104468895523	-0.562338
F	0.1452950682483874 0.1504768561173503 0.7703842006290261	-0.569572
F	0.6998508933547463 0.8764971085083919 0.2401782937341897	-0.558320
F	0.8750379934364197 0.7017928207583394 0.2414508138250815	-0.554651
F	0.6472948196609706 0.6486607707770996 0.2672240047757206	-0.566261
F	0.2508935088202285 0.2499263613016461 0.5028836187202742	-0.558829
F	0.2511388177255104 0.2495247642492995 0.9940837403278289	-0.559433
F	0.7488531464457374 0.7502382047781554 0.4940406530994785	-0.556811
F	0.7514259521902011 0.7514617740339125 0.0031157167404679	-0.554848
Ga	0.2458707736032736 0.2441177613332788 0.7495360920488278	1.454699
Ga	0.7442531332613046 0.7458177773547437 0.2495478993312997	1.450456
Ni	0.2512886996497338 0.2509836798855037 0.2480891255026663	0.756691
Ni	0.7511996377171692 0.7510666123741544 0.7479569385394752	0.753340
	  	
