#======================================================================

# CRYSTAL DATA

#----------------------------------------------------------------------

data_VESTA_phase_1


_pd_phase_name                         GaFFIVE_15_Cd_i
_cell_length_a                         30.33834
_cell_length_b                         29.67673
_cell_length_c                         8.31327
_cell_angle_alpha                      89.99993
_cell_angle_beta                       90.00067
_cell_angle_gamma                      89.99874
_symmetry_space_group_name_H-M         P 1
_symmetry_Int_Tables_number            1

loop_
_symmetry_equiv_pos_as_xyz
   x, y, z

loop_
   _atom_site_label
   _atom_site_fract_x
   _atom_site_fract_y
   _atom_site_fract_z
   _atom_site_charge
C	0.9302395217392689 0.0989831459960761 0.8901808897883995	0.097003
C	0.8985615339317738 0.0652292579243917 0.8955456405238548	-0.166545
C	0.7695941611623238 0.9361294226201033 0.8968071787664237	-0.114402
C	0.7361536969293488 0.9043573528454135 0.8965975001089523	-0.118592
C	0.5717855705374350 0.7448483365899755 0.8900391096944731	0.092848
C	0.6046806548908392 0.7773483555342667 0.8952206551436186	-0.168829
C	0.4306043365173774 0.5989009443152894 0.8898669954948579	0.100774
C	0.3988462106631771 0.5652251064820283 0.8955573660671189	-0.166084
C	0.2695719234478318 0.4361575345472992 0.8967338571484287	-0.113174
C	0.2361249029862733 0.4043668744292623 0.8965267285117181	-0.117977
C	0.0718728110865546 0.2444413984466180 0.8897330003330910	0.099976
C	0.1047071916635992 0.2770226224566087 0.8952195803903047	-0.169261
C	0.0702028337339306 0.9003106455840229 0.3898465667704473	0.103464
C	0.1013992163571606 0.9345405624964473 0.3955587656853498	-0.167596
C	0.2304054191255162 0.0638653448828281 0.3967291185643628	-0.113428
C	0.2638679806162569 0.0956368774390790 0.3965321353105087	-0.117133
C	0.4288833867644788 0.2547311152061712 0.3897458927512226	0.099015
C	0.3955408912344605 0.2226962494514310 0.3952170518927332	-0.169008
C	0.5701021382858077 0.4006734412461098 0.3901659995236579	0.096758
C	0.6013477891197246 0.4348477528798925 0.3955337083894510	-0.165001
C	0.7304241686316401 0.5638451667797842 0.3968055340131572	-0.114562
C	0.7638847652267111 0.5955908231096860 0.3966015285055794	-0.117832
C	0.9285059308499141 0.7548255820296698 0.3900600946220578	0.093260
C	0.8952295138766354 0.7227374907667077 0.3952342360924403	-0.168514
C	0.0701300908496897 0.0997911789654109 0.6101460782334138	0.102586
C	0.1013180635114188 0.0655526132775454 0.6044462653902374	-0.167228
C	0.2302304286117129 0.9362588624141759 0.6032356979093281	-0.115954
C	0.2637092802964117 0.9045089145742098 0.6034349682992260	-0.114611
C	0.4281325278143778 0.7449011465526082 0.6099818823493109	0.093108
C	0.3952465675321753 0.7774186250001620 0.6047975599139583	-0.167946
C	0.5693280442239063 0.5989683573151164 0.6101118496093453	0.102039
C	0.6010841749404793 0.5652848761248762 0.6044297418957973	-0.167507
C	0.7302803780452346 0.4363103513244551 0.6031969160021605	-0.115408
C	0.7637136195935161 0.4045146164430437 0.6034102142836871	-0.115175
C	0.9284395783982733 0.2452697126894426 0.6099607644848574	0.093551
C	0.8951504910103361 0.2773544983444740 0.6047873488414021	-0.168418
C	0.9301665907805483 0.9011232945919988 0.1098502138216888	0.096053
C	0.8984795710198519 0.9348710810815105 0.1044731665180975	-0.164846
C	0.7694114768159788 0.0640205597055320 0.1032304476990550	-0.114954
C	0.7359791538598829 0.0958247912206872 0.1034211909064798	-0.116651
C	0.5710260280842230 0.2548037928097571 0.1102241949723493	0.098911
C	0.6043759945762641 0.2227869269853240 0.1047475380983907	-0.169428
C	0.4298158612841265 0.4007292688873759 0.1098591222087650	0.097009
C	0.3985684128988168 0.4349094101206915 0.1044812930988826	-0.164794
C	0.2694212516586765 0.5640144439178121 0.1032450261088348	-0.114834
C	0.2359410163036205 0.5957709894076336 0.1034353556514144	-0.116112
C	0.0717940731108112 0.7556611650171796 0.1102509491495066	0.101016
C	0.1046193806855740 0.7230793116308510 0.1047541241522538	-0.170420
C	0.0702024271328519 0.9003096660933064 0.1101516598380404	0.103423
C	0.1013985825784873 0.9345399760315354 0.1044405459136076	-0.167601
C	0.2304054149400054 0.0638654065301759 0.1032699284859695	-0.113492
C	0.2638678629771357 0.0956365778403244 0.1034688760889052	-0.117112
C	0.4288833710881240 0.2547309347231912 0.1102543986697747	0.099049
C	0.3955406714597166 0.2226961641827701 0.1047795371751298	-0.169094
C	0.5701017723251058 0.4006733815713948 0.1098270362678495	0.096720
C	0.6013479471729858 0.4348479370045165 0.1044646080154376	-0.164911
C	0.7304234890042650 0.5638446001497217 0.1031947454493676	-0.114547
C	0.7638847971563028 0.5955906857909626 0.1033981591850549	-0.117819
C	0.9285058448524757 0.7548256375748239 0.1099429600190274	0.092797
C	0.8952294858008989 0.7227371558676192 0.1047635717785749	-0.168493
C	0.9302395503345857 0.0989838008742069 0.6098334300735949	0.096963
C	0.8985618373003412 0.0652301004468981 0.6044631423776731	-0.166640
C	0.7695936265881709 0.9361293130861915 0.6031913870134703	-0.114366
C	0.7361529605791777 0.9043570561095081 0.6033991997657986	-0.118606
C	0.5717848810515196 0.7448483457187629 0.6099625384418860	0.092790
C	0.6046797593168108 0.7773482044697505 0.6047818953046757	-0.168799
C	0.4306041731482352 0.5989007273627144 0.6101337286372375	0.100784
C	0.3988460963867758 0.5652248187638141 0.6044425557177633	-0.166114
C	0.2695717484734583 0.4361572212746198 0.6032639170655532	-0.113142
C	0.2361246436198230 0.4043666169853832 0.6034690197871994	-0.117971
C	0.0718720714155630 0.2444403050198169 0.6102713314881121	0.099950
C	0.1047064182529255 0.2770218686416556 0.6047817909267388	-0.169235
C	0.9301668874288382 0.9011240321610897 0.3901595077953633	0.096027
C	0.8984797443456821 0.9348717403116372 0.3955302037855202	-0.164730
C	0.7694116220023844 0.0640202430586901 0.3967689647612763	-0.114938
C	0.7359792384349352 0.0958246615622060 0.3965749126083222	-0.116686
C	0.5710266834387726 0.2548032085186467 0.3897712327411881	0.098884
C	0.6043765175429159 0.2227863918261876 0.3952482138907077	-0.169301
C	0.4298158800226914 0.4007291023239066 0.3901393008172134	0.096996
C	0.3985683917662229 0.4349092063038136 0.3955148390800248	-0.164805
C	0.2694219544888882 0.5640140640463699 0.3967550379145600	-0.114864
C	0.2359412958924663 0.5957710675502871 0.3965588041826110	-0.116061
C	0.0717947649850772 0.7556599830590063 0.3897521421400090	0.101012
C	0.1046200050010156 0.7230783934596642 0.3952456650415567	-0.170448
C	0.0701305499507571 0.0997899518287590 0.8898553593505492	0.102536
C	0.1013188605700990 0.0655513421137264 0.8955517091699899	-0.167291
C	0.2302306697358132 0.9362586910275900 0.8967601989679294	-0.115969
C	0.2637094698471908 0.9045087986109629 0.8965637083214372	-0.114562
C	0.4281334980726342 0.7449009106572965 0.8900154512809675	0.093215
C	0.3952475324735478 0.7774182246819571 0.8951980894990070	-0.167890
C	0.5693282171629236 0.5989674848638741 0.8898841364717384	0.102080
C	0.6010843360604150 0.5652843307766853 0.8955662395122655	-0.167572
C	0.7302802773643753 0.4363101968449659 0.8967986778988239	-0.115486
C	0.7637140029708392 0.4045140810523917 0.8965887017738138	-0.115192
C	0.9284388265981529 0.2452697401481879 0.8900440930392318	0.093564
C	0.8951496247438503 0.2773544145252066 0.8952114648822678	-0.168342
C	0.6556528630559023 0.8272125942304697 0.7500008270626127	-0.101517
C	0.8819484346275073 0.0478137106131512 0.7500028106662654	0.160469
C	0.8204102971819770 0.9852616679055065 0.7500001095428914	-0.101140
C	0.6219308694137193 0.7943604693189901 0.7500004224861764	0.167148
C	0.7867210485719537 0.9524945541322896 0.7499989776206710	0.125927
C	0.7188959263778710 0.8879516210036018 0.7499991432101919	0.140180
C	0.6849110901398786 0.8554467489750766 0.7500003554678124	-0.104409
C	0.8492079592931068 0.0139800401684407 0.7500010283034295	-0.103929
C	0.1555717892953977 0.3271162785552191 0.7499991718814153	-0.105698
C	0.3821341930558291 0.5478576365926123 0.7500004565527493	0.162478
C	0.3204364802065692 0.4853819334858747 0.7499994242744363	-0.095906
C	0.1219135889113989 0.2941266741373205 0.7500002284275443	0.169257
C	0.2867222397023655 0.4525786771613368 0.7499991095528249	0.127149
C	0.2188136939674551 0.3879341132940460 0.7499975657945517	0.139051
C	0.1848013537942832 0.3553978622434887 0.7499978125943628	-0.099163
C	0.3492528277974343 0.5141011177632780 0.7499997509397178	-0.108525
C	0.3441174473504117 0.1732162772440924 0.2499977338762209	-0.105410
C	0.1177431294354490 0.9522678958179072 0.2499981756456560	0.162813
C	0.1792828217397649 0.0149150382236589 0.2499980913772625	-0.096673
C	0.3780026000217981 0.2059510996217023 0.2499975697299728	0.170391
C	0.2131721313386568 0.0475335053083766 0.2499991109081591	0.126991
C	0.2811114991204486 0.1121416054297720 0.2500000861122391	0.139857
C	0.3149831677479810 0.1448244778922625 0.2500006848657047	-0.099447
C	0.1503407865734848 0.9863178118041862 0.2499978886749774	-0.109931
C	0.8439894269136653 0.6731613986537375 0.2499966898552983	-0.102746
C	0.6177118726192320 0.4525114315496492 0.2499989494159154	0.159689
C	0.6793303423261572 0.5150001881199301 0.2499995316559439	-0.099929
C	0.8777621997085734 0.7059581910000009 0.2499980874165875	0.168015
C	0.7132211285485031 0.5475555141671503 0.2500000570141605	0.126282
C	0.7810939872462611 0.6120489168062766 0.2500006326858175	0.140912
C	0.8149198581068600 0.6447258514956528 0.2499993467496361	-0.103193
C	0.6503587557996497 0.4864548022945867 0.2499994469273485	-0.108934
C	0.3442377627159434 0.8273165802967956 0.7500006118782147	-0.099854
C	0.1176511635156460 0.0478339965742420 0.7499987319040143	0.163943
C	0.1791803318355955 0.9852090649555891 0.7499967679942917	-0.097904
C	0.3779821726832458 0.7944458846342135 0.7500008236280904	0.166435
C	0.2130300052973473 0.9525851587364226 0.7499970156243051	0.127569
C	0.2809759604689873 0.8880787463929973 0.7500000459634134	0.139393
C	0.3149752843740933 0.8555520343350207 0.7500006732326191	-0.105198
C	0.1502334594432295 0.0138031137369691 0.7499974034909305	-0.111693
C	0.8438847320888559 0.3269611733063218 0.7499963229443261	-0.102358
C	0.6177699286063230 0.5479180241122134 0.7499985796372654	0.164432
C	0.6794384968163942 0.4854530455749122 0.7499973205205891	-0.096025
C	0.8776679984745853 0.2941457961819582 0.7499974501431015	0.167534
C	0.7131440543237163 0.4526868954060761 0.7499974369884148	0.127986
C	0.7809404558089794 0.3880515351942434 0.7499988162197837	0.139090
C	0.8147936545664777 0.3553816734188083 0.7499995477101981	-0.103846
C	0.6506160865707216 0.5141610548124957 0.7499981468544089	-0.110108
C	0.6557589942131749 0.1733382558857642 0.2499991828141766	-0.109619
C	0.8818597047804135 0.9523110454145907 0.2500020106283659	0.158872
C	0.8203003646463051 0.0148949441743439 0.2500010302985893	-0.100941
C	0.6218958067301310 0.2060577234570580 0.2499981223204563	0.171227
C	0.7865696907306926 0.0476553859440585 0.2500000782305856	0.128124
C	0.7187546256654510 0.1122970423823084 0.2499976566662771	0.136688
C	0.6848880555120282 0.1449592851790863 0.2499968581696195	-0.095639
C	0.8491101297130712 0.9861762928816774 0.2499998558188093	-0.102432
C	0.1554543566681474 0.6730194839555407 0.2499990212157359	-0.108097
C	0.3821736430975639 0.4525832953921172 0.2499976124548094	0.159072
C	0.3205216118969381 0.5150899969320730 0.2499990031890044	-0.102793
C	0.1218136297872912 0.7059912351887253 0.2500001053023587	0.171467
C	0.2866318883923479 0.5476874361328096 0.2499989530260250	0.127312
C	0.2186618093226302 0.6121936624457162 0.2499987955941499	0.137900
C	0.1846672405930369 0.6447265359071751 0.2499976039589965	-0.097026
C	0.3494904164257203 0.4865295971772762 0.2499964063002369	-0.104901
H	0.9441103030360835 0.1129590769845085 0.0008058467209667	0.102749
H	0.8868110016983198 0.0524591746307686 0.0106689005154608	0.119555
H	0.7830240307782094 0.9488275377320876 0.0097384485300125	0.106914
H	0.7227979872962530 0.8916446942261456 0.0094623793224375	0.115548
H	0.5581790305712873 0.7306325795704288 0.0007321633806712	0.102384
H	0.6170622406534866 0.7893354859283074 0.0103932031581173	0.124307
H	0.4447462605961059 0.6130742247252513 -0.0005022502150500	0.098716
H	0.3870424128998290 0.5524568918418544 0.0106039526188631	0.119563
H	0.2829961178468463 0.4487997378421930 0.0097331363922165	0.107388
H	0.2228182638717389 0.3916597899556452 0.0094649239639479	0.115496
H	0.0580558089417107 0.2299704723725281 -0.0005626876800920	0.097298
H	0.1170759145083362 0.2890542843560311 0.0103248669543233	0.124365
H	0.0570586859430101 0.8851429387154955 0.4994263084187575	0.098735
H	0.1132206244538730 0.9472924849855930 0.5105966871701636	0.119328
H	0.2170169711317562 0.0511916253619290 0.5097436819535852	0.107099
H	0.2772077849004590 0.1083046772771146 0.5094633153593983	0.115487
H	0.4436840603539726 0.2681737559692043 0.4994108087434117	0.097551
H	0.3832040026950690 0.2106258346785504 0.5103262832099076	0.124369
H	0.5572128126948741 0.3857211275174419 0.5007413149000055	0.102503
H	0.6131665792252040 0.4475508405350686 0.5106676183857154	0.119100
H	0.7170021720109556 0.5511495730255331 0.5097584859577076	0.106568
H	0.7772486822206969 0.6082972078271319 0.5094622787715377	0.115543
H	0.9430615830604806 0.7680572607388945 0.5007229009207541	0.102386
H	0.8829323833403944 0.7106589125523954 0.5104104003042167	0.124319
H	0.0569871710029055 0.1149574889760261 0.5005623725182977	0.098563
H	0.1131491369773109 0.0527849642319238 0.4894231456969159	0.118703
H	0.2168322793705270 0.9489553384079380 0.4902566219408430	0.107276
H	0.2770440529038242 0.8918103024566263 0.4905357319293382	0.115005
H	0.4417416387713469 0.7306826559240277 0.4992795577172314	0.102136
H	0.3828852426023288 0.7893912167874615 0.4895660890620957	0.123950
H	0.5552040700478702 0.6131497461739990 0.5005017942685744	0.098152
H	0.6129086259677029 0.5525124697069820 0.4894227782692471	0.119862
H	0.7168424091778139 0.4489820200305698 0.4902552616162502	0.107936
H	0.7770641874871033 0.3918173944515977 0.4905280518718432	0.114867
H	0.9429990310494466 0.2320430312914425 0.4992985318833809	0.102133
H	0.8828718333508480 0.2894196044556049 0.4895654792417147	0.123808
H	0.9440427080894918 0.8871457532296447 0.9992177862077153	0.103183
H	0.8867382116447324 0.9476223791638030 0.9893088267969973	0.119257
H	0.7828273909885476 0.0513389018829109 0.9902617137562978	0.107501
H	0.7226144233338184 0.1084989271533130 0.9905322052991226	0.114721
H	0.5562286825465349 0.2682443286260162 0.0005719653238155	0.097328
H	0.6167423233180798 0.2106997056440143 0.9897008741337796	0.124550
H	0.4427127866375817 0.3857760165280596 0.9992692765772681	0.102872
H	0.3867757114424411 0.4476037144768188 0.9893057864357390	0.118525
H	0.2828283137856708 0.5513437809903583 0.9902572520098883	0.106820
H	0.2226200316040430 0.6084815348959367 0.9905387052037998	0.114681
H	0.0579792137057828 0.7701368483347186 0.0005531137076171	0.097205
H	0.1170060093882777 0.7110317412142647 0.9897016223224469	0.124420
H	0.0570586628464799 0.8851410325570969 0.0005720340200249	0.098748
H	0.1132194063672890 0.9472915881124371 0.9894013324812680	0.119339
H	0.2170168620506746 0.0511912213773505 0.9902543165933457	0.107131
H	0.2772077936255269 0.1083042096477064 0.9905373157682357	0.115492
H	0.4436841100364556 0.2681733692844733 0.0005900224645436	0.097558
H	0.3832042400615819 0.2106257155684356 0.9896689259130365	0.124403
H	0.5572124008897424 0.3857212413919231 0.9992547407237582	0.102472
H	0.6131660820497594 0.4475510513742289 0.9893304157714701	0.119092
H	0.7170015225929174 0.5511490495716325 0.9902427321691912	0.106546
H	0.7772478012968960 0.6082965015971434 0.9905382195428426	0.115535
H	0.9430626531803338 0.7680581463898521 0.9992851458166279	0.102611
H	0.8829332026304749 0.7106595843542841 0.9895855337514926	0.124336
H	0.9441106170623026 0.1129609125095572 0.4992118762017880	0.102800
H	0.8868114307600806 0.0524603326483311 0.4893372330566949	0.119616
H	0.7830231288093076 0.9488271524066246 0.4902599216674279	0.106891
H	0.7227969137208412 0.8916445197218020 0.4905348155960583	0.115530
H	0.5581781520893737 0.7306323296039778 0.4992682874123101	0.102423
H	0.6170614668955705 0.7893348529959211 0.4896082507144409	0.124295
H	0.4447460598760726 0.6130742735620953 0.5005045883687596	0.098725
H	0.3870422954291970 0.5524565313682385 0.4893942913638863	0.119566
H	0.2829959913150223 0.4487992854006737 0.4902654949349453	0.107382
H	0.2228178771412672 0.3916595863394642 0.4905299669328723	0.115429
H	0.0580554165342757 0.2299686436440845 0.5005671046820315	0.097299
H	0.1170741930317336 0.2890527302269547 0.4896756575803362	0.124349
H	0.9440436241322915 0.8871467746530398 0.5007935948172257	0.103108
H	0.8867385903685915 0.9476232278285776 0.5106944634468772	0.119230
H	0.7828274061014205 0.0513384486290566 0.5097382041752537	0.107516
H	0.7226145942767259 0.1084985198750461 0.5094632663845144	0.114738
H	0.5562296993560157 0.2682438290179983 0.4994230401919543	0.097289
H	0.6167432601221023 0.2106987360267435 0.5102955717105333	0.124509
H	0.4427124084296103 0.3857755420576520 0.5007315378245423	0.102853
H	0.3867753848289877 0.4476030333309878 0.5106887655612730	0.118564
H	0.2828289826401196 0.5513434903241109 0.5097415788145685	0.106853
H	0.2226206958415695 0.6084812494579672 0.5094572628085313	0.114673
H	0.0579798903215059 0.7701344513211498 0.4994501212234452	0.097212
H	0.1170073887610956 0.7110301226199720 0.5102992973050378	0.124421
H	0.0569876327819489 0.1149550712479961 -0.0005617351979035	0.098554
H	0.1131506115388570 0.0527834414844322 0.0105746699831935	0.118767
H	0.2168324733658140 0.9489550597692489 0.0097376446868353	0.107301
H	0.2770442111766809 0.8918100037949538 0.0094642277456287	0.114998
H	0.4417428325598092 0.7306824061296546 0.0007187110793485	0.102109
H	0.3828865669244949 0.7893905927062640 0.0104314126508624	0.123881
H	0.5552044831735861 0.6131488176463042 -0.0005066613408789	0.098137
H	0.6129092486653768 0.5525114354888558 0.0105736662790816	0.119899
H	0.7168430635388812 0.4489812796357637 0.0097403396249329	0.107953
H	0.7770646408524224 0.3918166755223267 0.0094690415025693	0.114876
H	0.9429981478049857 0.2320434949876809 0.0007094273804273	0.102161
H	0.8828703910098069 0.2894195208675698 0.0104306475853359	0.123768
Cd	0.4999925870469513 0.6735381247468012 0.7499958814208475	0.825727
Cd	-0.0005974400903220 0.1731307533390770 0.7500124643107332	0.826634
Cd	0.4999893688375996 0.3274042062714249 0.2500011457108787	0.826677
Cd	-0.0005852562027443 0.8269850986094796 0.2500088699892221	0.826839
Ga	0.4999221686316148 0.6725044196463082 0.2499961454991887	1.462299
Ga	0.0005379671549439 0.1729772581210392 0.2500079309744462	1.463973
Ga	0.4999444819437952 0.3265412307873881 0.7500027653902240	1.462046
Ga	0.0005288433319377 0.8271508763716117 0.7500071815898310	1.464514
F	0.4997922626046389 0.6106205816868541 0.2499975277579483	-0.593543
F	0.9703486685750505 0.2267339591855872 0.2499980073849339	-0.586856
F	0.9708912892860462 0.1189337912051026 0.2499813420669823	-0.583529
F	0.4998702004646065 0.2646533464970995 0.7500241788976325	-0.596496
F	0.9704038959066154 0.7733496345178310 0.7499822737980958	-0.586686
F	0.9708295498980059 0.8811761988529548 0.7500118551406771	-0.584088
F	0.5527071435940317 0.7030540190237350 0.2500213230263323	-0.586229
F	0.0610650737489576 0.1733625183834053 0.2500333996877625	-0.597098
F	0.4471019642772728 0.3569629910471161 0.7499910888643722	-0.585583
F	0.4472037853053130 0.7031758680329004 0.2499737463511894	-0.586326
F	0.5527772677332543 0.3569482684549895 0.7499945599501564	-0.585327
F	0.0610614905494792 0.8268159684634433 0.7500270616036069	-0.597097
F	0.4999133852919606 0.6729411872636248 0.4819958887733442	-0.561121
F	0.0001488754014761 0.1730574682668620 0.4820284577234861	-0.562089
F	0.4999561774793437 0.3269273638423532 0.9820564691055500	-0.561525
F	0.0001650830925816 0.8270994040670203 0.9820450766501574	-0.562183
F	0.4999301591898035 0.6729427624438571 0.0180014171671985	-0.561120
F	0.0001719963881772 0.1730689045164714 0.0179791434950619	-0.562212
F	0.4999548452259431 0.3269088224731282 0.5179461910679275	-0.561559
F	0.0001849133298660 0.8271048624298759 0.5179593049950953	-0.562178
N	0.5555893728290192 0.7289077254470921 0.7500005251442159	-0.239931
N	0.9456375699966653 0.1156573803936272 0.7500083007515780	-0.241225
N	0.0556446294460839 0.2284934939077757 0.7500026757815302	-0.235937
N	0.4460127987640218 0.6156147602314036 0.7500009355250901	-0.234297
N	0.4451496839769142 0.2706261402802254 0.2500004930592468	-0.235127
N	0.0548572097443504 0.8835415040490620 0.2500003038089124	-0.235717
N	0.9447636790484221 0.7706910970776283 0.2500030310381783	-0.240671
N	0.5547849648051084 0.3839208993760175 0.2499996015418455	-0.239706
N	0.4443190615958172 0.7289451787089978 0.7499979741179090	-0.239517
N	0.0547969844069903 0.1165636422999507 0.7500002685923780	-0.235495
N	0.9447085727479452 0.2294114960752419 0.7500036138344078	-0.240068
N	0.5539143173177576 0.6156678603654610 0.7499966741168698	-0.236387
N	0.5547499803420852 0.2706803339106567 0.2499979461472455	-0.235772
N	0.9455821909205909 0.8844553651718998 0.2500057619227176	-0.240187
N	0.0555804677410743 0.7716122593522303 0.2500019570331528	-0.236925
N	0.4451262586372955 0.3839600943265341 0.2500005407598453	-0.239090
	  	
