#======================================================================

# CRYSTAL DATA

#----------------------------------------------------------------------

data_VESTA_phase_1


_pd_phase_name                         GaFFIVE_15_Zn_i
_cell_length_a                         29.91830
_cell_length_b                         29.06480
_cell_length_c                         8.14519
_cell_angle_alpha                      90.00015
_cell_angle_beta                       90.00021
_cell_angle_gamma                      90.00182
_symmetry_space_group_name_H-M         P 1
_symmetry_Int_Tables_number            1

loop_
_symmetry_equiv_pos_as_xyz
   x, y, z

loop_
   _atom_site_label
   _atom_site_fract_x
   _atom_site_fract_y
   _atom_site_fract_z
   _atom_site_charge
C	0.9332273298598921 0.1022136434701613 0.8927011253772508	0.095533
C	0.9009629016015163 0.0679098332237981 0.8982183296673437	-0.166946
C	0.7699897874088167 0.9361982970582642 0.8999628360808718	-0.115392
C	0.7359158543424618 0.9039524603914724 0.8997223240269815	-0.118395
C	0.5685928509017317 0.7417522999521793 0.8925520435365347	0.091859
C	0.6019697642472581 0.7749027030492045 0.8978588455332821	-0.170172
C	0.4336620733271310 0.6020178042698323 0.8924828251493392	0.103721
C	0.4013562769708433 0.5677684123240803 0.8982755592174084	-0.167378
C	0.2699382049324942 0.4362628921352582 0.8998690814956554	-0.114001
C	0.2358649127941961 0.4039865155544243 0.8996301255650101	-0.117090
C	0.0687574278367554 0.2413158178447446 0.8923523936640693	0.101741
C	0.1021051432106802 0.2744849648479264 0.8979019720594232	-0.171147
C	0.0670318624359306 0.8972960203055315 0.3924739450463304	0.105657
C	0.0989195761476711 0.9319573456311548 0.3982762613980348	-0.168370
C	0.2300286476699582 0.0637665817003574 0.3998561297778001	-0.114274
C	0.2641127580608769 0.0960313209014731 0.3996243918566553	-0.116269
C	0.4319381679957919 0.2579857270102745 0.3923564242564693	0.100808
C	0.3982039560456065 0.2252317395505707 0.3979086540633620	-0.169680
C	0.5668925859283868 0.3976913594273421 0.3926710117778917	0.096009
C	0.5987562803338726 0.4323852910954849 0.3982041185246212	-0.167331
C	0.7300585515369989 0.5637210977313866 0.3999530384856141	-0.115126
C	0.7641683705094563 0.5959242798248529 0.3997300226846104	-0.116996
C	0.9314540407047138 0.7581786368367355 0.3925611326133673	0.092784
C	0.8977628803480132 0.7253705398134153 0.3978652996379191	-0.169248
C	0.0669182784848394 0.1028347338720031 0.6074995049672292	0.103991
C	0.0987875840721152 0.0681681453286956 0.6016976244988438	-0.167968
C	0.2297793147794363 0.9364378752074309 0.6000881351781300	-0.114574
C	0.2638818404370163 0.9042177084756375 0.6003040462298201	-0.115879
C	0.4312651689387633 0.7418623514139604 0.6074860471916710	0.094021
C	0.3978872924749602 0.7750256322374757 0.6021854805750252	-0.170668
C	0.5662187805986836 0.6021354504974135 0.6074989909675127	0.102930
C	0.5985052435660938 0.5678870093361296 0.6016736883100300	-0.167925
C	0.7298570295392185 0.4365262816398549 0.6000882398737728	-0.114667
C	0.7639107582082083 0.4042508803836750 0.6003103676939702	-0.115722
C	0.9313476151171600 0.2419565047233444 0.6074751706704358	0.094147
C	0.8976407853462693 0.2747599082875219 0.6021728937209908	-0.170646
C	0.9331051870043185 0.8979350591916175 0.1073495155118574	0.094644
C	0.9008205987665252 0.9322323130538747 0.1018222156981303	-0.165791
C	0.7696991750702850 0.0639984443606869 0.1000913914626024	-0.118156
C	0.7356563377120187 0.0962959711751000 0.1003479192680628	-0.113692
C	0.5679197317806141 0.2581175231923225 0.1076131770091115	0.101321
C	0.6016557294621486 0.2253774367679623 0.1020501009335687	-0.170085
C	0.4329558895444063 0.3978212548421179 0.1073524214383261	0.095223
C	0.4010777395729506 0.4325133010893336 0.1018238711282023	-0.166346
C	0.2696887463560804 0.5639723168192606 0.1000953553206069	-0.117473
C	0.2355807332239742 0.5961941929776580 0.1003448735878163	-0.113869
C	0.0686320465416032 0.7588211172160305 0.1076154648716346	0.101233
C	0.1019603402815717 0.7256466933993375 0.1020594928315629	-0.170286
C	0.0670317922001417 0.8972959991326823 0.1075186994983569	0.105700
C	0.0989196858884626 0.9319570287796999 0.1017166084691419	-0.168434
C	0.2300286897631527 0.0637665447626390 0.1001439476253459	-0.114215
C	0.2641127581443543 0.0960312557554909 0.1003776544698543	-0.116339
C	0.4319377675957889 0.2579854837315634 0.1076391086590920	0.100838
C	0.3982036487299137 0.2252313533871491 0.1020879143404856	-0.169751
C	0.5668936404470556 0.3976907211255500 0.1073187110543219	0.095880
C	0.5987571998885785 0.4323847702718790 0.1017853890644425	-0.167342
C	0.7300588615996728 0.5637211435604571 0.1000475505820567	-0.115168
C	0.7641688164688363 0.5959242153433695 0.1002738553624574	-0.117036
C	0.9314537939322028 0.7581777328442946 0.1074392540030505	0.092778
C	0.8977627383843951 0.7253695482979368 0.1021356777899380	-0.169349
C	0.9332283431392060 0.1022132732542873 0.6073113991610281	0.095622
C	0.9009640682868942 0.0679094594518097 0.6017912063809978	-0.167132
C	0.7699896068153980 0.9361979722148686 0.6000367162527007	-0.115326
C	0.7359157679554557 0.9039520174354863 0.6002765541253899	-0.118419
C	0.5685923516888550 0.7417520966416997 0.6074499459020796	0.091926
C	0.6019694051577110 0.7749023734136099 0.6021429324313061	-0.170196
C	0.4336621336355459 0.6020172241454479 0.6075196480354975	0.103735
C	0.4013564728251778 0.5677675862064974 0.6017271734172043	-0.167352
C	0.2699384543219079 0.4362628168552213 0.6001294758219990	-0.114110
C	0.2358652711828879 0.4039863386945191 0.6003655230657826	-0.117156
C	0.0687566248088465 0.2413149782301228 0.6076582944429050	0.101517
C	0.1021046449221259 0.2744835664692105 0.6021053890472603	-0.170816
C	0.9331056419674795 0.8979348491188230 0.3926545496710049	0.094444
C	0.9008209373800863 0.9322321274139680 0.3981833485149842	-0.165720
C	0.7696991664333519 0.0639983903648407 0.3999070146899439	-0.118169
C	0.7356563547723809 0.0962958505768945 0.3996506271996811	-0.113734
C	0.5679199766153086 0.2581172507927861 0.3923816747393883	0.101292
C	0.6016559805250300 0.2253772150659641 0.3979430888748213	-0.169926
C	0.4329565348357060 0.3978210889824660 0.3926376685421017	0.095160
C	0.4010783506660432 0.4325130738682683 0.3981686204310114	-0.166354
C	0.2696891406518515 0.5639719741858494 0.3999039881943631	-0.117628
C	0.2355811155539667 0.5961938348792393 0.3996560221727762	-0.113761
C	0.0686321287061823 0.7588210683506367 0.3923818042383380	0.101195
C	0.1019601588107441 0.7256464825849503 0.3979375411832224	-0.170352
C	0.0669187951171520 0.1028338966974093 0.8925072985746022	0.104113
C	0.0987881457641346 0.0681672932262149 0.8983045793073106	-0.167941
C	0.2297796530344504 0.9364381579562940 0.8999135201987024	-0.114557
C	0.2638820577044316 0.9042177497453631 0.8996969301352236	-0.115871
C	0.4312652724491033 0.7418619777977532 0.8925151076099714	0.094019
C	0.3978874627729728 0.7750252718996531 0.8978174465089627	-0.170683
C	0.5662190581123516 0.6021357087873488 0.8925009033783919	0.102995
C	0.5985054027368805 0.5678870935262824 0.8983267064893828	-0.167986
C	0.7298572144789357 0.4365261328626858 0.8999093490872802	-0.114603
C	0.7639109298350443 0.4042506990932495 0.8996865163306018	-0.115822
C	0.9313472696476776 0.2419567879293914 0.8925340989963720	0.094285
C	0.8976402036242818 0.2747600738654147 0.8978339467205165	-0.170755
C	0.6537953968186656 0.8257777985517137 0.7499999805573924	-0.102768
C	0.8840005008686566 0.0500993028789873 0.7500038028157728	0.160543
C	0.8216222827386948 0.9862225444457042 0.7499997368777275	-0.102205
C	0.6195468578233118 0.7923274111814538 0.7500009357780955	0.167399
C	0.7874041693045657 0.9528341649448470 0.7499997564072597	0.127448
C	0.7183031063056826 0.8873315178312013 0.7499994770075679	0.138386
C	0.6836230052316065 0.8544181917321051 0.7499997858740786	-0.102967
C	0.8507832551541470 0.0155847924698953 0.7500018954421757	-0.103105
C	0.1537679445824826 0.3256309175772016 0.7500003743150858	-0.105424
C	0.3842810336254770 0.5500349984715117 0.7500015683059004	0.161568
C	0.3216144225303869 0.4863682972525227 0.7500004187649869	-0.096923
C	0.1196179253854735 0.2920083734256884 0.7500031388798863	0.169353
C	0.2873610014220943 0.4529684330627757 0.7499997547276869	0.127093
C	0.2182030018142856 0.3873439119451494 0.7499974392822932	0.138475
C	0.1835264971594760 0.3543728175055576 0.7499978406220702	-0.099586
C	0.3508667381008293 0.5156627971788782 0.7500017340170559	-0.106098
C	0.3458835184357015 0.1747859877065755 0.2499989689895591	-0.104388
C	0.1156211086260938 0.9500593565045372 0.2499965597792433	0.163495
C	0.1780211465977070 0.0140129182728020 0.2499988411514564	-0.099027
C	0.3803357085634594 0.2080887804306688 0.2499991865592410	0.169118
C	0.2124825201593308 0.0471905360903766 0.2499994300461892	0.127072
C	0.2816748615140010 0.1128017786752917 0.2500013149698388	0.139103
C	0.3161672049298704 0.1459919015594503 0.2500010504020912	-0.100243
C	0.1487020892206266 0.9847834953095506 0.2499972207712201	-0.107578
C	0.8457586398643654 0.6746802280410444 0.2500020142617879	-0.102820
C	0.6154740554953962 0.4504414694169341 0.2499949660713760	0.161781
C	0.6780432023897968 0.5141180401000046 0.2499985257021346	-0.102119
C	0.8799983544224390 0.7081467216332943 0.2500011026316588	0.166660
C	0.7125437673638481 0.5471978749355108 0.2499996903181580	0.125903
C	0.7817132689995371 0.6126172652103551 0.2500025049100146	0.138798
C	0.8161601671306826 0.6457897700209954 0.2500029107303772	-0.102107
C	0.6486414649698583 0.4850076994305926 0.2499968796822272	-0.105880
C	0.3459995077826445 0.8259373791047466 0.7500018636856327	-0.101117
C	0.1154705354683103 0.0500849895759859 0.7499999245934279	0.162501
C	0.1778527667745102 0.9861882020973786 0.7499997666428138	-0.098653
C	0.3802852423004462 0.7924668970392150 0.7500017788554413	0.166638
C	0.2122836189883129 0.9530110105331140 0.7500006483148371	0.124987
C	0.2815070672602399 0.8875607512503491 0.7500004890389304	0.139583
C	0.3161765872214393 0.8545979815992437 0.7500002999335519	-0.103854
C	0.1485429017882982 0.0154020363878853 0.7499987761271433	-0.107610
C	0.8456043191905497 0.3255027032866052 0.7500011435111120	-0.104140
C	0.6155419134365309 0.5501587479026042 0.7500002125981576	0.162057
C	0.6781597006764234 0.4865139313240889 0.7499993167265711	-0.095561
C	0.8798592722775970 0.2920089398963379 0.7500030476871524	0.168258
C	0.7124357169681189 0.4531806400549597 0.7499990365588725	0.126224
C	0.7814894612936112 0.3875445703629514 0.7499983495304244	0.138370
C	0.8159736146894320 0.3543778816334193 0.7499990275251324	-0.101891
C	0.6489047020776935 0.5157842794834718 0.7499996372717381	-0.107339
C	0.6539207523414783 0.1749621921694406 0.2499979829516738	-0.106435
C	0.8838422548133937 0.9500709434246303 0.2500032895464588	0.159509
C	0.8214177523979278 0.0139754735100466 0.2500004320309999	-0.102747
C	0.6195040160749049 0.2082446157288936 0.2499963949895968	0.169667
C	0.7871541703641571 0.0473525327070698 0.2499993210693192	0.129019
C	0.7181135269749438 0.1130295340444655 0.2499993014226973	0.134808
C	0.6836301762596834 0.1461838702801973 0.2499993215530946	-0.098369
C	0.8506122725001853 0.9846254961282639 0.2500028629763641	-0.100682
C	0.1535873993224338 0.6745603846201104 0.2499989784561811	-0.106337
C	0.3843199389234124 0.4505702955342153 0.2499969293554375	0.160303
C	0.3216727329219664 0.5142401696223283 0.2500002897278886	-0.102246
C	0.1194592228340937 0.7081531335340263 0.2499997052208167	0.169994
C	0.2871927696341985 0.5473821615829739 0.2499992919765280	0.127082
C	0.2179549261056733 0.6128297549287766 0.2500009319275073	0.136672
C	0.1833233023348253 0.6458145347779989 0.2500011289566957	-0.098985
C	0.3510981391242252 0.4851334907383458 0.2499991368698511	-0.104594
H	0.9473619442102861 0.1162284751975147 0.0055273092335476	0.099857
H	0.8890805668167586 0.0549919791735392 0.0158781514824884	0.119289
H	0.7837150867496140 0.9491205629779388 0.0151072858512341	0.106512
H	0.7222784010902784 0.8910284533404867 0.0148429451407238	0.115747
H	0.5550051989559086 0.7272535701402644 0.0054682536667179	0.099056
H	0.6144289597567344 0.7870638146636099 0.0156209888846629	0.124135
H	0.4480570226644396 0.6163239970389696 0.0042742917758214	0.093858
H	0.3894086607733427 0.5548461434207126 0.0158065086605656	0.119688
H	0.2836854267986985 0.4491050361690210 0.0151319338821869	0.106974
H	0.2223003295018540 0.3910279842559582 0.0148629981314026	0.115301
H	0.0548547894706245 0.2265828337697443 0.0042490828749215	0.093079
H	0.1145938902200988 0.2866959785335595 0.0154955929090647	0.124728
H	0.0536596235590145 0.8819301110505545 0.5041985212238012	0.094237
H	0.1109264533918191 0.9448325019142547 0.5157866881005020	0.119442
H	0.2163383385689350 0.0508673911919146 0.5151283817188773	0.106804
H	0.2777372408470483 0.1089090212987142 0.5148786568610740	0.115383
H	0.4468590885680496 0.2716709879565536 0.5042075684249367	0.093570
H	0.3857852575214095 0.2129260105103720 0.5154794656168598	0.124426
H	0.5539185522752446 0.3825198207286673 0.5054582032324453	0.099954
H	0.6107420705552128 0.4451923624027754 0.5158810800284716	0.119058
H	0.7163113904508634 0.5508342520373719 0.5151083998280847	0.106451
H	0.7777966052209608 0.6088606060480094 0.5148531986804122	0.115491
H	0.9461733277629821 0.7714998187695620 0.5054219949547356	0.098493
H	0.8854350418458492 0.7130577754207434 0.5156150047987008	0.123600
H	0.0535452144836457 0.1181981792095263 0.4957853260426202	0.094215
H	0.1108174010243122 0.0552643003911893 0.4842467054710945	0.119352
H	0.2160611744565922 0.9493592936929158 0.4849218230503800	0.106370
H	0.2774714349250342 0.8912854036728909 0.4851016212784670	0.115293
H	0.4448510718208935 0.7273660272960287 0.4945557115126562	0.098916
H	0.3854690071301952 0.7871751599676464 0.4843673123404553	0.124211
H	0.5518326333566901 0.6164623551081753 0.4957503988148035	0.094205
H	0.6104864843881874 0.5549453288182973 0.4841942601227984	0.119848
H	0.7160684408103895 0.4493714155387284 0.4849266223962282	0.106836
H	0.7775122476470447 0.3913202486424250 0.4851150202729712	0.114864
H	0.9460648758942037 0.2286319977056122 0.4946133964266711	0.098788
H	0.8853315804185256 0.2870411021595595 0.4843665631444184	0.123737
H	0.9472387515164062 0.8839278506837936 0.9945127029648210	0.099662
H	0.8889633071361939 0.9451242113087629 0.9841004933801900	0.119248
H	0.7834153298422497 0.0511093112390998 0.9848547882350306	0.107727
H	0.7219954418820060 0.1091878724880275 0.9851982937965031	0.114069
H	0.5529987643897423 0.2718058935079087 0.9957778003130261	0.093269
H	0.6141037192265951 0.2130587353960540 0.9845200097599163	0.123998
H	0.4459366152717953 0.3826545830198647 0.9945530620857266	0.100166
H	0.3891299261431375 0.4453072365802185 0.9840908130031366	0.118824
H	0.2834050924065006 0.5511005748881642 0.9848392550406582	0.107049
H	0.2220006520515741 0.6091854352082640 0.9852087188034854	0.114545
H	0.0547268918280461 0.7735618278247208 0.9957489053772443	0.093247
H	0.1144703595941621 0.7134146133804046 0.9845128544816025	0.124515
H	0.0536597455008387 0.8819299311412615 0.9957939332817309	0.094171
H	0.1109261930611606 0.9448323347678392 0.9842068144251381	0.119433
H	0.2163382579204101 0.0508672137570631 0.9848721796090157	0.106792
H	0.2777371472223409 0.1089088298356382 0.9851238975360155	0.115402
H	0.4468581189881743 0.2716705941702259 0.9957874456511193	0.093565
H	0.3857848179369565 0.2129252138380164 0.9845168979303143	0.124503
H	0.5539190097403950 0.3825197805807455 0.9945325081273280	0.099924
H	0.6107427735697972 0.4451912526990969 0.9841080201629303	0.119102
H	0.7163120083136189 0.5508339369824096 0.9848918194063376	0.106457
H	0.7777975552040953 0.6088598884816269 0.9851513567044904	0.115487
H	0.9461731598000168 0.7714983420052286 0.9945788369045505	0.098540
H	0.8854350219741488 0.7130558806423940 0.9843870604481139	0.123606
H	0.9473631126436526 0.1162290748739288 0.4944874684275795	0.099859
H	0.8890825302179427 0.0549919653000809 0.4841296427681668	0.119355
H	0.7837151088771468 0.9491199268616197 0.4848926837281184	0.106500
H	0.7222783809682286 0.8910279191713082 0.4851552650283123	0.115733
H	0.5550050957995042 0.7272528434816565 0.4945328025540476	0.099039
H	0.6144288760884016 0.7870622879753518 0.4843806068284440	0.124074
H	0.4480566564726808 0.6163236078439174 0.4957290827090681	0.093849
H	0.3894082713441199 0.5548452977920872 0.4841962822740684	0.119665
H	0.2836860273730005 0.4491046183242597 0.4848671392649008	0.107003
H	0.2223012223745143 0.3910271643557933 0.4851318930035308	0.115365
H	0.0548534979617556 0.2265811184522519 0.4957641373060894	0.093110
H	0.1145926997631052 0.2866939639952074 0.4845109214018429	0.124627
H	0.9472398077605457 0.8839280553195117 0.5054908396228163	0.099783
H	0.8889638326029963 0.9451240464458754 0.5159055253294926	0.119205
H	0.7834153216578600 0.0511092089655355 0.5151435819334353	0.107740
H	0.7219954665963281 0.1091877217090752 0.5148000160477828	0.114088
H	0.5529991869804547 0.2718052667094924 0.5042178291943589	0.093275
H	0.6141044581539579 0.2130580279818791 0.5154721031773022	0.123945
H	0.4459383437892917 0.3826545613281455 0.5054359003809344	0.100191
H	0.3891311472203754 0.4453069945071648 0.5159021277154986	0.118861
H	0.2834056910909306 0.5511000490468262 0.5151597652630255	0.107082
H	0.2220013015370027 0.6091848255486666 0.5147929549404749	0.114561
H	0.0547271943532223 0.7735618468601448 0.5042483216158434	0.093257
H	0.1144700302197875 0.7134142332911964 0.5154841405124168	0.124569
H	0.0535460359806703 0.1181963674507566 0.0042235024154443	0.094140
H	0.1108184042623439 0.0552625365936548 0.0157539510541234	0.119303
H	0.2160613809280429 0.9493594838525025 0.0150797158740248	0.106351
H	0.2774716182824420 0.8912853032850652 0.0148993523060198	0.115287
H	0.4448512769730790 0.7273655998612241 0.0054449903573272	0.098887
H	0.3854692817013149 0.7871743867099535 0.0156364134178109	0.124241
H	0.5518327893153658 0.6164623185305645 0.0042498480778721	0.094221
H	0.6104868752839384 0.5549453911359267 0.0158058028771389	0.119868
H	0.7160688392911732 0.4493711261440648 0.0150713021806456	0.106847
H	0.7775123967246277 0.3913197723125095 0.0148819459606412	0.114877
H	0.9460634342642894 0.2286319624570543 0.0053984068088970	0.098728
H	0.8853297015094481 0.2870407252433911 0.0156392733900085	0.123817
Zn	0.4999598834965783 0.6735097772025035 0.7499983274563983	0.733446
Zn	-0.0005861366966731 0.1730498977841541 0.7500014438620074	0.733804
Zn	0.4999344595461100 0.3275734760011036 0.2500058254319714	0.733847
Zn	-0.0005567420830040 0.8270259859411402 0.2499984781173934	0.733125
Ga	0.4999358692197530 0.6713631393381111 0.2499922919368098	1.447392
Ga	0.0016177928994795 0.1733055286560628 0.2500035215403427	1.446317
Ga	0.4999625906810052 0.3256480372707500 0.7500010952852770	1.447707
Ga	0.0016025335926454 0.8267782563338684 0.7500061946596367	1.446293
F	0.4997631855964224 0.6085512887214005 0.2499400196318930	-0.573699
F	0.9728157267193933 0.2288213361280230 0.2500010272897737	-0.565312
F	0.9727073906808001 0.1178691773865774 0.2499904405332667	-0.562088
F	0.4999360147308817 0.2628827899716640 0.7500050004010349	-0.577589
F	0.9728743799123116 0.7712193197443151 0.7500047942507165	-0.565186
F	0.9726655594908667 0.8821966121514168 0.7499779264730174	-0.561875
F	0.5537905949512353 0.7011691225227232 0.2500052783839465	-0.564627
F	0.0626659197778858 0.1733519779275463 0.2500216355807803	-0.576496
F	0.4460663174215830 0.3552911058488695 0.7500131274616155	-0.564098
F	0.4461200441325496 0.7012809177670325 0.2500051960978866	-0.564976
F	0.5538749002648680 0.3552349693930990 0.7499940383423755	-0.563687
F	0.0626436224350785 0.8266960945161735 0.7500121520579695	-0.576419
F	0.4999213469337366 0.6729094351510549 0.4907499312356897	-0.548963
F	0.0000747997490845 0.1732251673878395 0.4908279258683620	-0.549011
F	0.4999056027895889 0.3272171876105005 0.9909693595167199	-0.549501
F	0.0000656923745812 0.8269119429842891 0.9908760066968365	-0.549165
F	0.4999242614568346 0.6729193875332412 0.0092389667621748	-0.548941
F	0.0000765166852126 0.1732275304550118 0.0091756247833285	-0.549067
F	0.4999055492236701 0.3272037384013439 0.5090234186411775	-0.549540
F	0.0000730065515102 0.8269170153948484 0.5091421385922746	-0.549103
N	0.5520129600844222 0.7253748988476878 0.7500007635933723	-0.223411
N	0.9490440013572660 0.1192706815931794 0.7500066347834694	-0.225534
N	0.0520836180946874 0.2249985982644963 0.7500061185910197	-0.221910
N	0.4494228149491700 0.6191660671715609 0.7500011687310439	-0.221865
N	0.4485086532438159 0.2743916957714653 0.2499978847000151	-0.222234
N	0.0511810688453145 0.8802470311388600 0.2499960301196729	-0.222833
N	0.9480639374267291 0.7745163025361299 0.2499997302500297	-0.223342
N	0.5511288201707488 0.3805788743372244 0.2499947083427379	-0.224643
N	0.4478368712109922 0.7254593357978244 0.7500000519652112	-0.225699
N	0.0510937105532458 0.1198940399381683 0.7500041365197334	-0.221240
N	0.9479828060285058 0.2256253091361656 0.7500054133787568	-0.225333
N	0.5504531802616511 0.6192647940433954 0.7499996809724365	-0.221526
N	0.5513359398148691 0.2744963153869504 0.2499978126423540	-0.222596
N	0.9489524574758500 0.8808848169998773 0.2500014026617591	-0.223454
N	0.0519920124369527 0.7751442407012353 0.2499987010123937	-0.222159
N	0.4487079480175126 0.3806825977799045 0.2499950823235456	-0.222809
	  	
