#======================================================================

# CRYSTAL DATA

#----------------------------------------------------------------------

data_VESTA_phase_1


_pd_phase_name                         GaFFIVE_13_Co_i
_cell_length_a                         15.01986
_cell_length_b                         15.01776
_cell_length_c                         8.09740
_cell_angle_alpha                      90.22162
_cell_angle_beta                       89.67400
_cell_angle_gamma                      89.95416
_symmetry_space_group_name_H-M         P 1
_symmetry_Int_Tables_number            1

loop_
_symmetry_equiv_pos_as_xyz
   x, y, z

loop_
   _atom_site_label
   _atom_site_fract_x
   _atom_site_fract_y
   _atom_site_fract_z
   _atom_site_charge
C	0.5400996168001851 0.6781944067328664 0.8726358869845193	0.102599
C	0.5430418240452253 0.7706891054087169 0.8703942761709227	-0.146223
C	0.4638129810888576 0.3244645804960621 0.8791032213678922	0.097824
C	0.4606921217280190 0.2319519023915635 0.8794626723059187	-0.139582
C	0.8240112597940046 0.9732157214388325 0.3662773198279470	0.097692
C	0.7316878822489249 0.9708558491888163 0.3635001753251884	-0.136092
C	0.3246691518376303 0.5411928334462343 0.8702278327412719	0.098339
C	0.2321580541500760 0.5448022119427218 0.8678316018227833	-0.147734
C	0.1788512245295382 0.9724182576012991 0.3602754337960658	0.084674
C	0.2712559910652542 0.9706349899480233 0.3573365866162721	-0.133797
C	0.6780881662342939 0.4635077528258372 0.8831300877161714	0.094719
C	0.7704514559233480 0.4604966463781534 0.8829088401466563	-0.137525
C	0.4557202298904063 0.6788510129851986 0.1149907985905833	0.095612
C	0.4521445237109469 0.7712323324410740 0.1162633404878767	-0.134879
C	0.5393153043684181 0.3268252594689139 0.1301497147451084	0.097690
C	0.5419319909816845 0.2342859193694576 0.1350470864859414	-0.148003
C	0.1767388474579650 0.0195739918468751 0.6346557933983263	0.099731
C	0.2689439784983033 0.0215403626060817 0.6403744649590734	-0.135071
C	0.6756164777674638 0.5430690891176110 0.1307169080036857	0.103916
C	0.7681303068733372 0.5463952396294175 0.1345894781933159	-0.146265
C	0.8236270792331083 0.0287373743434328 0.6353818517092883	0.093676
C	0.7313052126105251 0.0296819169876615 0.6414906463389896	-0.136100
C	0.3229874230523050 0.4591537603315315 0.1142932114090621	0.096227
C	0.2305152156846221 0.4564753806913340 0.1155311563976324	-0.137901
C	0.9664201110525992 0.8220680189571792 0.6332021935829059	0.098895
C	0.9649512789703458 0.7296171714461364 0.6382063515605224	-0.135777
C	0.9838511061088452 0.1757092049551597 0.6361157661059412	0.080066
C	0.9806040025460444 0.2679450970505833 0.6396714515971915	-0.135356
C	0.0211870202332926 0.8206211517909671 0.3634990002224782	0.094126
C	0.0232619204204713 0.7283920159653821 0.3597418638312842	-0.138096
C	0.0299095134260164 0.1749150875505768 0.3609141745439093	0.101036
C	0.0304344958644319 0.2672876680180701 0.3557568072703993	-0.135603
C	0.0039229785018426 0.3148028338348145 0.4968711294007361	0.040672
C	0.0011940895047256 0.4123352257509573 0.4970908215845702	0.258378
C	0.4977841184312086 0.8182884355387420 0.9934974943116476	0.054768
C	0.4989088318139008 0.9164691102366206 0.9983471402893078	0.246363
C	0.9950023246360210 0.6817372429368447 0.4998905189022624	0.037986
C	0.9970343516123412 0.5840217079749496 0.4997868774538649	0.250041
C	0.5010817257476612 0.1858298849259521 0.0087335706803455	0.055312
C	0.5004762584812138 0.0875088251502694 0.0093745299347011	0.248754
C	0.6842600710127891 -0.0003106957273066 0.5032365434006130	0.037541
C	0.5865885056123918 0.9977418461037760 0.5044248732383645	0.248351
C	0.1840408070737601 0.5010961282901919 0.9915570663592909	0.055044
C	0.0858216297338535 0.5021965972416154 0.9944516278423891	0.248573
C	0.3173281186215096 0.9959911345432481 0.4997207531710530	0.038489
C	0.4149012372304723 0.9960532355006656 0.5022203641398020	0.256901
C	0.8165796671731602 0.5036039478588201 0.0096329997107334	0.055563
C	0.9148235597690457 0.5035177703863168 0.0071225875917369	0.247844
H	0.5704004338243771 0.6381204451980822 0.7752873372891037	0.106906
H	0.5791555327462741 0.8047307275307902 0.7722360361198736	0.125054
H	0.4371999907435257 0.3630501827431117 0.7765356588849630	0.111233
H	0.4296759355675716 0.1959740485402839 0.7779237099899987	0.120804
H	0.8635092889920428 0.9524449376762331 0.2597079862061084	0.108901
H	0.6974317239198944 0.9475505997702443 0.2534011802051283	0.122004
H	0.3650388317290774 0.5711888596497811 0.7728941103718524	0.106422
H	0.1983914386765058 0.5802879016547481 0.7691947200644942	0.126151
H	0.1412231733049702 0.9572932067934492 0.2491884997952577	0.105846
H	0.3058609074793787 0.9512671623306610 0.2442242917743557	0.117953
H	0.6394026337483270 0.4361667399792395 0.7815639197667301	0.113004
H	0.8063751670389367 0.4278022045650767 0.7824540211345586	0.120083
H	0.4266309093016982 0.6395078146684584 0.2142456834318754	0.113420
H	0.4177477186998175 0.8064063963024162 0.2156073693562887	0.118776
H	0.5671125117002539 0.3675270375565022 0.2290136877466322	0.106349
H	0.5741342039275671 0.2008519693435739 0.2378672632398159	0.126052
H	0.1364240865541764 0.0356254956377823 0.7423385920179302	0.106955
H	0.3021497679513067 0.0413772528781173 0.7537687264421338	0.120436
H	0.6350462944151037 0.5711781682220530 0.2296317932192730	0.107225
H	0.8014208629781068 0.5805124406170795 0.2358189978675687	0.125609
H	0.8629534069813167 0.0484955237510434 0.7415677581849995	0.098499
H	0.6971351477291704 0.0519778560927612 0.7531422567403226	0.122284
H	0.3618911844206115 0.4300104876271686 0.2138376079003470	0.112280
H	0.1948059153443724 0.4233147116249760 0.2152393473890933	0.118822
H	0.9455670426063810 0.8619389124579363 0.7392112553877119	0.108703
H	0.9421085720171615 0.6959002881087181 0.7494784472719942	0.121342
H	0.9697856552160302 0.1374601311127591 0.7470822416259512	0.106023
H	0.9612363083420286 0.3020515564820550 0.7531529357065394	0.121682
H	0.0397369951026866 0.8596533191917620 0.2560782066643533	0.097958
H	0.0457784020352623 0.6938186659796032 0.2487941950722118	0.120384
H	0.0464732192917040 0.1350799473990576 0.2528626491403245	0.107993
H	0.0493976397131948 0.3011889935724271 0.2422882822420909	0.120184
N	0.9450626989948180 0.5406749922659803 0.6099872262260995	-0.142711
N	0.4202591175544562 0.0467703891972121 0.0085926822834851	-0.146915
N	0.5434371471965199 0.0498156397807592 0.6154148608038770	-0.143785
N	0.9557808476751389 0.4233402732506608 0.0023748368262413	-0.141655
N	0.0510864673504030 0.5435194040815433 0.3884344452634981	-0.143114
N	0.5798427054875173 0.0451936856204634 0.0111875735363149	-0.151487
N	0.9568426383539504 0.5830077498199201 0.0051832655717580	-0.146849
N	0.5459399106617009 0.9432413362308896 0.3950508164398056	-0.140101
N	0.0536475428831375 0.4557581900140530 0.3879119285561821	-0.138208
N	0.5790957241602507 0.9572061597035496 0.0009594084872115	-0.144218
N	0.4581672460036503 0.9423015359947053 0.3941978076120833	-0.133897
N	0.0448164256239341 0.5822917587265777 0.9943981522686692	-0.149215
N	0.9467229559497107 0.4528518156791325 0.6076120891108784	-0.136843
N	0.4195229712412832 0.9587283835421131 0.0068942023486642	-0.140201
N	0.0437928423379779 0.4226766920778916 0.9995649564454278	-0.146939
N	0.4556223817351748 0.0490602431289757 0.6138768261817497	-0.141075
N	0.0062041273812482 0.1298898683529789 0.4982987230567320	-0.169913
N	0.4984002364861221 0.6330678550003290 0.9943597630976991	-0.182098
N	0.9949570547973551 0.8668517126227463 0.4984541540370147	-0.167751
N	0.5015505531059674 0.3710290633581946 0.0035629642405368	-0.182877
N	0.8692895110030229 0.0015182029304076 0.5002859912271452	-0.168427
N	0.3692429805818377 0.5001799155947717 0.9928101992787814	-0.181364
N	0.1323604609112164 0.9955778254144770 0.4970175162646623	-0.170878
N	0.6313903114126174 0.5032641236958711 0.0060493044084709	-0.185001
Co	0.0006996156882820 0.9984029431934688 0.4983208558334182	0.569057
Co	0.5001832963443515 0.5020153531858564 0.9992656140852930	0.589593
Ga	0.9981089246474463 0.9956344516142736 0.9985924623993745	1.439535
Ga	0.4980778092808728 0.5018404990842614 0.4994498727670220	1.457833
F	0.0000221278828867 -0.0012675250081904 0.2352689477869652	-0.547299
F	0.5075040419704874 0.4982106724490869 0.7362235262952476	-0.557622
F	0.0001022048928846 0.9957885844974503 0.7616617161191099	-0.547384
F	0.4917706846986227 0.5073079916712073 0.2624354580190089	-0.558968
F	0.9110576664526998 0.9101460839313267 0.0005570312493848	-0.575398
F	0.4139734860706724 0.4127696293834081 0.5037118532360483	-0.595935
F	0.9646063712677623 0.1134065786322611 0.9946065472733480	-0.570706
F	0.4614017298963463 0.6186443029590775 0.5135779318731009	-0.597878
F	0.1157079028835425 0.9614586842441790 0.0000042070892276	-0.570596
F	0.6167142648828897 0.4715363421219632 0.4816906918840407	-0.597444
	  	
