#======================================================================

# CRYSTAL DATA

#----------------------------------------------------------------------

data_VESTA_phase_1


_pd_phase_name                         GaFFIVE_7_Cu
_cell_length_a                         18.93250
_cell_length_b                         18.93239
_cell_length_c                         8.23008
_cell_angle_alpha                      89.89975
_cell_angle_beta                       90.09940
_cell_angle_gamma                      90.03661
_symmetry_space_group_name_H-M         P 1
_symmetry_Int_Tables_number            1

loop_
_symmetry_equiv_pos_as_xyz
   x, y, z

loop_
   _atom_site_label
   _atom_site_fract_x
   _atom_site_fract_y
   _atom_site_fract_z
   _atom_site_charge
C	0.6660509005761290 0.8693136186504302 0.6969823348141749	0.098412
C	0.6144757314889826 0.9215248227511522 0.6997686317659854	-0.175461
C	0.5810789312650310 0.8876266406444334 0.4295077198622669	-0.170459
C	0.6334457877163765 0.8365338251010608 0.4349351667462475	0.099229
C	0.8342972614599087 0.6307125717860540 0.6952469883224687	0.103004
C	0.8856897685745698 0.5784083547905108 0.6993514457264156	-0.175807
C	0.9190283296259087 0.6123668694244875 0.4291026163603832	-0.170047
C	0.8667823846393318 0.6636966242123439 0.4332883481183380	0.094529
C	0.6306785818537929 0.6654945248604377 0.6962877408423764	0.098987
C	0.5782924602786045 0.6140674184351441 0.6996076000417598	-0.174055
C	0.6120708422254739 0.5808698035985733 0.4294304584932792	-0.169219
C	0.6632254090426770 0.6332911990960313 0.4341274972632005	0.094994
C	0.8695287281494557 0.8332326220646034 0.6956836602408699	0.101111
C	0.9215566065906746 0.8849882339342476 0.6993942913458898	-0.176344
C	0.8870375156802611 0.9189441415449481 0.4296011149428720	-0.171383
C	0.8355445182287159 0.8668693648835925 0.4347842176198722	0.098359
C	0.3332332187048080 0.3695292301477300 0.3043190629481262	0.101209
C	0.3849889065321377 0.4215576278568557 0.3006092450328371	-0.176381
C	0.4189429715667209 0.3870363983468387 0.5704021997049430	-0.171447
C	0.3668687595508874 0.3355424014097515 0.5652196110599634	0.098490
C	0.1654981405482321 0.1306790277530499 0.3037130701111220	0.099092
C	0.1140709811661093 0.0782937932962659 0.3003941627617377	-0.174024
C	0.0808718789397245 0.1120711857139860 0.5705714789118378	-0.169116
C	0.1332925093620069 0.1632248963027346 0.5658737871220085	0.094978
C	0.3693144520374576 0.1660500186332914 0.3030138986910275	0.098570
C	0.4215260429480131 0.1144757612024668 0.3002302050390556	-0.175490
C	0.3876270011930705 0.0810791601064747 0.5704936638773963	-0.170559
C	0.3365327604640350 0.1334443738361185 0.5650635549948916	0.099372
C	0.1307142160913816 0.3342976313020914 0.3047517911047445	0.103028
C	0.0784094497497515 0.3856888186537032 0.3006502729315190	-0.175766
C	0.1123682882999728 0.4190262290825357 0.5708965264013831	-0.170113
C	0.1636985650849477 0.3667813465240517 0.5667094834928639	0.094508
C	0.4322390271339577 0.0707451074088990 0.4361564012116428	0.140538
C	0.4871641624560838 0.0168041503950121 0.4334914159277786	-0.121758
C	0.0676537196417015 0.4293454503141136 0.4362854438345395	0.141066
C	0.0126445567472895 0.4832254240176729 0.4334610977146004	-0.121387
C	0.4289936048529688 0.4320104064344925 0.4361679212892560	0.144459
C	0.4829723251970858 0.4870150982744898 0.4334895030813826	-0.125809
C	0.0704513711065556 0.0674849796740764 0.4361521559619501	0.138582
C	0.0165477469242991 0.0124868488516468 0.4334085897474476	-0.119131
C	0.5674839322867942 0.5704489716672051 0.5638502798744796	0.138663
C	0.5124862706016386 0.5165465555458745 0.5665937702069787	-0.119075
C	0.9320103553250110 0.9289943334353680 0.5638366641210081	0.144438
C	0.9870146608773815 0.9829723799177171 0.5665135235373915	-0.125804
C	0.5707450707609842 0.9322378530469436 0.5638449425954676	0.140459
C	0.5168043115819485 0.9871637690507156 0.5665129748387535	-0.121763
C	0.9293473096079190 0.5676524636763576 0.5637163140975971	0.140981
C	0.9832268598629039 0.5126434893865307 0.5665422745267025	-0.121260
H	0.7000025865858438 0.8593330338879798 0.8019295202416705	0.108393
H	0.6086140068451164 0.9542286280651535 0.8078245906120781	0.118595
H	0.5476242643759111 0.8915909827121767 0.3221023113937909	0.116627
H	0.6436289497913830 0.8015406277909095 0.3327948140540534	0.101511
H	0.8000122463730033 0.6410928753428308 0.7985456827200935	0.101067
H	0.8916002375507076 0.5457654475664010 0.8077238114157130	0.117054
H	0.9525070146859992 0.6085238536158856 0.3219430344486159	0.118448
H	0.8572048093970511 0.6985422869326020 0.3296614942748739	0.107826
H	0.6415828533475468 0.6986688096910747 0.8013804854555178	0.106496
H	0.5458428901793814 0.6080614472732067 0.8080129868890905	0.117944
H	0.6080370539719576 0.5476791445396957 0.3218880245903875	0.117834
H	0.6971968435204848 0.6438797076792252 0.3301925910477681	0.106504
H	0.8603142503418199 0.7979624944516776 0.7984906744998893	0.104572
H	0.9544854376239579 0.8907525002555186 0.8073385191366195	0.118026
H	0.8908087678570480 0.9526730761214579 0.3225985882186387	0.117393
H	0.7994800426293752 0.8579216915110229 0.3332949519505824	0.103894
H	0.2979644571865562 0.3603145982173621 0.2015139515905155	0.104508
H	0.3907540215934729 0.4544873824807601 0.1926661379955805	0.118043
H	0.4526712177408417 0.3908061255560652 0.6774038907122689	0.117389
H	0.3579218079691160 0.2994764783793187 0.6667075239567369	0.103915
H	0.1986723496323455 0.1415826976846113 0.1986170821803629	0.106496
H	0.1080645297261778 0.0458443593297896 0.1919885419263774	0.117930
H	0.0476809724186711 0.1080352569437427 0.6781138494288720	0.117805
H	0.1438819316997674 0.1971943382215686 0.6698085918193016	0.106516
H	0.3593359402350642 0.2000028647356461 0.1980666668683060	0.108378
H	0.4542310409919912 0.1086135293128797 0.1921759057703950	0.118567
H	0.3915913276961077 0.0476247554187057 0.6779002009338500	0.116669
H	0.3015382959790763 0.1436274279244594 0.6672024346386523	0.101519
H	0.1410945895859323 0.3000149458888745 0.2014498770313299	0.101065
H	0.0457665647562114 0.3915995132039087 0.1922786756964921	0.117074
H	0.1085243489340138 0.4525034022735847 0.6780576114876642	0.118488
H	0.1985416967119007 0.3572023886945558 0.6703394769202150	0.107842
H	0.5064700671755950 0.0016141560496217 0.3132175855157638	0.103701
H	0.9931595560275063 0.4986927928384257 0.3132508142100119	0.103092
H	0.4983504219251364 0.5064051373889109 0.3132082283851371	0.104747
H	0.0012164462491497 0.9930493887943520 0.3132349055485312	0.102644
H	0.4930470565311458 0.5012149874562700 0.6867671843070876	0.102618
H	0.0064040002161804 0.9983495318710398 0.6867943816170823	0.104760
H	0.5016150838233625 0.0064690203493971 0.6867863852511943	0.103703
H	0.9986937303892049 0.4931587866705931 0.6867533923711792	0.103073
Cu	0.2497737402525156 0.2498175311314507 0.4337736104468048	0.723553
Cu	0.7498185877498551 0.7497736533303504 0.5662313526410171	0.723515
Ga	0.2508330438169504 0.2509704947829863 0.9350425958636278	1.462068
Ga	0.7509550410677285 0.7508404635834836 0.0649600009552796	1.462168
F	0.2507781237747170 0.2491240704590902 0.1678883282677493	-0.587372
F	0.2490163430916511 0.2505143580551706 0.7016741566293151	-0.586467
F	0.7491117094714043 0.7507822127700319 0.8320856063309253	-0.587406
F	0.7505140134759855 0.7490119146162436 0.2983270861805859	-0.586405
F	0.1809056899472092 0.1823862804668364 0.9355640805159875	-0.600439
F	0.2282703035988408 0.3459887031709930 0.9375727508997792	-0.601281
F	0.3454462521586935 0.2267834470194324 0.9320544207231723	-0.601014
F	0.7267488604938767 0.8454477939024029 0.0679549893778066	-0.601053
F	0.8459938480824833 0.7283419552112181 0.0623737990219186	-0.601315
F	0.6824207964091280 0.6808643241501792 0.0644286916313522	-0.600462
N	0.3275386078469069 0.1751758831274990 0.4337522612639967	-0.222197
N	0.1725104230076811 0.3250072492327857 0.4355261241873068	-0.220952
N	0.3245935855312556 0.3272187123020217 0.4345303792426882	-0.220374
N	0.1748723479450498 0.1723127164923294 0.4345305748687754	-0.224821
N	0.6723131052202219 0.6748704426712377 0.5654708091910994	-0.224740
N	0.8272197466821342 0.8245931910567804 0.5654721464768137	-0.220243
N	0.6751772015956596 0.8275390742971067 0.5662441059652359	-0.221962
N	0.8250074669092857 0.6725089380060232 0.5644712389476387	-0.220928
	  	
