#======================================================================

# CRYSTAL DATA

#----------------------------------------------------------------------

data_VESTA_phase_1


_pd_phase_name                         GaFFIVE_3_Co
_cell_length_a                         14.22639
_cell_length_b                         14.22602
_cell_length_c                         8.00004
_cell_angle_alpha                      89.99746
_cell_angle_beta                       90.00453
_cell_angle_gamma                      88.99452
_symmetry_space_group_name_H-M         P 1
_symmetry_Int_Tables_number            1

loop_
_symmetry_equiv_pos_as_xyz
   x, y, z

loop_
   _atom_site_label
   _atom_site_fract_x
   _atom_site_fract_y
   _atom_site_fract_z
   _atom_site_charge
C	0.2635596244701738 0.4517803831128909 0.6389986509673821	0.059003
C	0.2350574363728647 0.0512635106067301 0.6426645175407426	0.063749
C	0.2360182341302314 0.4533006898430422 0.3556304954028733	0.055836
C	0.2631196015585662 0.0496394148550392 0.3598267835089221	0.064114
C	0.0496363215441354 0.2631244244497471 0.3598479805547447	0.064207
C	0.4532750297284441 0.2360326437991901 0.3556075259370898	0.055951
C	0.4517997588386511 0.2635723790286725 0.6389534239756224	0.059154
C	0.0512830315210573 0.2350597277051773 0.6426870595799994	0.063890
C	0.9533019956360501 0.2358855087152427 0.6443123091054950	0.055562
C	0.5496535931531833 0.2632462337657543 0.6401207426992462	0.063810
C	0.5512582583004133 0.2352160980349614 0.3572709863729913	0.063612
C	0.9517815653040597 0.2634536472958479 0.3609630291510603	0.059321
C	0.7351956506366970 0.0512572020932115 0.3572433534354226	0.063856
C	0.7634741195485732 0.4517781246507689 0.3609122990643861	0.058786
C	0.7632361438021238 0.0495874440640014 0.6402148596753727	0.064133
C	0.7358250247751134 0.4532863515803739 0.6443301679519098	0.055362
C	0.4532932934585731 0.7358541292606344 0.6443110673259739	0.055185
C	0.0496383960319020 0.7632378490974865 0.6401488274344346	0.063819
C	0.0512599789716739 0.7352180310208087 0.3573596422626548	0.063361
C	0.4517396844897880 0.7634996254414620 0.3610113565456680	0.058726
C	0.2351978407882924 0.5512800961512945 0.3572477225004709	0.063745
C	0.2634353110600574 0.9517848451344456 0.3609940824067008	0.059229
C	0.2632353713411599 0.5496362450881479 0.6401068283346202	0.063869
C	0.2358742893257808 0.9532847688168903 0.6443318066420692	0.055767
C	0.7635629539246583 0.9517351101129895 0.6390493758986860	0.059181
C	0.7350539799697114 0.5512569100474276 0.6426282527886692	0.063706
C	0.7359944341574644 0.9532754769423939 0.3556689178271816	0.055714
C	0.7631537390078379 0.5496263929221680 0.3597782626829884	0.064133
C	0.5495974293409537 0.7631627246740872 0.3598680255124752	0.064011
C	0.9532862807202169 0.7359912598317807 0.3556414301065358	0.055821
C	0.9517946891086396 0.7635779090776742 0.6389924202595341	0.059154
C	0.5512677307135637 0.7350656513678034 0.6427464002552764	0.063822
H	0.2718444794232024 0.4120526161167728 0.7545185028642277	0.108680
H	0.2222077051114803 0.0911204110711225 0.7570559506275177	0.105603
H	0.2251882238873435 0.4150981955769094 0.2391148625879279	0.112469
H	0.2728822657442114 0.0885839436529244 0.2442549648679178	0.104529
H	0.0885746991919601 0.2728867515478909 0.2442762122794573	0.104378
H	0.4150834412405841 0.2252158043037593 0.2390867547121310	0.112347
H	0.4120671684830506 0.2718661855465007 0.7544367701873579	0.108558
H	0.0911317104835223 0.2221953711787048 0.7571217313499827	0.105592
H	0.9151269489518057 0.2250583033073779 0.7608473840028094	0.112526
H	0.5886164838970529 0.2729942290047763 0.7557006077376583	0.104463
H	0.5910864697522422 0.2223787232783001 0.2428392276824878	0.105826
H	0.9120377625517758 0.2717456409095786 0.2454426423923829	0.108267
H	0.7223317969501739 0.0911049063590081 0.2427935234409728	0.105851
H	0.7718463316857804 0.4119976855139074 0.2454750184646113	0.108729
H	0.7729098432110341 0.0885887530568270 0.7557930932260317	0.104296
H	0.7250191945052308 0.4150804749325450 0.7608400597934160	0.112481
H	0.4151152701127848 0.7249922245291465 0.7608133062080205	0.112432
H	0.0885472144227933 0.7729010238665276 0.7557418241269600	0.104392
H	0.0910817172407750 0.7223336700421628 0.2429528178377382	0.105590
H	0.4120339262368051 0.7718906447792170 0.2455303129743300	0.108538
H	0.2223475415997560 0.5911129133204874 0.2428056548359645	0.105726
H	0.2717277754397710 0.9120353888081163 0.2455270271234219	0.108375
H	0.2729879023978976 0.5886088357677195 0.7556677367627994	0.104427
H	0.2250622070116918 0.9151116815846299 0.7608708814174081	0.112490
H	0.7718066453854961 0.9120443396002988 0.7545716779278430	0.108369
H	0.7223091678189536 0.5911013126456746 0.7570144822793428	0.105441
H	0.7251018849165015 0.9150822024232514 0.2391832319716597	0.112326
H	0.7729780057025326 0.5885473158018205 0.2442361319251374	0.104308
H	0.5885807055004489 0.7729724340211525 0.2443055507583090	0.104250
H	0.9150817937402761 0.7250496302745394 0.2391471181763438	0.112445
H	0.9120277797175381 0.7718180771230838 0.7544989796189205	0.108559
H	0.5911129322110594 0.7222969611858121 0.7572137644273724	0.105779
Co	0.2510853998171381 0.2510710609759704 0.4970714618826371	0.824920
Co	0.7511031229740727 0.2510891819597322 0.5029374855053642	0.825125
Co	0.2510801659185413 0.7511028597738885 0.5029186702921291	0.825032
Co	0.7510918794356887 0.7510643735173608 0.4970639665472038	0.825149
Ga	0.2487484343007578 0.2487425221871435 -0.0033409164533879	1.444357
Ga	0.7488184447436335 0.2488106877805418 0.0033851104171579	1.444448
Ga	0.2488240660652682 0.7487910058230410 0.0033591558279513	1.444526
Ga	0.7487052752129302 0.7487272623675639 -0.0033930124010688	1.444546
F	0.2529331838324890 0.2529877613853477 0.7494684717222184	-0.556644
F	0.2500607309206575 0.2500096693510354 0.2437329700620965	-0.559135
F	0.1594339108720501 0.1593237017809101 -0.0098064011547060	-0.550549
F	0.2108569653525220 0.3715100587308125 0.9976808708656379	-0.547371
F	0.3715524175896049 0.2110151448912794 0.9974471297165769	-0.547389
F	0.7500742389584786 0.2501320258802440 0.7562752087431523	-0.559229
F	0.7529764428564230 0.2529212413052504 0.2506063025838351	-0.556873
F	0.6593707836385009 0.1595377573418179 0.0099433382435894	-0.550442
F	0.7111882788427912 0.3716251131430259 0.0027433326510227	-0.547304
F	0.8715490279331255 0.2108268907445207 0.0024583347861459	-0.547357
F	0.2500919478890800 0.7500710625797715 0.7562992107855326	-0.559277
F	0.2529635289906089 0.7529493777662930 0.2505574735793497	-0.556737
F	0.1593462619820815 0.6595470657728885 0.0099637959360443	-0.550606
F	0.2111412982682528 0.8715808228131079 0.0025926255269225	-0.547380
F	0.3715650175096226 0.7108411157227346 0.0025237437454965	-0.547522
F	0.7527502604652820 0.7527548583312815 0.7493856938240223	-0.556652
F	0.7500077607187478 0.7499651879701396 0.2437556321775683	-0.559329
F	0.6591718177861358 0.6595257299014899 -0.0097424461990535	-0.550552
F	0.7112581114040669 0.8715844180575764 0.9973340502520776	-0.547325
F	0.8715224109418943 0.7110285317048387 0.9973795984575984	-0.547510
N	0.4033799130878617 0.2505297731059785 0.4965435111463657	-0.214222
N	0.0996625241870296 0.2493557641153095 0.5006333374879598	-0.213829
N	0.2505037044739599 0.4033922630943232 0.4965710097697703	-0.214071
N	0.2493810496349487 0.0996561247958943 0.5006293704890563	-0.213707
N	0.9033939804168193 0.2505251153366822 0.5034332565754684	-0.213858
N	0.5996636404960498 0.2493665200770641 0.4993541688786746	-0.213468
N	0.7505939155253911 0.4033846169137046 0.5034368498994771	-0.213931
N	0.7492642511719726 0.0995986353506744 0.4994339698959314	-0.214035
N	0.4033417320007368 0.7506294658162972 0.5034890638796227	-0.213512
N	0.0996756533973650 0.7492658257136168 0.4994554403445395	-0.213177
N	0.2505299637579893 0.9033740983884008 0.5034561649252773	-0.213955
N	0.2493390227697178 0.5996633127446983 0.4993550009620035	-0.213479
N	0.9033925113282507 0.7504656539323714 0.4965765067116351	-0.214252
N	0.5996184146981435 0.7494217135040299 0.5006743968281305	-0.213667
N	0.7504537512606059 0.9033401259305788 0.4966066242680538	-0.214177
N	0.7494173933166287 0.5996573839021315 0.5005841897193443	-0.213209
	  	
