#======================================================================

# CRYSTAL DATA

#----------------------------------------------------------------------

data_VESTA_phase_1


_pd_phase_name                         GaFFIVE_16_Fe_i
_cell_length_a                         25.23595
_cell_length_b                         25.23594
_cell_length_c                         7.80607
_cell_angle_alpha                      90.00096
_cell_angle_beta                       89.99821
_cell_angle_gamma                      90.00856
_symmetry_space_group_name_H-M         P 1
_symmetry_Int_Tables_number            1

loop_
_symmetry_equiv_pos_as_xyz
   x, y, z

loop_
   _atom_site_label
   _atom_site_fract_x
   _atom_site_fract_y
   _atom_site_fract_z
   _atom_site_charge
C	0.4780869676327616 0.3858721474159251 0.3698417154179892	0.098439
C	0.4772172180394465 0.3308467996999485 0.3649498946301548	-0.173764
C	0.9551644856126914 0.6127558759978236 0.9436190251057333	-0.127166
C	0.9553236146319956 0.5577157425728840 0.9443447749288367	-0.122578
C	0.5219875055603460 0.6144773840061294 0.3685019572275177	0.105383
C	0.5229413704424559 0.6694510623311272 0.3633491547529413	-0.173033
C	0.0448369825582549 0.3873767289813771 0.9435580481480893	-0.127168
C	0.0446706136067634 0.4424105263434628 0.9442753181589258	-0.122451
C	0.6143705539729377 0.4780135258830990 0.3709891718791419	0.099231
C	0.6693572383651955 0.4771167944350379 0.3658003562731456	-0.172904
C	0.3873567609334287 0.9551510959361856 0.9436177362551913	-0.126770
C	0.4423905809226802 0.9553096515623445 0.9443556101724768	-0.122394
C	0.3858896688871059 0.5219385499504634 0.3692261493439253	0.100791
C	0.3308848345386247 0.5228180082200112 0.3637862712188254	-0.173195
C	0.6127614870791592 0.0448348347328396 0.9435756769333796	-0.127141
C	0.5577206518153747 0.0446616467176923 0.9443094304251174	-0.122619
C	0.5219388701034465 0.3858891387474533 0.6307696852711155	0.100673
C	0.5228181562037826 0.3308843913926840 0.6362116732482033	-0.173154
C	0.0448346823679780 0.6127612085423982 0.0564238152392106	-0.127246
C	0.0446616061161447 0.5577203612005086 0.0556906192173958	-0.122689
C	0.4780134365163554 0.6143705387100211 0.6290142237968759	0.099264
C	0.4771166208693972 0.6693573224736373 0.6341998404166166	-0.172823
C	0.9551510578405521 0.3873566194552865 0.0563806847252300	-0.126761
C	0.9553097530776553 0.4423905023530894 0.0556443551092690	-0.122421
C	0.3858720371952281 0.4780863335730058 0.6301550411138870	0.098509
C	0.3308468040274100 0.4772169143896909 0.6350500449322056	-0.173806
C	0.6127558665212252 0.9551641875036480 0.0563808097142090	-0.127085
C	0.5577157326469021 0.9553232036272548 0.0556556377706432	-0.122599
C	0.6144776032162416 0.5219873143605651 0.6315002096915203	0.105335
C	0.6694512376000638 0.5229413558431572 0.6366490096904652	-0.173008
C	0.3873765258425924 0.0448365979857812 0.0564397343894132	-0.127110
C	0.4424102602379194 0.0446702077075842 0.0557234550454311	-0.122407
C	0.5448396358399066 0.8873911450504072 0.5564448444040595	-0.127313
C	0.5446801008049466 0.9424193290468674 0.5557391772684361	-0.122241
C	0.0219822071666873 0.1144428999991726 0.1314805332656039	0.104988
C	0.0229198702229834 0.1694170312173235 0.1366760947667078	-0.172695
C	0.4551585485403075 0.1127418027582871 0.5563918788947871	-0.126814
C	0.4553115186504331 0.0577078542247153 0.5556746649949831	-0.122854
C	0.9780919871039255 0.8859152817142205 0.1301623637175247	0.098662
C	0.9772193599639620 0.8308900579076933 0.1350809733479093	-0.173676
C	0.1127466267357685 0.5448406519891673 0.5564323586201244	-0.127369
C	0.0577117427741627 0.5446741445858826 0.5557072931034117	-0.122719
C	0.8859260263453712 0.0219370453177608 0.1307738935757786	0.101015
C	0.8309217613860762 0.0228154845451976 0.1362276392842038	-0.173520
C	0.8873714590218569 0.4551459964713384 0.5563886844247701	-0.126441
C	0.9423993899281591 0.4553005080336910 0.5556594038045874	-0.122460
C	0.1143266035852408 0.9780207166733359 0.1290227935743851	0.099115
C	0.1693170098625291 0.9771297838903571 0.1342497801481849	-0.172754
C	0.4551463755537909 0.8873714035484462 0.4436108887821367	-0.126504
C	0.4553006767622443 0.9423992703563522 0.4443403735018105	-0.122468
C	0.9780212395402640 0.1143269563717915 0.8709789221076288	0.099074
C	0.9771301761215732 0.1693171115071047 0.8657505054687832	-0.172747
C	0.5448409955358517 0.1127462587778381 0.4435675918671776	-0.127233
C	0.5446743904911254 0.0577116301245565 0.4442917163381221	-0.122746
C	0.0219373829815917 0.8859265028243731 0.8692245682281354	0.101011
C	0.0228156707321054 0.8309220806100887 0.8637715178915115	-0.173529
C	0.8873914693131335 0.5448396109749600 0.4435540249118506	-0.127366
C	0.9424197218868856 0.5446802805627089 0.4442598028191155	-0.122309
C	0.1144432892075805 0.0219822000489421 0.8685193828963557	0.104983
C	0.1694173670433633 0.0229200866044773 0.8633226677523984	-0.172687
C	0.1127422091256765 0.4551585737228621 0.4436076562376370	-0.126888
C	0.0577082363845634 0.4553117937622611 0.4443247479702161	-0.122822
C	0.8859155988926017 0.9780918586929026 0.8698378215938163	0.098772
C	0.8308905049496129 0.9772194580250254 0.8649198455108916	-0.173805
C	0.4999771288933796 0.3019740352436549 0.5006780967606578	0.171033
C	0.4999988295190111 0.2457826005625904 0.5005750383339573	-0.115284
C	0.5000198666520123 0.1974417909346698 0.5002125805158435	-0.098332
C	0.5000069684894892 0.1412284875609932 0.5000130302109512	0.125945
C	0.4999917995337637 0.0292367127571409 0.4999983729073859	0.065832
C	-0.0000246954576625 0.8020122283094058 -0.0006716625875140	0.171564
C	0.0000005104020505 0.7458045907755042 -0.0005883080233713	-0.115635
C	0.0000198246717020 0.6974628327180515 -0.0002086800691286	-0.098120
C	0.0000068017171120 0.6412470010004255 -0.0000099175688735	0.126117
C	-0.0000086008521701 0.5292292125437632 0.0000028672107368	0.065936
C	0.4999753288036596 0.6982617683129657 0.4987841316066871	0.170307
C	0.5000099831001351 0.7544113304178752 0.4991911418550901	-0.115057
C	0.5000190970988956 0.8027368868678766 0.4997003698543287	-0.098272
C	0.5000005679094169 0.8589211540079199 0.4999837465064205	0.124646
C	0.4999901629771549 0.9708692170324816 0.5000285556098457	0.064307
C	-0.0000270985128871 0.1982260659350199 0.0011994123220543	0.169904
C	0.0000108717337917 0.2543898609751359 0.0008064789785733	-0.114280
C	0.0000211158127146 0.3027203449522902 0.0002869513439506	-0.098910
C	0.0000019306038899 0.3589055769484025 0.0000097626118559	0.124898
C	-0.0000106573772615 0.4708755678604394 -0.0000287632323289	0.064613
C	0.6982618301275449 0.4999752575043122 0.5012136986975367	0.170371
C	0.7544113865475603 0.5000095964256487 0.5008051745350365	-0.115114
C	0.8027371088773916 0.5000185825293515 0.5002974132685617	-0.098203
C	0.8589213378611038 0.5000002288937232 0.5000150615268122	0.124628
C	0.9708694648696699 0.4999902409790972 0.4999707229774689	0.064423
C	0.1982260243100843 -0.0000271764992185 -0.0012009676005208	0.169953
C	0.2543898194181197 0.0000112709939517 -0.0008082040143953	-0.114323
C	0.3027203053004721 0.0000213224082118 -0.0002889618125325	-0.098876
C	0.3589055057359016 0.0000018434083890 -0.0000124434951055	0.124884
C	0.4708753956557791 -0.0000110403448873 0.0000285702980483	0.064652
C	0.3019742384441909 0.4999769983600175 0.4993218286430000	0.171071
C	0.2457828155846613 0.4999986502152895 0.4994262908074543	-0.115298
C	0.1974419988989355 0.5000194646654613 0.4997877926042598	-0.098288
C	0.1412287450330978 0.5000066221621275 0.4999866480596459	0.125985
C	0.0292369653256242 0.4999919022150265 0.5000008619673096	0.065773
C	0.8020122660267922 -0.0000246965708803 0.0006718760178210	0.171549
C	0.7458047596375237 0.0000007153367327 0.0005887965924039	-0.115656
C	0.6974629106110281 0.0000200384897457 0.0002086837683413	-0.098082
C	0.6412471733847956 0.0000068074232256 0.0000096631877403	0.126032
C	0.5292293481450920 -0.0000088385339083 -0.0000026772301691	0.065740
H	0.4613135073367361 0.4093047309350273 0.2653084535324955	0.099458
H	0.4592490315003881 0.3104659289075149 0.2566486370507438	0.124597
H	0.9205355695313358 0.6344156021550601 0.8982032156603483	0.111482
H	0.9207603620128392 0.5363065806073224 0.8968186840418566	0.105520
H	0.5386468741791766 0.5909947475667655 0.2645314987661620	0.093680
H	0.5410765088654356 0.6898716520026605 0.2554906547394513	0.123015
H	0.0794477137746558 0.3656751147973354 0.8981989950266676	0.111291
H	0.0792399794485811 0.4638180016702216 0.8967907392201365	0.105365
H	0.5909873894835687 0.4618393868915049 0.2657048292532291	0.101107
H	0.6896645059782147 0.4592126539484202 0.2572810220862947	0.124454
H	0.3656398619848680 0.9205476179366701 0.8982260246792895	0.111611
H	0.4637795438955636 0.9207429545308200 0.8968209947076757	0.105561
H	0.4095373509540165 0.5391548469216785 0.2661563353518808	0.093137
H	0.3105054997687398 0.5409141194798617 0.2557590453459719	0.123281
H	0.6344238153700908 0.0794713614371901 0.8981709289687277	0.111113
H	0.5363131332126696 0.0792224093467402 0.8968135120185734	0.105244
H	0.5391548605294648 0.4095368291395408 0.7338380690422326	0.093181
H	0.5409139139466032 0.3105050804031121 0.7442396733916684	0.123284
H	0.0794709326554689 0.6344235036685472 0.1018279056198009	0.111157
H	0.0792222980244255 0.5363128954108449 0.1031853024747400	0.105276
H	0.4618383900945852 0.5909876873367009 0.7342995799192508	0.101082
H	0.4592121155951027 0.6896647668462202 0.7427180077689310	0.124422
H	0.9205478394486850 0.3656397888518294 0.1017732445160866	0.111636
H	0.9207427793865266 0.4637791941176498 0.1031791045689294	0.105558
H	0.4093049096281310 0.4613127119357457 0.7346868917865592	0.099458
H	0.3104658850060063 0.4592489148227778 0.7433529130129548	0.124594
H	0.6344154915914697 0.9205350899803422 0.1017966666881099	0.111459
H	0.5363063939719370 0.9207596568632559 0.1031811158272593	0.105555
H	0.5909952167265107 0.5386465098582405 0.7354718188232544	0.093645
H	0.6898718279030401 0.5410765965292385 0.7445056593075858	0.123030
H	0.3656749106470696 0.0794472293559580 0.1017997800104500	0.111291
H	0.4638176486440293 0.0792394420277940 0.1032072810891498	0.105319
H	0.5794424680254587 0.8656970256230940 0.6017948680975593	0.111326
H	0.5792336456469487 0.9638464762120095 0.6032091684594870	0.105327
H	0.0386338705233800 0.0909486085731881 0.2354084007182922	0.093694
H	0.0410822598908041 0.1898376384240765 0.2445198021361756	0.122948
H	0.4205373277130867 0.1343973879913718 0.6017972944407906	0.111353
H	0.4207617982188620 0.0362789206282118 0.6031891319466922	0.105805
H	0.9613299496847570 0.9093729588158734 0.2346563223422776	0.099365
H	0.9592501150030166 0.8105043995814765 0.2434065251903362	0.124613
H	0.1344032957391902 0.5794686338865211 0.6018262254053375	0.111330
H	0.0362836997915736 0.5792216947657425 0.6031909638573828	0.105401
H	0.9095892430642989 0.0391408596940540 0.2338202493528444	0.093028
H	0.8105430116871489 0.0409111144069864 0.2442898065110478	0.123348
H	0.8656603677242999 0.4205505403442206 0.6017733873235003	0.111602
H	0.9638067316641762 0.4207497242985021 0.6031733572138781	0.105589
H	0.0909239882375184 0.9618473239740578 0.2342429197808134	0.101034
H	0.1896284341104979 0.9592106860843470 0.2427617532917954	0.124612
H	0.4205511941431208 0.8656604125148546 0.3982266553506318	0.111632
H	0.4207500892525621 0.9638067345346263 0.3968267577224516	0.105625
H	0.9618473999926833 0.0909244188295566 0.7657610064289687	0.101068
H	0.9592109583627327 0.1896285638124612 0.7572377210180810	0.124620
H	0.5794692684338029 0.1344033159456702 0.3981728324852528	0.111263
H	0.5792220049190496 0.0362835864714530 0.3968078506245447	0.105394
H	0.0391410721992740 0.9095900543502476 0.7661767134087495	0.093008
H	0.0409112696862369 0.8105436795188050 0.7557086665391026	0.123342
H	0.8656973914706096 0.5794425715505289 0.3982038312787724	0.111348
H	0.9638468556245356 0.5792342141695416 0.3967893848256045	0.105332
H	0.0909491209012220 0.0386336733656195 0.7645909548840060	0.093718
H	0.1898383289763308 0.0410824241542346 0.7554773850269936	0.122922
H	0.1343977695200053 0.4205373623920899 0.3982023008181382	0.111369
H	0.0362794172887642 0.4207622718847629 0.3968107254137938	0.105817
H	0.9093735056265349 0.9613299655582828 0.7653439525451620	0.099396
H	0.8105050233330027 0.9592504605010815 0.7565952310379347	0.124604
Fe	0.5001637456667497 0.5001628588051470 0.5000039748882830	0.788055
Fe	0.0001663149901980 0.0001661562157902 0.0000003408539553	0.788965
Ga	0.4989404059126413 0.4989434849781742 0.0000077037224638	1.462720
Ga	-0.0009810433407187 -0.0009759242040678 0.4999986962946287	1.461866
F	0.5017128910375803 0.4981785838015142 0.2473848109974416	-0.520747
F	-0.0017569383026217 0.0017187369419010 0.7474385159834771	-0.520735
F	0.4981723399158864 0.5017037949330865 0.7526292242312678	-0.520715
F	0.0017173112340509 -0.0017551860326538 0.2525610495331967	-0.520738
F	0.4477422875043554 0.4477297567581557 0.0000315870337341	-0.582295
F	0.9477856590610907 0.9477882365998144 0.5000011476080035	-0.582283
F	0.4787052737067498 0.5684745405108927 0.0074944978051582	-0.584356
F	0.9787812823009088 0.0686261205107240 0.4926372778970136	-0.584094
F	0.5684753159612594 0.4787197499117983 0.9925071470430432	-0.584444
F	0.0686216944377612 0.9787867267255991 0.5073577981733569	-0.584112
N	0.5000103563135984 0.4131295445916567 0.5004279294452858	-0.240325
N	0.0000158085822661 0.9131682548337279 -0.0004266217051336	-0.240734
N	0.4999959441484350 0.5871551635451390 0.4985079906687944	-0.247281
N	0.0000022270972906 0.0871191672023585 0.0014767430082524	-0.247217
N	0.5871554697818450 0.4999954756672587 0.5014968510742187	-0.247188
N	0.0871193415459508 0.0000020287761814 -0.0014753442004397	-0.247241
N	0.4131299127862751 0.5000094696957428 0.4995672536730915	-0.240420
N	0.9131682671570822 0.0000154277216927 0.0004261389360554	-0.240794
	  	
