#======================================================================

# CRYSTAL DATA

#----------------------------------------------------------------------

data_VESTA_phase_1


_pd_phase_name                         GaFFIVE_2_Fe
_cell_length_a                         14.04985
_cell_length_b                         14.04981
_cell_length_c                         7.96804
_cell_angle_alpha                      89.99153
_cell_angle_beta                       90.00845
_cell_angle_gamma                      89.97054
_symmetry_space_group_name_H-M         P 1
_symmetry_Int_Tables_number            1

loop_
_symmetry_equiv_pos_as_xyz
   x, y, z

loop_
   _atom_site_label
   _atom_site_fract_x
   _atom_site_fract_y
   _atom_site_fract_z
   _atom_site_charge
C	0.5309160265591243 0.7054668068743797 0.1351331661939260	0.102290
C	0.5318106396264051 0.8041461136942502 0.1408158486312090	-0.169535
C	0.4686299460262801 0.2951929308809775 0.1347836136648737	0.098013
C	0.4681004093374221 0.1964382464666966 0.1403285441911175	-0.168567
C	0.2951820447410244 0.5310877298526873 0.1342839454035139	0.099813
C	0.1964791981659541 0.5317855827822464 0.1403987238616983	-0.168901
C	0.7053589565293883 0.4690273741489342 0.1342623390397632	0.094851
C	0.8040752813711405 0.4682554198471877 0.1398948498862169	-0.167852
C	0.4690265186254166 0.7053604488349698 0.8657381798951839	0.094777
C	0.4682550637246215 0.8040764446596071 0.8601057243289676	-0.167856
C	0.5310878081887390 0.2951824070067062 0.8657154680030167	0.099855
C	0.5317844911133471 0.1964797446119029 0.8596007871565531	-0.168943
C	0.7054657130791256 0.5309162593865794 0.8648662696794623	0.102341
C	0.8041443558264846 0.5318108712141336 0.8591823224173890	-0.169463
C	0.2951928579253372 0.4686298772144281 0.8652155050244522	0.098035
C	0.1964372511994980 0.4681011950800720 0.8596703034286242	-0.168587
C	0.4999802852923571 0.1444867880895757 -0.0000472913793314	0.167173
C	0.5000439150304824 0.0436978735056661 -0.0000194372411239	-0.098341
C	0.5000063805959407 0.8560664224823880 0.0004177431320905	0.165829
C	0.5000330854255552 0.9568303073938678 0.0002562738251655	-0.095151
C	0.8560634400686863 0.5000058029967812 -0.0004193177867090	0.165822
C	0.9568200923522640 0.5000329202491864 -0.0002541673657691	-0.095372
C	0.1444840151352374 0.4999817778717146 0.0000460967402829	0.167230
C	0.0437003798554550 0.5000452287094102 0.0000155228711816	-0.098235
H	0.5540119604659114 0.6634277457015333 0.2424598935601076	0.093948
H	0.5571167608383177 0.8407075303725989 0.2525263555261021	0.125219
H	0.4436843627967599 0.3371640494972795 0.2413832355076007	0.097151
H	0.4425202193122925 0.1597289239036846 0.2517609210555846	0.125190
H	0.3375872856334565 0.5559270289293179 0.2401492483269578	0.092590
H	0.1598103544660945 0.5572859587918474 0.2519033486818523	0.124579
H	0.6636653158551216 0.4459806272927690 0.2422910819693107	0.100341
H	0.8404972212045184 0.4429263358074607 0.2518382239133928	0.125005
H	0.4459801743641451 0.6636665184096591 0.7577098401115974	0.100399
H	0.4429262014941709 0.8404968104453578 0.7481609252881811	0.125008
H	0.5559261052829919 0.3375871732709266 0.7598495854625082	0.092558
H	0.5572854534996137 0.1598115725841945 0.7480966697069521	0.124587
H	0.6634255443497586 0.5540129419869301 0.7575413778458323	0.093913
H	0.8407061907356771 0.5571168346151248 0.7474721015871730	0.125196
H	0.3371648593563021 0.4436833726717759 0.7586178118269150	0.097123
H	0.1597278174732173 0.4425206070949746 0.7482374190747729	0.125182
Fe	0.5003267994206784 0.5003274975043285 0.0000021159664939	0.808811
Ga	0.4990755229639140 0.4990686005322347 0.5000053936225881	1.456083
F	0.4990283259192186 0.5013819653905105 0.7477803387710352	-0.529104
F	0.5013689652966331 0.4990265338750697 0.2522247816043123	-0.529029
F	0.4637135751193600 0.6237618041431714 0.4959010285266431	-0.571886
F	0.4074824694463728 0.4074521555476795 0.5000043250726668	-0.573181
F	0.6237707316756207 0.4637102527717986 0.5040925860781653	-0.571864
N	0.4999203676611361 0.3442963194764685 0.0001983086881840	-0.242009
N	0.4999903466701829 0.6562444361629529 0.0006108435703855	-0.246462
N	0.6562430810249754 0.4999914602397741 -0.0006096030927461	-0.246570
N	0.3442958978782548 0.4999204001262109 -0.0001990818543100	-0.242004
	  	
