#======================================================================

# CRYSTAL DATA

#----------------------------------------------------------------------

data_VESTA_phase_1


_pd_phase_name                         GaFFIVE_13_Ni_i
_cell_length_a                         15.28549
_cell_length_b                         15.28308
_cell_length_c                         7.89348
_cell_angle_alpha                      90.06765
_cell_angle_beta                       89.85581
_cell_angle_gamma                      89.89727
_symmetry_space_group_name_H-M         P 1
_symmetry_Int_Tables_number            1

loop_
_symmetry_equiv_pos_as_xyz
   x, y, z

loop_
   _atom_site_label
   _atom_site_fract_x
   _atom_site_fract_y
   _atom_site_fract_z
   _atom_site_charge
C	0.5402014363338770 0.6836502147226295 0.8709341875734509	0.111968
C	0.5435241189900126 0.7746606864232713 0.8684221552481090	-0.151565
C	0.4633928197043795 0.3193369733456630 0.8781033211488113	0.105421
C	0.4600707788307859 0.2283044883989830 0.8778841824795020	-0.143776
C	0.8186751194737421 0.9733993612054668 0.3649059866102717	0.108756
C	0.7278277472323900 0.9704551707620949 0.3612962506987578	-0.140691
C	0.3190539202099132 0.5412908003205688 0.8683553078042602	0.107133
C	0.2280239360295617 0.5453570248251622 0.8655563430428055	-0.152409
C	0.1842072047838243 0.9711519275166597 0.3577829737527428	0.094554
C	0.2750945275875830 0.9697731188602141 0.3545064859406162	-0.138332
C	0.6830449734984470 0.4630787582769232 0.8831879193567616	0.106110
C	0.7739550020457897 0.4599389306303890 0.8821136625265068	-0.144208
C	0.4550165685239647 0.6839158576955298 0.1145447058039679	0.107416
C	0.4515499253060039 0.7748527337692067 0.1168861985210844	-0.139538
C	0.5396890774879064 0.3211207072134661 0.1321476643312993	0.108319
C	0.5423954047179366 0.2300581698381675 0.1379226782016637	-0.151217
C	0.1821296332074072 0.0199697175037482 0.6361932321978333	0.110422
C	0.2728431400881499 0.0223841435104851 0.6428502239921537	-0.138232
C	0.6812178569857533 0.5435743876242830 0.1325075067766971	0.113338
C	0.7722367242497112 0.5469643694782640 0.1369501668240435	-0.151225
C	0.8182288094401513 0.0295371117415207 0.6382457598420070	0.104947
C	0.7274001220086229 0.0304137747435950 0.6445670618477359	-0.138879
C	0.3179020468742650 0.4584997690834158 0.1148251755359857	0.107618
C	0.2268917440483997 0.4559176990913532 0.1169518993518130	-0.144314
C	0.9656229298052811 0.8165717010899188 0.6348324593781760	0.106652
C	0.9644563485300963 0.7255938560519536 0.6410173615161691	-0.138403
C	0.9836313455827145 0.1808450307522085 0.6383184766078555	0.093770
C	0.9798309499170562 0.2715529632433203 0.6420429774029107	-0.139950
C	0.0209949711613691 0.8153679054098615 0.3608274338090083	0.105539
C	0.0239382183070058 0.7246292381634518 0.3573087046117867	-0.140308
C	0.0311895814978459 0.1804097206904573 0.3589426466876129	0.111963
C	0.0313028326078144 0.2713077879068240 0.3527284077130088	-0.137823
C	0.0039184737469695 0.3178587612302143 0.4964753077947393	0.040374
C	0.0010935484137135 0.4135973252908638 0.4967689834206033	0.256464
C	0.4977231169464887 0.8212942017991439 0.9929289125592983	0.053667
C	0.4988345059245923 0.9177676248937474 0.9978679880025253	0.250006
C	0.9951128283892957 0.6786198623195724 0.5002495477714752	0.039730
C	0.9971776861371646 0.5826847500443555 0.5001765488391630	0.247758
C	0.5009774564872839 0.1826665213424029 0.0093888418898254	0.053965
C	0.5003849251412437 0.0860661443763981 0.0099834056534886	0.252926
C	0.6811658622565081 -0.0002482540926133 0.5034936700477782	0.038820
C	0.5852821904516214 0.9977513419971318 0.5045512403159611	0.247474
C	0.1809374726913786 0.5011157335329072 0.9911731847378216	0.055993
C	0.0844102990666407 0.5022286970666390 0.9939948835384491	0.248856
C	0.3204394807269813 0.9960634044747704 0.4996977083210027	0.039005
C	0.4162001565328006 0.9961357484291298 0.5023719051744637	0.256383
C	0.8195974027353293 0.5035644567681919 0.0103034773245079	0.054903
C	0.9161321262460570 0.5034828623092360 0.0076118739366503	0.251168
H	0.5715477353499396 0.6444908197660064 0.7726648024950784	0.099605
H	0.5802690816786394 0.8081215663786394 0.7694826163718220	0.122193
H	0.4359804859803908 0.3574486814246744 0.7737742373133532	0.106092
H	0.4286024472548706 0.1932596883852819 0.7744419005760447	0.117944
H	0.8573933155957922 0.9520611168869810 0.2560846377208916	0.101870
H	0.6943456985362371 0.9464590567674506 0.2490202561424104	0.120221
H	0.3586123134616782 0.5721776635835174 0.7699198745213861	0.099895
H	0.1948003399889917 0.5816139164319368 0.7657705157505187	0.122429
H	0.1473231480073514 0.9548423029611094 0.2441166314918924	0.101620
H	0.3089760620030665 0.9502038007373902 0.2390151823143026	0.115196
H	0.6449648083093269 0.4348103843266813 0.7802159889384743	0.105704
H	0.8089110120070077 0.4269390374242976 0.7799667085297782	0.117431
H	0.4250218457249775 0.6452627769543899 0.2150650322961184	0.106044
H	0.4169090404888672 0.8091339551488993 0.2177787793729078	0.115537
H	0.5684200670579023 0.3609655291146290 0.2323790463828667	0.098697
H	0.5751216684158191 0.1971177416732781 0.2425330214441035	0.121704
H	0.1428128410717644 0.0367515495506626 0.7464277459274883	0.099367
H	0.3053519945566719 0.0428439376785118 0.7587136057720577	0.117373
H	0.6416702573657564 0.5727377124495833 0.2326533533109108	0.099952
H	0.8049878936375419 0.5815791466261887 0.2394087597342052	0.121843
H	0.8567978781859844 0.0502611209667341 0.7467703392181982	0.091393
H	0.6937719140097384 0.0530567363975199 0.7582138078532131	0.119136
H	0.3563021629689740 0.4284570233558760 0.2158627422669895	0.104811
H	0.1920988619309544 0.4223606579179327 0.2183616729764032	0.115748
H	0.9440941445165338 0.8555444296054553 0.7431779886261251	0.103183
H	0.9415038849865995 0.6925364196153557 0.7548133516961653	0.118957
H	0.9686149212076123 0.1432890094681977 0.7519301421889937	0.099813
H	0.9596247357938953 0.3047910081847894 0.7577008061551662	0.119311
H	0.0403374677338170 0.8536486237944796 0.2509167519068672	0.091894
H	0.0474169265901119 0.6907220775385798 0.2447288531589661	0.117066
H	0.0487206131317244 0.1416754550169335 0.2483253836951058	0.100516
H	0.0503320373473572 0.3046337108128673 0.2365954260781349	0.116337
N	0.9448240789456503 0.5396318649541885 0.6102883146896864	-0.136738
N	0.4216212911981990 0.0459920690686961 0.0089593386352225	-0.151343
N	0.5427475914505464 0.0500342171164970 0.6159489405887311	-0.139199
N	0.9565897375532995 0.4247544524776702 0.0027370571322085	-0.143656
N	0.0514202814954749 0.5427913596137192 0.3884379816347532	-0.137196
N	0.5783414586804047 0.0442851198296912 0.0113878959512125	-0.151986
N	0.9574789934887715 0.5815549699931690 0.0052042366134034	-0.149169
N	0.5449535476107927 0.9429501987702873 0.3951743424454604	-0.133870
N	0.0537449009902068 0.4567086179194285 0.3875088179889241	-0.132383
N	0.5776011412731211 0.9578484049270358 0.0009152901013774	-0.147843
N	0.4588307525949004 0.9421171736615739 0.3942413838266849	-0.128946
N	0.0438977787587078 0.5808888520360227 0.9943392133840888	-0.149715
N	0.9464426111829670 0.4534759494146335 0.6076466323074232	-0.129483
N	0.4208818572361409 0.9594828646416553 0.0061729089607543	-0.140952
N	0.0430676760972082 0.4241388161094840 0.9988329093456118	-0.148477
N	0.4566093625039918 0.0492503225318978 0.6145591697522511	-0.134096
N	0.0073784627020732 0.1358864332335016 0.4986762383746365	-0.222550
N	0.4978777219600672 0.6391296127945807 0.9929434970246445	-0.229765
N	0.9937374742771681 0.8607305463760171 0.4974282124068437	-0.218899
N	0.5016314368982159 0.3648327170678585 0.0040049459134347	-0.230137
N	0.8631845733710076 0.0021256656883268 0.5011284272089654	-0.217966
N	0.3630748813807778 0.4996511476772384 0.9918204445902008	-0.226923
N	0.1384266032972978 0.9949494594884879 0.4964924701189340	-0.222040
N	0.6374727830150676 0.5032993657285114 0.0071162820682407	-0.230394
Ni	0.0008437262912581 0.9984194382788650 0.4981519547321083	0.748645
Ni	0.5002602442947064 0.5020370274624523 0.9990131102266906	0.754808
Ga	0.9979713828603045 0.9956887316232568 0.9984412450890029	1.453259
Ga	0.4983526743867860 0.5021823837056661 0.4990847309811861	1.471618
F	0.0007614560463872 -0.0019029243207556 0.2450147625765549	-0.555551
F	0.5062112991744507 0.4987285915242815 0.7463124739568788	-0.563297
F	-0.0004939648580397 0.9969992804876234 0.7517925307116226	-0.555488
F	0.4935116017560320 0.5063517211277536 0.2517222198777085	-0.564703
F	0.9131351824161851 0.9118992421337111 0.0005712487745082	-0.564841
F	0.4159771047563106 0.4154783387798538 0.5025400071967837	-0.585956
F	0.9653674452305252 0.1107377206310815 0.9981209657910057	-0.558584
F	0.4628507990459355 0.6164128997128370 0.5105193388127047	-0.588069
F	0.1128450053764842 0.9625361866566239 -0.0030322104230210	-0.559537
F	0.6143340244028640 0.4727411594606326 0.4853757819424726	-0.588006
	  	
