#======================================================================

# CRYSTAL DATA

#----------------------------------------------------------------------

data_VESTA_phase_1


_pd_phase_name                         GaFFIVE_6_Ni_i
_cell_length_a                         17.71351
_cell_length_b                         17.71351
_cell_length_c                         15.49069
_cell_angle_alpha                      90.00002
_cell_angle_beta                       90.00020
_cell_angle_gamma                      89.98020
_symmetry_space_group_name_H-M         P 1
_symmetry_Int_Tables_number            1

loop_
_symmetry_equiv_pos_as_xyz
   x, y, z

loop_
   _atom_site_label
   _atom_site_fract_x
   _atom_site_fract_y
   _atom_site_fract_z
   _atom_site_charge
N	0.2438583687612678 0.1319981343193434 0.1278456558562570	-0.236869
N	0.2558887451013682 0.3681350454588307 0.1288082896502999	-0.239338
N	0.3680439898662900 0.2441905242824966 0.1286304028348125	-0.237517
N	0.1319305349003431 0.2562223144450969 0.1274008046665733	-0.237509
N	0.7558085203315063 0.6319558928572232 0.3713678194017755	-0.237472
N	0.7437770697972210 0.8680689906128641 0.3726000817041173	-0.237511
N	0.6318655979468527 0.7441114098950578 0.3711918904826863	-0.239213
N	0.8680019706095663 0.7561413218205597 0.3721531296810083	-0.236852
N	0.7558882439017924 0.8681342164554869 0.8711907502918339	-0.239371
N	0.7438580075007559 0.6319976934874091 0.8721541645525139	-0.236808
N	0.6319306355829362 0.7562220106658130 0.8725986193207954	-0.237550
N	0.8680438736068333 0.7441905324839969 0.8713688190867142	-0.237444
N	0.2437775119462529 0.3680688314171062 0.6274000328672692	-0.237543
N	0.2558093552288387 0.1319555273925097 0.6286303178780663	-0.237496
N	0.3680018828408997 0.2561419078727257 0.6278446414394305	-0.236743
N	0.1318648825028544 0.2441114167941954 0.6288092040320784	-0.239261
C	0.2005546201828125 0.0954683659370904 0.1856286481209572	0.108862
C	0.1921897357043943 0.0174972593734456 0.1851578529792337	-0.180493
C	0.2323049707697986 0.9742594848192205 0.1248374390262413	0.111645
C	0.2787609262600033 0.0128556627568319 0.0663245358111230	-0.180354
C	0.2819610757390559 0.0911934103027933 0.0689924586315409	0.104250
C	0.2264048179187069 0.8913340969672514 0.1236680824911455	0.059980
C	0.2908439692588147 0.8471531849648153 0.1208883815507379	-0.173905
C	0.2864378520632015 0.7675612912982592 0.1219652543987337	0.088661
C	0.1481157580967342 0.7785891403268311 0.1245766284769370	-0.122905
C	0.1544080349613653 0.8559493708892874 0.1266819527652047	-0.137170
C	0.2993780211012916 0.4044912714778411 0.1867303564447127	0.100030
C	0.3078293777625815 0.4824924035446581 0.1858926693164032	-0.185526
C	0.2676068977583368 0.5257543041959463 0.1256099182282647	0.109839
C	0.2212296109826047 0.4871753489511237 0.0671258071042479	-0.181894
C	0.2180521480448568 0.4088436205521219 0.0695534733349107	0.101550
C	0.2736470379621561 0.6086471120205638 0.1239617614653310	0.061059
C	0.2091904570364784 0.6528231169678255 0.1209322514101701	-0.173174
C	0.2135575419288805 0.7324155836780420 0.1219395169839291	0.085016
C	0.3518607000693396 0.7213799779557066 0.1245559870305497	-0.123657
C	0.3456522018623425 0.6440161173936155 0.1267442795027111	-0.137728
C	0.4044829310503958 0.2005624220650540 0.1862605031742446	0.101938
C	0.4824847265446102 0.1922151381923408 0.1858278393000440	-0.184703
C	0.5257536447267015 0.2324695278028060 0.1255830359177372	0.112469
C	0.4871822778035429 0.2788169736075925 0.0670309296553363	-0.179347
C	0.4088644639488511 0.2820727484567140 0.0696586999447372	0.111114
C	0.6086610369862285 0.2264060233188598 0.1239803193044483	0.060324
C	0.6528074468974642 0.2908499134222429 0.1209502551397928	-0.173806
C	0.7324030672856759 0.2864196517582875 0.1219404134619001	0.088472
C	0.7214126980083508 0.1481153666636691 0.1245733168492090	-0.122585
C	0.6440528340591414 0.1543907634790579 0.1267496414425636	-0.136975
C	0.0954603660801223 0.2994341746075772 0.1854506326560384	0.102287
C	0.0174788571632581 0.3078052197526969 0.1848472814151433	-0.181965
C	0.9742583959143836 0.2676679620773684 0.1245959024753235	0.108521
C	0.0128788259565957 0.2211892223426604 0.0660885167820807	-0.183192
C	0.0912589660797220 0.2180651621229400 0.0683731637426647	0.098591
C	0.8913337473790379 0.2735245155121651 0.1235836888544146	0.061121
C	0.8471709434549307 0.2091018131527096 0.1208776918713631	-0.173337
C	0.7675756427114163 0.2135231284906217 0.1219919040000572	0.084841
C	0.7785561840376849 0.3518369340333651 0.1245735706697557	-0.123653
C	0.8559208757946380 0.3455357725415689 0.1266715642739558	-0.138063
C	0.7994368619309048 0.5955170865147892 0.3137382758455204	0.101953
C	0.8077845730865997 0.5175152971605969 0.3141715425656689	-0.184692
C	0.7675301969070006 0.4742463335825549 0.3744163689342156	0.112453
C	0.7211829706408165 0.5128177138609090 0.4329685005358329	-0.179290
C	0.7179270308880680 0.5911354505805149 0.4303402024490094	0.111063
C	0.7735937082157603 0.3913389075290531 0.3760191763042553	0.060279
C	0.7091498427104506 0.3471923794739399 0.3790493151987372	-0.173802
C	0.7135800837030593 0.2675967996291997 0.3780597935765558	0.088504
C	0.8518844167882700 0.2785871965424220 0.3754261538406875	-0.122612
C	0.8456090096545148 0.3559469998447082 0.3732498726642271	-0.136887
C	0.7005655638582485 0.9045393261060087 0.3145491425849222	0.102367
C	0.6921946726793887 0.9825206725167205 0.3151520117151236	-0.182034
C	0.7323316268276645 0.0257416200997151 0.3754034466742907	0.108544
C	0.7788107919983548 0.9871213953099277 0.4339106888334924	-0.183195
C	0.7819342802684560 0.9087410725144374 0.4316269703985721	0.098537
C	0.7264752885998154 0.1086660456410755 0.3764157501507235	0.061124
C	0.7908980192746804 0.1528288739641271 0.3791217201570712	-0.173346
C	0.7864766680649301 0.2324241657302239 0.3780075773768242	0.084877
C	0.6481628438858145 0.2214436865497603 0.3754259522467233	-0.123680
C	0.6544641002039545 0.1440790118723721 0.3733278445538323	-0.138066
C	0.5955086055320823 0.7006225356260173 0.3132696973442370	0.099911
C	0.5175074762299765 0.6921710295168829 0.3141075836711933	-0.185510
C	0.4742456260522831 0.7323935781268607 0.3743900189005585	0.109862
C	0.5128252658873439 0.7787704389887062 0.4328739198809559	-0.181903
C	0.5911572236044059 0.7819474588719805 0.4304460496626830	0.101523
C	0.3913527942481184 0.7263529832649234 0.3760381800960281	0.061073
C	0.3471766181767900 0.7908094371492466 0.3790675299562138	-0.173129
C	0.2675842253401879 0.7864423592098795 0.3780599520048232	0.084993
C	0.2786199269729320 0.6481391394735201 0.3754435543256993	-0.123675
C	0.3559838193863666 0.6543476559941137 0.3732554340570273	-0.137735
C	0.9045315120514681 0.7994453502603688 0.3143703237039089	0.108849
C	0.9825025970496362 0.8078103742572718 0.3148415435631344	-0.180431
C	0.0257404977886827 0.7676950148035510 0.3751620599171316	0.111664
C	0.9871444466873898 0.7212389337832162 0.4336748371500482	-0.180391
C	0.9088067240104563 0.7180386712376012 0.4310065905192475	0.104268
C	0.1086655543167195 0.7735952443789567 0.3763318185109321	0.059881
C	0.1528467539868818 0.7091558988907398 0.3791111654382013	-0.173880
C	0.2324386132075589 0.7135619974380539 0.3780342469094931	0.088680
C	0.2214107470859127 0.8518841720918777 0.3754228034573220	-0.122894
C	0.1440505157386310 0.8455918482268863 0.3733175359703714	-0.137135
C	0.7993775867447965 0.9044911711065787 0.8132693112698736	0.099929
C	0.8078288566664824 0.9824924584341095 0.8141074437367710	-0.185527
C	0.7676063537553309 0.0257543586108428 0.8743897828469609	0.109891
C	0.7212296084621106 0.9871747273302891 0.9328734456386690	-0.181953
C	0.7180521759939996 0.9088428944494878 0.9304455749453384	0.101565
C	0.7736468583889894 0.1086471760998886 0.8760381067394252	0.061027
C	0.7091903257428354 0.1528232455648231 0.8790674723328282	-0.173179
C	0.7135574309158482 0.2324156660278387 0.8780599703439702	0.085042
C	0.8518606563088552 0.2213799787879340 0.8754435427372239	-0.123677
C	0.8456521285827688 0.1440160494173214 0.8732554314141987	-0.137732
C	0.7005542929001579 0.5954682406522352 0.8143706531725929	0.108838
C	0.6921895802974642 0.5174970539200392 0.8148414764089564	-0.180474
C	0.7323049758530927 0.4742593161398225 0.8751620790771100	0.111708
C	0.7787610087499071 0.5128554792830058 0.9336750772029979	-0.180468
C	0.7819610037634928 0.5911932089766695 0.9310072531428532	0.104275
C	0.7264045845376701 0.3913342895280789 0.8763317871768310	0.059938
C	0.7908439651718959 0.3471531222690074 0.8791111097243707	-0.173848
C	0.7864377966949911 0.2675612652857088 0.8780342461184951	0.088636
C	0.6481155783252933 0.2785891393823551 0.8754227953427075	-0.122869
C	0.6544079146667062 0.3559494342390044 0.8733175371608494	-0.137172
C	0.5954603280698395 0.7994338286284691 0.8145481965021841	0.102352
C	0.5174789286664012 0.8078051198801419 0.8151517539440640	-0.182026
C	0.4742581954170907 0.7676682195301279 0.8754032040702189	0.108590
C	0.5128786441934386 0.7211892452107932 0.9339103330562181	-0.183213
C	0.5912590263760800 0.7180653752154398 0.9316261218750603	0.098558
C	0.3913339087355377 0.7735244636849362 0.8764158179045903	0.061056
C	0.3471709602714450 0.7091017695575659 0.8791217640950968	-0.173199
C	0.2675756916793368 0.7135231783523945 0.8780075776966618	0.084840
C	0.2785564583699079 0.8518369234721974 0.8754259950057723	-0.123632
C	0.3559211711524826 0.8455355658234069 0.8733285967737645	-0.138131
C	0.9044826958005379 0.7005624086946227 0.8137389123034459	0.101911
C	0.9824845971888159 0.6922152063639554 0.8141717743430983	-0.184699
C	0.0257536316636122 0.7324695501522631 0.8744167007866256	0.112487
C	0.9871823667123161 0.7788169571732232 0.9329687412231842	-0.179339
C	0.9088644496142403 0.7820727612679798 0.9303405437479152	0.111095
C	0.1086609879337103 0.7264060709414099 0.8760193994772090	0.060276
C	0.1528073597148640 0.7908500346675796 0.8790493118154860	-0.173775
C	0.2324030270370012 0.7864197974914949 0.8780597474091244	0.088462
C	0.2214125965603616 0.6481153245912479 0.8754260707562515	-0.122607
C	0.1440527335747613 0.6543907594564170 0.8732499162232196	-0.136929
C	0.2005662222110645 0.4045392961706922 0.6854506193840767	0.102336
C	0.1921947168100822 0.4825206058558286 0.6848473131023323	-0.181985
C	0.2323315367250413 0.5257414688483231 0.6245959692135032	0.108514
C	0.2788105707217768 0.4871212613333759 0.5660888452672748	-0.183129
C	0.2819342203120983 0.4087408113458632 0.5683727329644203	0.098548
C	0.2264751524420486 0.6086659125483160 0.6235836384898271	0.061048
C	0.2908980371348840 0.6528287924395551 0.6208776961363441	-0.173316
C	0.2864767714245477 0.7324240631234133 0.6219919033352544	0.084851
C	0.1481634989796375 0.7214438698759110 0.6245738735191799	-0.123670
C	0.1544642213559147 0.6440790019371601 0.6266716181770217	-0.138040
C	0.2994375106311580 0.0955168206644351 0.6862606503954121	0.101952
C	0.3077847911218516 0.0175149388563609 0.6858279119039625	-0.184727
C	0.2675302971327089 0.9742461259630861 0.6255828691008271	0.112527
C	0.2211827724938657 0.0128171828473749 0.5670304988612097	-0.179364
C	0.2179270766770883 0.0911349932345722 0.5696584534116853	0.111075
C	0.2735937802208369 0.8913387521664532 0.6239801815553799	0.060250
C	0.2091498817345265 0.8471924421734222 0.6209502067393883	-0.173765
C	0.2135805771805956 0.7675970131005873 0.6219403985961564	0.088481
C	0.3518845597921644 0.7785871271363229 0.6245732566494763	-0.122619
C	0.3456091649082246 0.8559469787223986 0.6267494984317404	-0.136883
C	0.4045315696332700 0.2994453013165631 0.6856284827424370	0.108796
C	0.4825026544779817 0.3078100812521341 0.6851580665005172	-0.180453
C	0.5257403374398085 0.2676948146116419 0.6248375976320624	0.111735
C	0.4871442029611585 0.2212387873016149 0.5663245072225426	-0.180526
C	0.4088064864383737 0.2180388085098145 0.5689918291138820	0.104323
C	0.6086654411994094 0.2735952656292107 0.6236678266247674	0.059923
C	0.6528466845665040 0.2091559209341431 0.6208884114912918	-0.173903
C	0.7324385464569297 0.2135619974608355 0.6219652231114793	0.088649
C	0.7214107083922464 0.3518842503793900 0.6245766863642870	-0.122979
C	0.6440504419093500 0.3455918750917193 0.6266820224009715	-0.137137
C	0.0955086081417674 0.2006220720884774 0.6867309593697984	0.099980
C	0.0175074296912755 0.1921705173317085 0.6858926801150697	-0.185536
C	0.9742454155157148 0.2323930071473577 0.6256100090919610	0.109827
C	0.0128244495945099 0.2787702209121131 0.5671259769373305	-0.181841
C	0.0911561418615550 0.2819474466216672 0.5695538437155646	0.101383
C	0.8913525671000735 0.2263528289486486 0.6239616119874926	0.061141
C	0.8471765537632239 0.2908094184811487 0.6209321038116015	-0.173105
C	0.7675841417035404 0.2864423887490171 0.6219395138292838	0.085015
C	0.7786197597076434 0.1481390801533258 0.6245559254474993	-0.123664
C	0.8559836504467406 0.1543476441028323 0.6267441648953873	-0.137720
H	0.1733087364421125 0.1304917190496959 0.2342731568135979	0.097417
H	0.1565353935157763 0.9902827875969894 0.2332971135003499	0.111884
H	0.3106904658024292 0.9818139486924484 0.0178191150424631	0.111133
H	0.3152675420966732 0.1233860860893617 0.0226886633750493	0.096182
H	0.3462827421611218 0.8739278461032444 0.1202752042120574	0.106643
H	0.0926922601593289 0.7517554125024732 0.1253888467536283	0.109512
H	0.1040331735087303 0.8913526170384424 0.1288149597198935	0.099389
H	0.3272437097111037 0.3694441415827898 0.2351967003586971	0.101189
H	0.3440415348406022 0.5097433350278592 0.2334269272252054	0.112113
H	0.1895836017365352 0.5178344162471997 0.0180693055421214	0.113434
H	0.1864774466354154 0.3772310577815435 0.0211342714762212	0.103144
H	0.1537563534169399 0.6260449556350207 0.1202709178418851	0.107382
H	0.4072176669613429 0.7483279847966472 0.1253858281393942	0.105972
H	0.3960699987258997 0.6086562795961883 0.1289235288178679	0.100268
H	0.3690267302403297 0.1720736748009451 0.2336888137463780	0.096788
H	0.5098533501828704 0.1560537488052600 0.2333600350797602	0.111466
H	0.5179448122645214 0.3103078875954796 0.0179370918913171	0.113584
H	0.3770045231700691 0.3141538367097950 0.0220581364155710	0.097541
H	0.6259913246269352 0.3462836297556223 0.1203259429698916	0.107986
H	0.7482705184439070 0.0926885836031527 0.1253560885777397	0.107236
H	0.6087528164377339 0.1039633151263187 0.1288408019932096	0.100848
H	0.1300109524551944 0.3259808113583503 0.2351425388114722	0.103179
H	0.9904488318265530 0.3434444913288688 0.2331464300098778	0.113215
H	0.9818545381863376 0.1890785827520170 0.0177571140477103	0.112497
H	0.1232780627412429 0.1850101997145711 0.0214806930721137	0.099837
H	0.8739575071887312 0.1536451722823813 0.1202109071741429	0.105879
H	0.7516038103545697 0.4072161413799039 0.1254095074793964	0.107925
H	0.8913483030288000 0.3958725002249504 0.1288818546794384	0.099015
H	0.8279257650066264 0.6309736722870287 0.2663103714106111	0.096764
H	0.8439462366175987 0.4901468311577075 0.2666395738541665	0.111464
H	0.6896921790708943 0.4820551159172479 0.4820623706216319	0.113583
H	0.6858464698927603 0.6229954766709570 0.4779409464177581	0.097539
H	0.6537162440229476 0.3740086555715110 0.3796735809779845	0.107967
H	0.9073112493709568 0.2517295064749731 0.3746433510358667	0.107214
H	0.8960364379099566 0.3912470696983164 0.3711586669002394	0.100841
H	0.6740192764718336 0.8699886704357631 0.2648569827697945	0.103155
H	0.6565553203144485 0.0095509698506201 0.2668528714450214	0.113227
H	0.8109214671497147 0.0181452288552203 0.4822426002151605	0.112513
H	0.8149899702346081 0.8767213838521498 0.4785187629958597	0.099860
H	0.8463546030849991 0.1260422750854585 0.3797886380778002	0.105885
H	0.5927836443486522 0.2483960237273619 0.3745899714704362	0.107937
H	0.6041273721459584 0.1086516692527015 0.3711176065352030	0.099004
H	0.6305554004640678 0.6727569765057454 0.2648031466371325	0.101193
H	0.4902562046264384 0.6559587589738639 0.2665732549372424	0.112124
H	0.4821659485740185 0.8104158595385690 0.4819297952028101	0.113464
H	0.6227692701840047 0.8135226518127058 0.4788660444720035	0.103111
H	0.3739547302344989 0.8462434651464467 0.3797287305442232	0.107347
H	0.2516720930780766 0.5927821278984365 0.3746135946213945	0.105971
H	0.3913437025084797 0.6039299253911299 0.3710760109510219	0.100283
H	0.8695078232964748 0.8266910102378004 0.2657257375624761	0.097423
H	0.0097170558609387 0.8434647492410886 0.2667024057322770	0.111872
H	0.0181860654987323 0.6893092903150940 0.4821804806120614	0.111128
H	0.8766139242634694 0.6847325451063393 0.4773104660425923	0.096203
H	0.1260720988720764 0.6537172437730557 0.3797243611852614	0.106644
H	0.2482443770715571 0.9073076706725088 0.3746106807192266	0.109507
H	0.1086471819363947 0.8959666069308497 0.3711846386914679	0.099388
H	0.8272436423335463 0.8694443261063983 0.7648032754453963	0.101268
H	0.8440412441627537 0.0097437824712213 0.7665734749392169	0.112128
H	0.6895841641184234 0.0178337654176342 0.9819297636886044	0.113461
H	0.6864767611417215 0.8772310071186925 0.9788645829569086	0.103151
H	0.6537563216786030 0.1260450995800253 0.8797286436297849	0.107383
H	0.9072176117840347 0.2483278750658861 0.8746136540869409	0.105981
H	0.8960698402209506 0.1086561589429726 0.8710761357492566	0.100289
H	0.6733087493202780 0.6304919872754571 0.7657259953037920	0.097431
H	0.6565349863365700 0.4902826274843900 0.7667022054943158	0.111869
H	0.8106907415766716 0.4818139003084224 0.9821804910832724	0.111137
H	0.8152675987208049 0.6233859615643280 0.9773107495197481	0.096176
H	0.8462825824065511 0.3739278386544909 0.8797242954065683	0.106626
H	0.5926921311431332 0.2517553582812946 0.8746106318808109	0.109497
H	0.6040331029476285 0.3913527504883306 0.8711846480797781	0.099384
H	0.6300110660512399 0.8259803129708460 0.7648562574934125	0.103176
H	0.4904484698073295 0.8434446340109021 0.7668529199660585	0.113218
H	0.4818550971343211 0.6890788069693272 0.9822425623977267	0.112495
H	0.6232786621138906 0.6850101480090038 0.9785185611622007	0.099878
H	0.3739575121426954 0.6536451888626585 0.8797886227934579	0.105856
H	0.2516038616728619 0.9072162274931971 0.8745898643341832	0.107924
H	0.3913482261121530 0.8958725834934544 0.8711175919164774	0.099027
H	0.8690263046124835 0.6720734348445367 0.7663108737164046	0.096774
H	0.0098529852468134 0.6560538814699711 0.7666395002669916	0.111462
H	0.0179448711345348 0.8103079110902289 0.9820627958155675	0.113586
H	0.8770046866215080 0.8141538016222617 0.9779411534841512	0.097550
H	0.1259911717441215 0.8462836726321805 0.8796735345477321	0.107971
H	0.2482704076776127 0.5926885185043592 0.8746433139881716	0.107232
H	0.1087527239549754 0.6039632675367490 0.8711586922827408	0.100841
H	0.1740189619081811 0.3699887285571392 0.7351419924742367	0.103153
H	0.1565554158552175 0.5095510116870353 0.7331461111558896	0.113235
H	0.3109213117112418 0.5181451941925608 0.5177571376606909	0.112502
H	0.3149895942016055 0.3767213486138683 0.5214803940967289	0.099864
H	0.3463546831940919 0.6260422372454730 0.6202109273688069	0.105879
H	0.0927840426849205 0.7483958407402271 0.6254095727420560	0.107940
H	0.1041272334655607 0.6086515087874244 0.6288818474806360	0.099005
H	0.3279259244569621 0.1309735471123858 0.7336888590974301	0.096795
H	0.3439462559670060 0.9901463116637937 0.7333601551618650	0.111472
H	0.1896918038339193 0.9820544940562452 0.5179366424218362	0.113587
H	0.1858462175229630 0.1229953721826928 0.5220581037900157	0.097557
H	0.1537162193308603 0.8740086318282334 0.6203259663461669	0.107953
H	0.4073113413132967 0.7517293035324979 0.6253560436497494	0.107233
H	0.3960365916874720 0.8912471454305095 0.6288407499946858	0.100840
H	0.3695081481361133 0.3266908227849605 0.7342731514353120	0.097421
H	0.5097172176266804 0.3434646261805223 0.7332971650802346	0.111884
H	0.5181859474737314 0.1893092803425766 0.5178192317339132	0.111165
H	0.3766136012199148 0.1847325081214935 0.5226880947626757	0.096162
H	0.6260721160824189 0.1537172468448734 0.6202752519465893	0.106653
H	0.7482443809196101 0.4073077291034367 0.6253888705398797	0.109517
H	0.6086471587275344 0.3959666779318982 0.6288148903533456	0.099417
H	0.1305556321408509 0.1727561093017646 0.7351972987048299	0.101230
H	0.9902562104373046 0.1559582120145823 0.7334264036121870	0.112121
H	0.9821653569230216 0.3104162875596028 0.5180694991744859	0.113472
H	0.1227683880084673 0.3135227635006055 0.5211349663538968	0.103132
H	0.8739545726171963 0.3462434692401785 0.6202708999557709	0.107322
H	0.7516718357387074 0.0927821350043922 0.6253858253172924	0.105961
H	0.8913435540195273 0.1039299262368750 0.6289234698232518	0.100264
F	0.2567366006159681 0.1474743391654431 0.3777270374334796	-0.603994
F	0.1582052890629104 0.2990518565141992 0.3785802488563047	-0.597423
F	0.3367830317291862 0.3090501228355046 0.3784583202431129	-0.600689
F	0.6909474881571011 0.6632160787332012 0.1215461536801358	-0.600727
F	0.7009452908668524 0.8417944082328257 0.1214163979636761	-0.597473
F	0.8525245862263124 0.7432674436179205 0.1222708121760963	-0.604020
F	0.6582242476202067 0.7990479751559926 0.6214165199332767	-0.597457
F	0.7567425913563838 0.6474693199728800 0.6222706920165481	-0.604026
F	0.8367866731774801 0.8090530825382514 0.6215660412897032	-0.600671
F	0.1909468504850700 0.1632170065901321 0.8784582348886588	-0.600715
F	0.3525268141077103 0.2432615669893710 0.8777316680744818	-0.604048
F	0.2009688584192492 0.3417975990424331 0.8786141125005226	-0.597471
F	0.2493318140278991 0.2500265185410387 0.2547676668029184	-0.557508
F	0.2495475691409017 0.2495953036660936 0.5017211912973649	-0.558232
F	0.7499833415264958 0.7506748452479419 0.2452293271396797	-0.557521
F	0.7503915184113690 0.7504428611363592 -0.0017208673781908	-0.558255
F	0.7493321598830486 0.7500142597075733 0.7452329406890026	-0.557499
F	0.7495683312226344 0.7495962975717414 0.4982809662015767	-0.558218
F	0.2499848559283017 0.2506642800927501 0.7547708091782110	-0.557544
F	0.2503914739921705 0.2504465378276728 0.0017258374385818	-0.558266
Ni	0.2497833926929940 0.2504232614609007 0.1283603212546671	0.763589
Ni	0.7495773246986525 0.7502162041621654 0.3716396687537758	0.763487
Ni	0.7497835783909961 0.7504218062500693 0.8716386814551329	0.763539
Ni	0.2495772053995451 0.2502155270120514 0.6283588399328920	0.763532
Ga	0.2506108630631796 0.2511690302292217 0.3782831480429065	1.486653
Ga	0.7488299823680985 0.7493888885601907 0.1217171460695612	1.486809
Ga	0.7506242194520537 0.7511657717984852 0.6217164328019571	1.486730
Ga	0.2488334963033296 0.2493854100468355 0.8782853706171544	1.486867
	  	
