#======================================================================

# CRYSTAL DATA

#----------------------------------------------------------------------

data_VESTA_phase_1


_pd_phase_name                         GaFFIVE_18_Cu
_cell_length_a                         13.64008
_cell_length_b                         13.84980
_cell_length_c                         8.28329
_cell_angle_alpha                      90.65524
_cell_angle_beta                       94.91144
_cell_angle_gamma                      89.99561
_symmetry_space_group_name_H-M         P 1
_symmetry_Int_Tables_number            1

loop_
_symmetry_equiv_pos_as_xyz
   x, y, z

loop_
   _atom_site_label
   _atom_site_fract_x
   _atom_site_fract_y
   _atom_site_fract_z
   _atom_site_charge
F	0.4980738176806253 0.3358147856798878 0.4733911286557516	-0.572755
F	0.5246392494625244 0.4670903914533484 0.7224380243328138	-0.570993
F	0.3775690121925621 0.5252484788408371 0.5213019641163207	-0.544957
F	0.9981275163921933 0.8357207611119660 0.4732642866524728	-0.574830
F	0.0246100464706942 0.9670457125409678 0.7223465975572633	-0.570689
F	0.8775503389844126 0.0250992824831172 0.5212130027921814	-0.545187
F	0.6219384571976766 0.5284982884194219 0.4812086222984909	-0.546957
F	0.4758272275867801 0.4861697678631975 0.2692135371418167	-0.572219
F	0.1219647740196880 0.0284997865142607 0.4810812634033634	-0.547054
F	0.9758510085695828 0.9860718262562235 0.2692052579996156	-0.572099
C	0.6877795472233039 0.1665585610744693 0.6640231279551680	-0.424072
C	0.7598296097217896 0.1557419896170543 0.8081941063121448	0.206128
C	0.7631903651062248 0.1984926423862079 0.9627026192974308	-0.150764
C	0.6912230606617293 0.2643654355982902 0.0238832365689473	-0.146574
C	0.6745822412807030 0.3621758165719340 0.9815289689945061	0.220266
C	0.7315027370311465 0.4218980004240799 0.8738312955729275	-0.434020
C	0.8893846309222865 0.1905475425861306 0.2157720001688888	-0.435204
C	0.8504947749439598 0.1639221095611700 0.0476858191935890	0.218044
C	0.6240021173158365 0.2436541239613752 0.1377557928162773	0.214996
C	0.6052191441398129 0.1531339787682121 0.2256030980529476	-0.429616
C	0.1878425032284090 0.6667315944120985 0.6639933522825801	-0.423076
C	0.2599265053024326 0.6558515773105128 0.8081634485890096	0.205049
C	0.2632166515937767 0.6985962485549804 0.9626826103274059	-0.149988
C	0.1912909139724187 0.7644384804136001 0.0240117767809769	-0.146548
C	0.1746510998398190 0.8622212127160596 0.9815531934468015	0.220545
C	0.2315759830333559 0.9220184255436048 0.8739537777652087	-0.433793
C	0.3894307791006238 0.6905973736397930 0.2157292696341245	-0.434826
C	0.3505106302838912 0.6639545606715573 0.0476449330673796	0.217789
C	0.1240649655750695 0.7436132614323865 0.1378934493555329	0.214843
C	0.1052727577557063 0.6530738490228774 0.2255394078379304	-0.429374
C	0.3136615274046241 0.1677155205835045 0.3342749368035337	-0.427283
C	0.2402970115596877 0.1573488362904778 0.1914568636721649	0.207683
C	0.2368559292055069 0.1974499830280470 0.0364211365753913	-0.150552
C	0.3085800334615828 0.2631858676143375 0.9761976428482693	-0.144343
C	0.3254612359569840 0.3606142641391300 0.0252595605426479	0.222454
C	0.2693545647067879 0.4190780030731208 0.1380923584795005	-0.434840
C	0.1091212875558617 0.1855878816691034 0.7848345543226614	-0.437401
C	0.1488151749124793 0.1623503011950146 0.9528238011206300	0.217111
C	0.3753470000524315 0.2437403273554773 0.8600723364011579	0.213644
C	0.3948518701737905 0.1543686013298118 0.7661368832756054	-0.429440
C	0.8136915878934795 0.6675865391481105 0.3342886096037013	-0.426480
C	0.7403010823241901 0.6572276642322940 0.1914659943887069	0.207232
C	0.7369344213809450 0.6974195482304814 0.0365207114706589	-0.149762
C	0.8086046212661586 0.7631706418755414 0.9761578154774238	-0.144401
C	0.8254587947934190 0.8605537304588178 0.0253839420252375	0.222500
C	0.7693243427217352 0.9190374692895447 0.1381552066467888	-0.434945
C	0.6091933625073132 0.6856430407654829 0.7848838963775007	-0.436580
C	0.6489268830886111 0.6623092835440326 0.9528519470284172	0.216418
C	0.8754071059605898 0.7437061636416674 0.8600750858482367	0.213889
C	0.8949212510917494 0.6543198448677721 0.7663519867195797	-0.429996
H	0.7253534401537203 0.1839896273794633 0.5559977211865147	0.148099
H	0.6354566261570299 0.2245560858934902 0.6843819671988040	0.143083
H	0.6460223319542507 0.0994835189048299 0.6371223412661011	0.136702
H	0.6844880143596727 0.4508809019191942 0.7717459936876321	0.151067
H	0.7898225360935947 0.3779077775227281 0.8267225644990236	0.133934
H	0.7658808794282316 0.4834869656617084 0.9419802226617876	0.132057
H	0.8624862988819897 0.0602498971434052 0.7080712300326454	0.280666
H	0.8795611045205912 0.1321608500126555 0.3014624464262885	0.144599
H	0.8503793827745085 0.2548829770150425 0.2549230786352215	0.131589
H	0.9683567733845008 0.2066478216762303 0.2216673690922709	0.142585
H	0.5712293242356675 0.1692590781225327 0.3381176939404256	0.147612
H	0.6737949251720587 0.1131844421618430 0.2547566890965706	0.151003
H	0.5551041995838025 0.1051996384581981 0.1503557237186839	0.134658
H	0.5236410290977546 0.3396840635173861 0.2416779803869255	0.272502
H	0.2254334448916287 0.6841271003042564 0.5558895484273275	0.147933
H	0.1354652320538716 0.7247744566683065 0.6843293290031571	0.142875
H	0.1460247979062901 0.5996484076043737 0.6371195011296651	0.136359
H	0.1845434993142102 0.9509454469557094 0.7719542470166214	0.150967
H	0.2898802682368795 0.8780578137842078 0.8269184346788845	0.134027
H	0.2658704971030900 0.9835758148148652 0.9421461758062659	0.132091
H	0.3624966862377202 0.5603336808020998 0.7079872880637934	0.280810
H	0.3796454180896197 0.6321553348416020 0.3014805687498552	0.144491
H	0.3504301462924813 0.7550053336493641 0.2549235420966773	0.131356
H	0.4684572101222185 0.7067848855557847 0.2216633807296334	0.142269
H	0.0712393586811986 0.6691617141366172 0.3379516646266846	0.147594
H	0.1738392654416166 0.6132467038829235 0.2548227020854544	0.150995
H	0.0552509692834134 0.6051005639205537 0.1503100022581233	0.134819
H	0.0236194268764244 0.8396635013988527 0.2417356151158400	0.272934
H	0.2766249443693554 0.1771148395729413 0.4458700909731977	0.146538
H	0.3619827353288444 0.2299325415713941 0.3219411365708456	0.146729
H	0.3598965482717572 0.1027247106120492 0.3486982490869201	0.135927
H	0.3181980435199347 0.4546862415886848 0.2325697231229676	0.150156
H	0.2174807875933816 0.3727489480591706 0.1955318420860592	0.135421
H	0.2268853199275869 0.4756248469782792 0.0710914841860933	0.132417
H	0.1366719525946147 0.0646120227461424 0.2930785810740938	0.281114
H	0.1106252903792883 0.1227328033165092 0.7031929378967007	0.143064
H	0.1539188361285915 0.2430505106662454 0.7380699515307970	0.133269
H	0.0325818084528245 0.2105146302678174 0.7820034646293640	0.141532
H	0.4264963318100342 0.1722222022102102 0.6527406272165021	0.146579
H	0.3270295345086105 0.1127296795815672 0.7373044632829479	0.153174
H	0.4472979681141848 0.1072204841655051 0.8364168927414112	0.135141
H	0.4778644712698601 0.3440939475034163 0.7680827518122054	0.276609
H	0.7766209150042679 0.6769112152318048 0.4458453923004279	0.146471
H	0.8621080954012531 0.7298076620422843 0.3221670647160655	0.146773
H	0.8599169707997716 0.6025727963336401 0.3487477301580647	0.135509
H	0.8181432263767510 0.9545871325768254 0.2326315049210460	0.150316
H	0.7174666487612571 0.8726751027924771 0.1954949343318576	0.135365
H	0.7269021159185648 0.9756070261843871 0.0712422291944664	0.132651
H	0.6367068890346029 0.5645595048780744 0.2931833387842158	0.281148
H	0.6105925731533195 0.6227758876826198 0.7031560863914452	0.142837
H	0.6540764382720820 0.7430782094727464 0.7381020744966440	0.132803
H	0.5326329162604935 0.7106610667452160 0.7821255852877461	0.141454
H	0.9264859980698557 0.6721079488725531 0.6529430964508687	0.146753
H	0.8271500298915693 0.6126973764195754 0.7374662505815984	0.153158
H	0.9473809618712654 0.6072182620849739 0.8365442606728508	0.135511
H	0.9779235030982667 0.8440804584006101 0.7680767347735369	0.276698
N	0.8399945332837848 0.0987194582251460 0.8072532314207385	-0.151556
N	0.6004330884937884 0.3976186799341395 0.0620205133877858	-0.245302
N	0.8959538510822017 0.1029722913996569 0.9504594132807446	-0.238852
N	0.5714487158299690 0.3249433403502998 0.1555055620507576	-0.146291
N	0.3401081766955601 0.5987672713943458 0.8072332005342554	-0.151766
N	0.1005158168937823 0.8975973950947278 0.0621583722003067	-0.245878
N	0.3960769181921530 0.6030510840221586 0.9504427233630356	-0.238574
N	0.0714486625210658 0.8248763706789143 0.1555474818041585	-0.146394
N	0.1593526785616903 0.1015711841006691 0.1940241012935944	-0.150921
N	0.3990770511473570 0.3969885615808436 0.9460827801466369	-0.240593
N	0.1032160021079936 0.1036277947812884 0.0510807287471062	-0.239924
N	0.4274784445630340 0.3255917583958143 0.8473160783603144	-0.152410
N	0.6593458911211976 0.6014206950085306 0.1939559517975780	-0.151050
N	0.8990164237080548 0.8969491324255608 0.9460630122158821	-0.240901
N	0.6032141686961114 0.6035705625359715 0.0509787033200034	-0.239929
N	0.9275131191404808 0.8255473576154568 0.8473402531645532	-0.151845
Ga	0.4997565990947707 0.4693840238254259 0.4947715422393179	1.443507
Ga	-0.0001813357756482 0.9693156855884898 0.4947452196503945	1.444111
Cu	0.4994559188308696 0.5034513727672808 0.0039045794057115	0.746575
Cu	-0.0005808963053659 0.0034443692479581 0.0039593841316258	0.746231
	  	
