#======================================================================

# CRYSTAL DATA

#----------------------------------------------------------------------

data_VESTA_phase_1


_pd_phase_name                         GaFFIVE_3_Zn
_cell_length_a                         14.31744
_cell_length_b                         14.31841
_cell_length_c                         8.04756
_cell_angle_alpha                      89.99427
_cell_angle_beta                       89.99630
_cell_angle_gamma                      90.77197
_symmetry_space_group_name_H-M         P 1
_symmetry_Int_Tables_number            1

loop_
_symmetry_equiv_pos_as_xyz
   x, y, z

loop_
   _atom_site_label
   _atom_site_fract_x
   _atom_site_fract_y
   _atom_site_fract_z
   _atom_site_charge
C	0.2604583782514709 0.4526607289998187 0.6377670063386863	0.055700
C	0.2362768554171330 0.0506896898929057 0.6441711060584723	0.063026
C	0.2373545137814461 0.4533091412142606 0.3541869437439786	0.051276
C	0.2600418489156264 0.0498963731193242 0.3612498007539302	0.061100
C	0.0499414402906746 0.2600532626600092 0.3612467634284646	0.060693
C	0.4533219927013343 0.2373314249833432 0.3541922331153414	0.051541
C	0.4526680922851600 0.2604446847963978 0.6377780123113784	0.055682
C	0.0507272082422774 0.2362513533702772 0.6441907727016962	0.063078
C	0.9533161840740340 0.2373198542287511 0.6458213018002200	0.051130
C	0.5499131223022520 0.2600469194151897 0.6387701666311324	0.061286
C	0.5507342998567050 0.2362808127018577 0.3558436416660274	0.063087
C	0.9526974213059536 0.2604660639200170 0.3622613447568642	0.056002
C	0.7362931852248157 0.0507403603331169 0.3557655666079010	0.062584
C	0.7604972646261661 0.4526996227001296 0.3622540543819334	0.055908
C	0.7600607797277316 0.0499045454663651 0.6386997860825148	0.060709
C	0.7373479095220372 0.4533370325738932 0.6458320098209800	0.051646
C	0.4533054959007701 0.7373267153047388 0.6458253643170119	0.051244
C	0.0498909187147847 0.7600243407412550 0.6387318524120964	0.060825
C	0.0507203294183634 0.7362617385115741 0.3558319200737812	0.062867
C	0.4526580018531270 0.7604322147433440 0.3622787840493396	0.055719
C	0.2362877212880717 0.5507142199229896 0.3558553095302652	0.063037
C	0.2604435839208311 0.9526483385281357 0.3622776147061270	0.055656
C	0.2600488652417830 0.5498905099231834 0.6387428603854322	0.061218
C	0.2373320977922627 0.9532758629347388 0.6458218363397553	0.051048
C	0.7604709212304134 0.9526666489757334 0.6376940631270840	0.055962
C	0.7362771442652245 0.5507402889138108 0.6441646884896758	0.062813
C	0.7373469462627061 0.9533330594431186 0.3541292858416094	0.051848
C	0.7600756487431984 0.5499329165575465 0.3612428191631767	0.061020
C	0.5498903493456909 0.7600341009787585 0.3612658500156425	0.060894
C	0.9533131132552142 0.7373385866828925 0.3541725755317391	0.051345
C	0.9526527995918240 0.7604435974544578 0.6377148981388331	0.055772
C	0.5507088254303159 0.7362688855558326 0.6441713487146389	0.062941
H	0.2672346870604605 0.4131592558702069 0.7526741026246828	0.112062
H	0.2247075325479421 0.0902604720297899 0.7579468791522833	0.108226
H	0.2282553008629292 0.4147629830072961 0.2381110934871833	0.114926
H	0.2680244765982900 0.0892987805138410 0.2463627620499943	0.107093
H	0.0893700794220047 0.2680363804392996 0.2463557173381845	0.106997
H	0.4147789704339572 0.2282377057985615 0.2380626881618551	0.114881
H	0.4131771003041319 0.2672113951491883 0.7527468077959391	0.112132
H	0.0903181729830289 0.2246710955890913 0.7579719971198214	0.108159
H	0.9147658355667049 0.2282215001893761 0.7619072642469887	0.115077
H	0.5892980971588907 0.2680193879410613 0.7536248384656968	0.107119
H	0.5903166755270068 0.2247037734353864 0.2420894872230276	0.107975
H	0.9132164993371463 0.2672359252115860 0.2473298422440292	0.112202
H	0.7247225345599554 0.0903314328395593 0.2420072512716634	0.108132
H	0.7672688872448726 0.4131988015947979 0.2473412934236213	0.112120
H	0.7680154275876006 0.0893061771863823 0.7535572367314093	0.107285
H	0.7282412082504931 0.4147808972003865 0.7619221594395750	0.114891
H	0.4147587908659535 0.7282205356815417 0.7619450840608361	0.115052
H	0.0892889155348089 0.7679968618556049 0.7536061656435896	0.107121
H	0.0903105247993375 0.7246730616030290 0.2420619955861221	0.108120
H	0.4131607634444693 0.7672133209756893 0.2473268702254932	0.112179
H	0.2247086278452832 0.5903121056104094 0.2420740066843366	0.107958
H	0.2672393956222197 0.9131780659415004 0.2473282404445276	0.112140
H	0.2680283578945246 0.5893115891245223 0.7536070313692570	0.107050
H	0.2282239197231347 0.9147497794402127 0.7619352433611555	0.115076
H	0.7672442937153652 0.9131708410297251 0.7526703829001694	0.112150
H	0.7246889703800165 0.5903341936336722 0.7579545853504349	0.108075
H	0.7282242755273545 0.9147919640004490 0.2379999821466765	0.114812
H	0.7680417214014706 0.5893567808364805 0.2463437052389302	0.106935
H	0.5892996645231354 0.7680255696345925 0.2464152350193921	0.107073
H	0.9147893011621631 0.7282599991401314 0.2380566825214754	0.114983
H	0.9131661292922711 0.7672383039170955 0.7526439223115988	0.112153
H	0.5902868755797407 0.7247040146567872 0.7579276591899541	0.108077
Zn	0.2515773266254745 0.2514647064842034 0.4972382386217170	0.728141
Zn	0.7515205398189952 0.2515167725756141 0.5026144658962607	0.728377
Zn	0.2515110801007000 0.7515292065648731 0.5027101813827843	0.728344
Zn	0.7515140630636112 0.7515697140463001 0.4972279972830829	0.728148
Ga	0.2499066581717664 0.2499537708907691 -0.0032905852950019	1.441592
Ga	0.7499703181486297 0.2499394453561826 0.0033274093506547	1.441089
Ga	0.2498900031413626 0.7499105678145688 0.0033556136696382	1.441485
Ga	0.7498532604293259 0.7499906570426849 -0.0033770918429328	1.441036
F	0.2545582129486351 0.2546898023080073 0.7524147546486297	-0.552328
F	0.2494201433792690 0.2494640180285509 0.2409291675988580	-0.553315
F	0.1597490875408188 0.1592633918263178 -0.0132018341557902	-0.557941
F	0.2147350525442951 0.3720163847175493 -0.0013948999108066	-0.553831
F	0.3721388672973011 0.2152891579993589 -0.0014471424297025	-0.553960
F	0.7493974943246144 0.2493412393700987 0.7593600760868415	-0.553384
F	0.7547006074734091 0.2546769062500802 0.2475733373577150	-0.551833
F	0.6596635048370271 0.1593965646452339 0.0132778242861618	-0.557984
F	0.7149719959437477 0.3720673423272881 0.0013932592902789	-0.554032
F	0.8721903733029250 0.2151764016154244 0.0014048866960644	-0.553979
F	0.2493681177496289 0.7492803427708616 0.7591631266844349	-0.553629
F	0.2547255483584988 0.7546117127570877 0.2476547843681845	-0.552234
F	0.1593265772082664 0.6596572129243732 0.0134690895303668	-0.557851
F	0.2150390707121284 0.8720511036808553 0.0014068137188633	-0.553814
F	0.3719991416849430 0.7149271182925395 0.0013802594470809	-0.553893
F	0.7545995671799527 0.7546640116532711 0.7523211703089546	-0.552219
F	0.7493410833558241 0.7494002901646978 0.2407975760903316	-0.553193
F	0.6595405037003063 0.6594734029368382 -0.0132804318632282	-0.557867
F	0.7147759036652065 0.8720877070826416 -0.0014605282060152	-0.553672
F	0.8720685031038574 0.7153136527490531 -0.0014311933553958	-0.553791
N	0.4046045652358818 0.2498935986242015 0.4952456748000523	-0.186100
N	0.0988048602578540 0.2484969327807233 0.5021146587069718	-0.186427
N	0.2499293554622123 0.4045721670293481 0.4952349087062946	-0.186143
N	0.2485238395879337 0.0987645182392306 0.5021072690513786	-0.186456
N	0.9045977624290802 0.2499040757006314 0.5047797033367678	-0.186243
N	0.5988060900899844 0.2485227578789743 0.4979173516339651	-0.186521
N	0.7499301893848236 0.4046108284643481 0.5047921612780309	-0.186413
N	0.7485311634391222 0.0988035976860080 0.4978455265600347	-0.186259
N	0.4045771551727201 0.7498955464667314 0.5048050971143908	-0.186092
N	0.0987872683701521 0.7484948001829455 0.4978941584362447	-0.186224
N	0.2498995918647318 0.9045581911244126 0.5047940346162488	-0.185876
N	0.2485221858287478 0.5987857059982201 0.4979076604400813	-0.186503
N	0.9045684667065277 0.7499126899044949 0.4951947562765249	-0.186163
N	0.5987864993037222 0.7485129696363293 0.5021021773213922	-0.186224
N	0.7499161578120698 0.9046016083765216 0.4951621538159295	-0.186314
N	0.7485173647079134 0.5988109024065867 0.5020867167821154	-0.186393
	  	
