#======================================================================

# CRYSTAL DATA

#----------------------------------------------------------------------

data_VESTA_phase_1


_pd_phase_name                         GeFSIX_2_Cd_i
_cell_length_a                         14.29754
_cell_length_b                         14.29754
_cell_length_c                         8.22596
_cell_angle_alpha                      90
_cell_angle_beta                       90
_cell_angle_gamma                      90
_symmetry_space_group_name_H-M         P 1
_symmetry_Int_Tables_number            1

loop_
_symmetry_equiv_pos_as_xyz
   x, y, z

loop_
   _atom_site_label
   _atom_site_fract_x
   _atom_site_fract_y
   _atom_site_fract_z
   _atom_site_charge
C	-0.0000000000000000 0.3079281559506769 0.3529161639487167	-0.157565
C	-0.0000000000000000 0.2108849168764514 0.3584075928072999	0.106409
C	0.5000000000000000 0.8079281559506774 0.8529161929487152	-0.157566
C	0.5000000000000000 0.7108849348764529 0.8584075928072996	0.106407
C	-0.0000000000000000 0.6920718440493226 0.3529161639487167	-0.157568
C	-0.0000000000000000 0.7891150651235471 0.3584075928072999	0.106409
C	0.5000000000000000 0.1920718610493209 0.8529161929487152	-0.157568
C	0.5000000000000000 0.2891150651235471 0.8584075928072996	0.106409
C	0.6920718440493226 -0.0000000000000000 0.3529161639487167	-0.157566
C	0.7891150651235471 -0.0000000000000000 0.3584075928072999	0.106411
C	0.1920718610493209 0.5000000000000000 0.8529161929487152	-0.157566
C	0.2891150651235471 0.5000000000000000 0.8584075928072996	0.106411
C	0.3079281559506769 -0.0000000000000000 0.3529161639487167	-0.157567
C	0.2108849168764514 -0.0000000000000000 0.3584075928072999	0.106415
C	0.8079281559506774 0.5000000000000000 0.8529161929487152	-0.157568
C	0.7108849348764529 0.5000000000000000 0.8584075928072996	0.106413
C	-0.0000000000000000 0.3079281559506769 0.6470838070512848	-0.157560
C	-0.0000000000000000 0.2108849168764514 0.6415924071927004	0.106410
C	0.5000000000000000 0.8079281559506774 0.1470838360512832	-0.157561
C	0.5000000000000000 0.7108849348764529 0.1415923921927026	0.106409
C	-0.0000000000000000 0.6920718440493226 0.6470838070512848	-0.157563
C	-0.0000000000000000 0.7891150651235471 0.6415924071927004	0.106411
C	0.5000000000000000 0.1920718610493209 0.1470838360512832	-0.157563
C	0.5000000000000000 0.2891150651235471 0.1415923921927026	0.106411
C	0.3079281559506769 -0.0000000000000000 0.6470838070512848	-0.157562
C	0.2108849168764514 -0.0000000000000000 0.6415924071927004	0.106416
C	0.8079281559506774 0.5000000000000000 0.1470838360512832	-0.157563
C	0.7108849348764529 0.5000000000000000 0.1415923921927026	0.106414
C	0.6920718440493226 -0.0000000000000000 0.6470838070512848	-0.157561
C	0.7891150651235471 -0.0000000000000000 0.6415924071927004	0.106412
C	0.1920718610493209 0.5000000000000000 0.1470838360512832	-0.157561
C	0.2891150651235471 0.5000000000000000 0.1415923921927026	0.106412
C	-0.0000000000000000 0.4573521365451236 0.5000000000000000	-0.096172
C	-0.0000000000000000 0.3584237139915236 0.5000000000000000	0.162158
C	0.5000000000000000 0.9573521705451267 0.0000000000000000	-0.096172
C	0.5000000000000000 0.8584236789915237 0.0000000000000000	0.162158
C	-0.0000000000000000 0.5426478634548761 0.5000000000000000	-0.095930
C	-0.0000000000000000 0.6415763210084763 0.5000000000000000	0.162129
C	0.5000000000000000 0.0426478424548710 0.0000000000000000	-0.095930
C	0.5000000000000000 0.1415763210084759 0.0000000000000000	0.162129
C	0.5426478634548761 -0.0000000000000000 0.5000000000000000	-0.096172
C	0.6415763210084763 -0.0000000000000000 0.5000000000000000	0.162158
C	0.0426478424548710 0.5000000000000000 0.0000000000000000	-0.096172
C	0.1415763210084759 0.5000000000000000 0.0000000000000000	0.162158
C	0.4573521365451237 -0.0000000000000000 0.5000000000000000	-0.095930
C	0.3584237139915236 -0.0000000000000000 0.5000000000000000	0.162129
C	0.9573521705451267 0.5000000000000000 0.0000000000000000	-0.095930
C	0.8584236789915237 0.5000000000000000 0.0000000000000000	0.162129
H	-0.0000000000000000 0.3442716644523600 0.2367165353534380	0.120183
H	-0.0000000000000000 0.1691661639555667 0.2471563581568477	0.100369
H	0.5000000000000000 0.8442716644523598 0.7367165353534377	0.120183
H	0.5000000000000000 0.6691661109555654 0.7471563881568503	0.100369
H	-0.0000000000000000 0.6557283355476402 0.2367165353534380	0.120182
H	-0.0000000000000000 0.8308338890444346 0.2471563581568477	0.100369
H	0.5000000000000000 0.1557283355476400 0.7367165353534377	0.120182
H	0.5000000000000000 0.3308338540444277 0.7471563881568503	0.100369
H	0.6557283355476402 -0.0000000000000000 0.2367165353534380	0.120183
H	0.8308338890444346 -0.0000000000000000 0.2471563581568477	0.100368
H	0.1557283355476400 0.5000000000000000 0.7367165353534377	0.120183
H	0.3308338540444277 0.5000000000000000 0.7471563881568503	0.100368
H	0.3442716644523600 -0.0000000000000000 0.2367165353534380	0.120182
H	0.1691661639555667 -0.0000000000000000 0.2471563581568477	0.100368
H	0.8442716644523598 0.5000000000000000 0.7367165353534377	0.120182
H	0.6691661109555654 0.5000000000000000 0.7471563881568503	0.100368
H	-0.0000000000000000 0.3442716644523600 0.7632834646465623	0.120177
H	-0.0000000000000000 0.1691661639555667 0.7528435538431520	0.100368
H	0.5000000000000000 0.8442716644523598 0.2632834646465622	0.120177
H	0.5000000000000000 0.6691661109555654 0.2528436418431523	0.100368
H	-0.0000000000000000 0.6557283355476402 0.7632834646465623	0.120176
H	-0.0000000000000000 0.8308338890444346 0.7528435538431520	0.100368
H	0.5000000000000000 0.1557283355476400 0.2632834646465622	0.120176
H	0.5000000000000000 0.3308338540444277 0.2528436418431523	0.100368
H	0.3442716644523600 -0.0000000000000000 0.7632834646465623	0.120176
H	0.1691661639555667 -0.0000000000000000 0.7528435538431520	0.100368
H	0.8442716644523598 0.5000000000000000 0.2632834646465622	0.120176
H	0.6691661109555654 0.5000000000000000 0.2528436418431523	0.100367
H	0.6557283355476402 -0.0000000000000000 0.7632834646465623	0.120177
H	0.8308338890444346 -0.0000000000000000 0.7528435538431520	0.100367
H	0.1557283355476400 0.5000000000000000 0.2632834646465622	0.120177
H	0.3308338540444277 0.5000000000000000 0.2528436418431523	0.100367
Cd	-0.0000000000000000 -0.0000000000000000 0.5000000000000000	0.827397
Cd	0.5000000000000000 0.5000000000000000 0.0000000000000000	0.827417
Ge	-0.0000000000000000 -0.0000000000000000 0.0000000000000000	1.778798
Ge	0.5000000000000000 0.5000000000000000 0.5000000000000000	1.778799
N	-0.0000000000000000 0.1634665102004641 0.5000000000000000	-0.239246
N	0.5000000000000000 0.6634664922004625 0.0000000000000000	-0.239247
N	-0.0000000000000000 0.8365335077995375 0.5000000000000000	-0.239244
N	0.5000000000000000 0.3365335077995374 0.0000000000000000	-0.239247
N	0.8365335077995375 -0.0000000000000000 0.5000000000000000	-0.239245
N	0.3365335077995375 0.5000000000000000 0.0000000000000000	-0.239248
N	0.1634665102004640 -0.0000000000000000 0.5000000000000000	-0.239247
N	0.6634664922004625 0.5000000000000000 0.0000000000000000	-0.239248
F	-0.0000000000000000 -0.0000000000000000 0.7733915042134600	-0.521223
F	0.5000000000000000 0.5000000000000000 0.2733915932134639	-0.521225
F	-0.0000000000000000 -0.0000000000000000 0.2266084217865408	-0.521223
F	0.5000000000000000 0.5000000000000000 0.7266084957865400	-0.521225
F	0.5900198984734916 0.5900198984734916 0.5000000000000000	-0.556575
F	0.5900198984734916 0.4099801015265087 0.5000000000000000	-0.556575
F	0.4099801015265087 0.5900198984734916 0.5000000000000000	-0.556575
F	0.4099801015265087 0.4099801015265087 0.5000000000000000	-0.556575
F	0.0900199154734893 0.0900199154734893 0.0000000000000000	-0.556575
F	0.9099801015265084 0.9099801015265085 0.0000000000000000	-0.556575
F	0.9099801015265085 0.0900199154734893 0.0000000000000000	-0.556575
F	0.0900199154734893 0.9099801015265085 0.0000000000000000	-0.556575
	  	
