#======================================================================

# CRYSTAL DATA

#----------------------------------------------------------------------

data_VESTA_phase_1


_pd_phase_name                         GeFSIX_13_Co_i
_cell_length_a                         15.01860
_cell_length_b                         15.01670
_cell_length_c                         7.95644
_cell_angle_alpha                      89.96534
_cell_angle_beta                       89.92635
_cell_angle_gamma                      89.87827
_symmetry_space_group_name_H-M         P 1
_symmetry_Int_Tables_number            1

loop_
_symmetry_equiv_pos_as_xyz
   x, y, z

loop_
   _atom_site_label
   _atom_site_fract_x
   _atom_site_fract_y
   _atom_site_fract_z
   _atom_site_charge
C	0.5405024296220609 0.6779334011989590 0.8705268512180976	0.097900
C	0.5434791220177412 0.7705193651649906 0.8686293275224269	-0.143981
C	0.4633548601791072 0.3246851801094497 0.8770068997299145	0.097116
C	0.4601648408547337 0.2321819348307480 0.8775068572284266	-0.137439
C	0.8237508399579665 0.9731654622639047 0.3646115535434542	0.099959
C	0.7314264941710874 0.9707790641630961 0.3615554870970252	-0.132715
C	0.3243692780233878 0.5414129779846564 0.8683694477934396	0.097477
C	0.2318157173922365 0.5452777251021528 0.8663013989187038	-0.145406
C	0.1781375478575982 0.9716013742394847 0.3571257613717412	0.092351
C	0.2705955404230595 0.9701999246299075 0.3542870698097685	-0.131588
C	0.6774860229306382 0.4628330607015430 0.8823323091773705	0.098949
C	0.7699049483155049 0.4599947983000580 0.8821350886896746	-0.136293
C	0.4550780219819723 0.6782655429850202 0.1157626120081448	0.099356
C	0.4516104075541896 0.7707001103529962 0.1169729258612087	-0.134846
C	0.5395903626833286 0.3264835569996276 0.1326089499714250	0.095184
C	0.5423576867508967 0.2338820750661548 0.1371371354405818	-0.144951
C	0.1764052074431187 0.0202551288375819 0.6352568292058202	0.099513
C	0.2686860518406636 0.0220690431688021 0.6410146824775169	-0.132217
C	0.6752836114569518 0.5433929131707079 0.1331266875741690	0.099061
C	0.7679032528889361 0.5467554727176064 0.1366415009121169	-0.145181
C	0.8237740336331077 0.0291010554301265 0.6379181647933299	0.092188
C	0.7313682305887462 0.0302679110886390 0.6431549752698233	-0.131412
C	0.3232096204141642 0.4584667836929467 0.1166083360379958	0.099660
C	0.2307352063333638 0.4558108942918392 0.1176416700626027	-0.137127
C	0.9661021158520350 0.8218752521624842 0.6348037706030935	0.101303
C	0.9647520850120442 0.7294110433976616 0.6402733234308139	-0.131763
C	0.9831855330997691 0.1749885264466561 0.6390446953822762	0.090930
C	0.9801662161786547 0.2672709142929783 0.6424999179453305	-0.132879
C	0.0214695724912724 0.8207931610293552 0.3610021379193169	0.091784
C	0.0237596600003165 0.7284745645352614 0.3582505058866254	-0.131845
C	0.0307145663115094 0.1746027201788419 0.3600212293636059	0.101639
C	0.0309862131523036 0.2670648321884479 0.3548261883420072	-0.133141
C	0.0039605144068230 0.3144358657763811 0.4976956523998120	0.040892
C	0.0010798124488452 0.4119505431955466 0.4975727780478732	0.254296
C	0.4978273302565547 0.8179719944327712 0.9930627253289384	0.053557
C	0.4988647977439731 0.9161555873553506 0.9979049033352603	0.247639
C	0.9952055707120597 0.6815767982899439 0.5003974803953466	0.036435
C	0.9970338991230017 0.5839282703314084 0.5003797437139841	0.247786
C	0.5010794491497830 0.1857009324551015 0.0088475784431404	0.055051
C	0.5004127556963878 0.0874092675238151 0.0096837872650047	0.250861
C	0.6840758208654415 -0.0000352759162291 0.5030052644970914	0.036381
C	0.5864875928351542 0.9977657598057401 0.5041254431582168	0.247727
C	0.1839403419645433 0.5011333396391630 0.9918746367466901	0.056137
C	0.0857426542445284 0.5021631153812357 0.9943662645690053	0.247469
C	0.3169595308855451 0.9960834243530765 0.4985914113142458	0.038270
C	0.4145103549263885 0.9960205496652645 0.5015550515622220	0.257006
C	0.8162399952129509 0.5036292969432054 0.0102172512269605	0.054605
C	0.9145072562728587 0.5035068825851734 0.0076294878210920	0.247275
H	0.5711547071371389 0.6386597652726059 0.7706606395786063	0.110012
H	0.5800148511604992 0.8045848210267766 0.7692528526311642	0.126368
H	0.4362850046351999 0.3632647319097074 0.7725996788494683	0.110367
H	0.4286299746351621 0.1965293493339460 0.7744300119842000	0.121226
H	0.8626343407549927 0.9522416797530523 0.2559906380232195	0.107389
H	0.6970908575700974 0.9470345334505526 0.2498210389027908	0.122252
H	0.3637951983497914 0.5708048520010489 0.7673408223725227	0.109926
H	0.1980948414443780 0.5812639268172248 0.7658213861858745	0.127071
H	0.1405391063095545 0.9543350908369040 0.2449378588446270	0.100654
H	0.3053188895104770 0.9506793587660227 0.2397639558204118	0.118396
H	0.6389235102304192 0.4341069827322566 0.7799309921387224	0.110388
H	0.8056799816115836 0.4269081192023245 0.7806148818819167	0.119742
H	0.4246040118024614 0.6390102012517898 0.2156481741022686	0.111005
H	0.4166700034587238 0.8057316614367149 0.2171258630422963	0.119029
H	0.5669294501395870 0.3662269752876772 0.2350781589085446	0.110377
H	0.5749745495103123 0.2003848647399261 0.2418776751998964	0.126782
H	0.1369577794330039 0.0386280190003032 0.7446986504281897	0.106315
H	0.3021179930001769 0.0421603189401323 0.7561950777042592	0.121116
H	0.6354078670437853 0.5722313579105078 0.2342377515108109	0.109616
H	0.8012495235810633 0.5813560574414455 0.2390821368833323	0.127010
H	0.8620866308248628 0.0491233121896770 0.7475707495890610	0.100599
H	0.6973356968679447 0.0529105313935839 0.7563283316991515	0.122880
H	0.3620673347559752 0.4286535979011152 0.2177889295947252	0.109934
H	0.1953126681181457 0.4219310853576250 0.2185366412096624	0.118637
H	0.9449019469211781 0.8610951640753818 0.7427924615158107	0.108221
H	0.9416472117794400 0.6956614843667185 0.7533770313923943	0.121377
H	0.9674595174596902 0.1367311744400181 0.7512585736445094	0.099514
H	0.9605196337183340 0.3015173695159448 0.7573009744842408	0.122106
H	0.0406152399092321 0.8587239991511582 0.2502395456192781	0.099517
H	0.0467256409946704 0.6940274853170519 0.2459281474801752	0.120606
H	0.0495476321287715 0.1355992145246019 0.2502279671348500	0.108362
H	0.0502183388677825 0.3012221202447734 0.2395620255073192	0.120568
N	0.9442894583484485 0.5402263753678542 0.6107238504956169	-0.135627
N	0.4203088923630336 0.0466373856125667 0.0086388826149323	-0.148356
N	0.5431886440032293 0.0498684919873201 0.6163519640573252	-0.135819
N	0.9556657944021023 0.4234482532150005 0.0024217322913342	-0.146282
N	0.0512342698633483 0.5433248252219154 0.3878972150872600	-0.134167
N	0.5797018581524230 0.0448504141096396 0.0117230114198986	-0.148697
N	0.9566009369549204 0.5828763248193535 0.0052265153973751	-0.147058
N	0.5455728273940080 0.9425142139045499 0.3945437586915364	-0.132270
N	0.0537450338490464 0.4556974124250102 0.3873607158077135	-0.130870
N	0.5789350185699464 0.9569621330933203 0.0008484480798239	-0.144781
N	0.4578674056170606 0.9415080632205891 0.3937346241285306	-0.132789
N	0.0444902671880623 0.5821691416794498 0.9940220321547444	-0.144610
N	0.9459009093104013 0.4524803244342011 0.6081639248368997	-0.131382
N	0.4196106583501790 0.9586034650693310 0.0065638497796936	-0.144813
N	0.0436713206682921 0.4227543652390869 0.9991838333533503	-0.147017
N	0.4555006248512358 0.0491725020182040 0.6144793701347311	-0.135394
N	0.0061246489132524 0.1292299696929887 0.4993855019355304	-0.173126
N	0.4982629759960424 0.6326435984462171 0.9938635135480985	-0.184998
N	0.9947863280164417 0.8669349493803670 0.4978228001046083	-0.173536
N	0.5014553951516584 0.3709803801024584 0.0036207601772623	-0.186893
N	0.8693235589727768 0.0015244605069936 0.5008587113356149	-0.173103
N	0.3692188788817968 0.4999364094136792 0.9931497322861744	-0.186633
N	0.1316861311913019 0.9953305721417430 0.4956796644230816	-0.172575
N	0.6309487642193120 0.5030305040030303 0.0066655070166624	-0.186693
Co	0.0004477082911383 0.9981144308892457 0.4981584498572065	0.561649
Co	0.5000391741731934 0.5017325675062968 0.9992485035518071	0.578987
Ge	0.9997077716239834 0.9970067648509897 0.9984520299313866	1.745217
Ge	0.4993956540108283 0.5033991192119958 0.4989519727544984	1.766476
F	0.9970370221611412 0.0020380350882348 0.2300616575315918	-0.506024
F	0.5061690115881746 0.4996437968087990 0.7307131683504370	-0.513907
F	0.0026044824139518 0.9924118937258004 0.7667604540932703	-0.505747
F	0.4928483624159995 0.5062339971599739 0.2673683911210966	-0.514189
F	0.0861006959973454 0.0823051791363408 0.9955146919258221	-0.536210
F	0.5831759304457279 0.5915697693817803 0.4951366583200786	-0.551632
F	0.9132369599448070 0.9120761384860093 0.0010831196114569	-0.535250
F	0.4158085336121393 0.4152858109454194 0.5030979934670557	-0.553723
F	0.9148316054821057 0.0838413428868265 0.9868913734386248	-0.532096
F	0.4117453171828786 0.5876904789122811 0.5112059910638258	-0.551834
F	0.0852327254216111 0.9107949562977429 0.0101411223914053	-0.531899
F	0.5879656411849064 0.4198999034791827 0.4864009461556303	-0.552666
	  	
