#======================================================================

# CRYSTAL DATA

#----------------------------------------------------------------------

data_VESTA_phase_1


_pd_phase_name                         GeFSIX_15_Ni_i
_cell_length_a                         29.79688
_cell_length_b                         28.93715
_cell_length_c                         7.93730
_cell_angle_alpha                      90
_cell_angle_beta                       90
_cell_angle_gamma                      90
_symmetry_space_group_name_H-M         P 1
_symmetry_Int_Tables_number            1

loop_
_symmetry_equiv_pos_as_xyz
   x, y, z

loop_
   _atom_site_label
   _atom_site_fract_x
   _atom_site_fract_y
   _atom_site_fract_z
   _atom_site_charge
C	0.9339844667504548 0.1032904225122587 0.8959978030108777	0.106880
C	0.9019390468349870 0.0685363868183235 0.9017108191301445	-0.164498
C	0.7700047697994945 0.9363332555321275 0.9035461931083635	-0.114421
C	0.7357021562221140 0.9040263750045023 0.9033440721306784	-0.116025
C	0.5675355523770990 0.7409465089064895 0.8958692495991661	0.102866
C	0.6012713860566976 0.7739360986182772 0.9013677153499864	-0.167684
C	0.4339844987504505 0.6032904385122601 0.8959978030108777	0.106880
C	0.4019390788349897 0.5685363498183238 0.9017108191301445	-0.164498
C	0.2700047057994964 0.4363332885321268 0.9035461931083635	-0.114401
C	0.2357021242221117 0.4040264410045082 0.9033440721306784	-0.116034
C	0.0675355763771010 0.2409464919064916 0.8958692495991661	0.102870
C	0.1012713620566956 0.2739361316182766 0.9013677153499864	-0.167774
C	0.0660155012495498 0.8967095614877399 0.3959978340108770	0.106880
C	0.0980609291650108 0.9314636501816762 0.4017108511301399	-0.164498
C	0.2299952462005068 0.0636667074678728 0.4035462551083611	-0.114400
C	0.2642978597778868 0.0959735749954931 0.4033440721306784	-0.116035
C	0.4324644156228982 0.2590535410935076 0.3958692805991653	0.102870
C	0.3987286139433024 0.2260638683817234 0.4013677153499864	-0.167773
C	0.5660155332495452 0.3967095944877392 0.3959978340108770	0.106880
C	0.5980609531650130 0.4314636501816760 0.4017108511301399	-0.164499
C	0.7299952302005055 0.5636667444678725 0.4035462551083611	-0.114420
C	0.7642978437778860 0.5959736249954977 0.4033440721306784	-0.116025
C	0.9324644476229010 0.7590534910935105 0.3958692805991653	0.102866
C	0.8987286139433024 0.7260639013817228 0.4013677153499864	-0.167683
C	0.0660155012495498 0.1032904225122587 0.6040021659891233	0.106880
C	0.0980609291650108 0.0685363868183235 0.5982890868698548	-0.164498
C	0.2299952462005068 0.9363332555321275 0.5964537758916375	-0.114401
C	0.2642978597778868 0.9040263750045023 0.5966559588693207	-0.116034
C	0.4324644156228982 0.7409465089064895 0.6041306564008332	0.102868
C	0.3987286139433024 0.7739360986182772 0.5986322536500146	-0.167697
C	0.5660155332495452 0.6032904385122601 0.6040021659891233	0.106880
C	0.5980609531650130 0.5685363498183238 0.5982890868698548	-0.164498
C	0.7299952302005055 0.4363332885321268 0.5964537758916375	-0.114421
C	0.7642978437778860 0.4040264410045082 0.5966559588693207	-0.116025
C	0.9324644476229010 0.2409464919064916 0.6041306564008332	0.102869
C	0.8987286139433024 0.2739361316182766 0.5986322536500146	-0.167761
C	0.9339844667504548 0.8967095614877399 0.1040021819891245	0.106880
C	0.9019390468349870 0.9314636501816762 0.0982891258698547	-0.164499
C	0.7700047697994945 0.0636667074678728 0.0964537758916376	-0.114420
C	0.7357021562221140 0.0959735749954931 0.0966559438693159	-0.116025
C	0.5675355523770990 0.2590535410935076 0.1041307114008341	0.102868
C	0.6012713860566976 0.2260638683817234 0.0986322996500113	-0.167760
C	0.4339844987504505 0.3967095944877392 0.1040021819891245	0.106880
C	0.4019390788349897 0.4314636501816760 0.0982891258698547	-0.164499
C	0.2700047057994964 0.5636667444678725 0.0964537758916376	-0.114400
C	0.2357021242221117 0.5959736249954977 0.0966559438693159	-0.116035
C	0.0675355763771010 0.7590534910935105 0.1041307114008341	0.102867
C	0.1012713620566956 0.7260639013817228 0.0986322996500113	-0.167696
C	0.0660155012495498 0.8967095614877399 0.1040021819891245	0.106880
C	0.0980609291650108 0.9314636501816762 0.0982891258698547	-0.164498
C	0.2299952462005068 0.0636667074678728 0.0964537758916376	-0.114400
C	0.2642978597778868 0.0959735749954931 0.0966559438693159	-0.116035
C	0.4324644156228982 0.2590535410935076 0.1041307114008341	0.102870
C	0.3987286139433024 0.2260638683817234 0.0986322996500113	-0.167774
C	0.5660155332495452 0.3967095944877392 0.1040021819891245	0.106880
C	0.5980609531650130 0.4314636501816760 0.0982891258698547	-0.164499
C	0.7299952302005055 0.5636667444678725 0.0964537758916376	-0.114420
C	0.7642978437778860 0.5959736249954977 0.0966559438693159	-0.116025
C	0.9324644476229010 0.7590534910935105 0.1041307114008341	0.102866
C	0.8987286139433024 0.7260639013817228 0.0986322996500113	-0.167684
C	0.9339844667504548 0.1032904225122587 0.6040021659891233	0.106880
C	0.9019390468349870 0.0685363868183235 0.5982890868698548	-0.164498
C	0.7700047697994945 0.9363332555321275 0.5964537758916375	-0.114420
C	0.7357021562221140 0.9040263750045023 0.5966559588693207	-0.116025
C	0.5675355523770990 0.7409465089064895 0.6041306564008332	0.102866
C	0.6012713860566976 0.7739360986182772 0.5986322536500146	-0.167684
C	0.4339844987504505 0.6032904385122601 0.6040021659891233	0.106879
C	0.4019390788349897 0.5685363498183238 0.5982890868698548	-0.164498
C	0.2700047057994964 0.4363332885321268 0.5964537758916375	-0.114401
C	0.2357021242221117 0.4040264410045082 0.5966559588693207	-0.116034
C	0.0675355763771010 0.2409464919064916 0.6041306564008332	0.102870
C	0.1012713620566956 0.2739361316182766 0.5986322536500146	-0.167774
C	0.9339844667504548 0.8967095614877399 0.3959978340108770	0.106880
C	0.9019390468349870 0.9314636501816762 0.4017108511301399	-0.164499
C	0.7700047697994945 0.0636667074678728 0.4035462551083611	-0.114420
C	0.7357021562221140 0.0959735749954931 0.4033440721306784	-0.116025
C	0.5675355523770990 0.2590535410935076 0.3958692805991653	0.102868
C	0.6012713860566976 0.2260638683817234 0.4013677153499864	-0.167761
C	0.4339844987504505 0.3967095944877392 0.3959978340108770	0.106880
C	0.4019390788349897 0.4314636501816760 0.4017108511301399	-0.164499
C	0.2700047057994964 0.5636667444678725 0.4035462551083611	-0.114400
C	0.2357021242221117 0.5959736249954977 0.4033440721306784	-0.116035
C	0.0675355763771010 0.7590534910935105 0.3958692805991653	0.102867
C	0.1012713620566956 0.7260639013817228 0.4013677153499864	-0.167697
C	0.0660155012495498 0.1032904225122587 0.8959978030108777	0.106879
C	0.0980609291650108 0.0685363868183235 0.9017108191301445	-0.164498
C	0.2299952462005068 0.9363332555321275 0.9035461931083635	-0.114401
C	0.2642978597778868 0.9040263750045023 0.9033440721306784	-0.116034
C	0.4324644156228982 0.7409465089064895 0.8958692495991661	0.102867
C	0.3987286139433024 0.7739360986182772 0.9013677153499864	-0.167697
C	0.5660155332495452 0.6032904385122601 0.8959978030108777	0.106879
C	0.5980609531650130 0.5685363498183238 0.9017108191301445	-0.164498
C	0.7299952302005055 0.4363332885321268 0.9035461931083635	-0.114421
C	0.7642978437778860 0.4040264410045082 0.9033440721306784	-0.116025
C	0.9324644476229010 0.2409464919064916 0.8958692495991661	0.102869
C	0.8987286139433024 0.2739361316182766 0.9013677153499864	-0.167761
C	0.6533405107925491 0.8252006646765572 0.7500000160000013	-0.105360
C	0.8850229593471222 0.0503895236682830 0.7500000160000013	0.160698
C	0.8222463515459486 0.9863077291060255 0.7500000160000013	-0.096787
C	0.6190455252491789 0.7914557474182664 0.7500000160000013	0.168611
C	0.7876525155787609 0.9529824818323516 0.7500000160000013	0.126397
C	0.7179492115954020 0.8872908645083529 0.7500000160000013	0.139957
C	0.6831454443078233 0.8541585484682364 0.7500000160000013	-0.100946
C	0.8517176396463034 0.0156216443171044 0.7500000160000013	-0.106795
C	0.1533404947925480 0.3252006646765571 0.7500000160000013	-0.105332
C	0.3850228633471214 0.5503895356682842 0.7500000160000013	0.160698
C	0.3222463515459487 0.4863077291060257 0.7500000160000013	-0.096830
C	0.1190455172491781 0.2914557474182662 0.7500000160000013	0.168704
C	0.2876524835787652 0.4529824818323514 0.7500000160000013	0.126429
C	0.2179491955954006 0.3872908975083521 0.7500000160000013	0.139987
C	0.1831454113078241 0.3541585154682371 0.7500000160000013	-0.101037
C	0.3517176076463004 0.5156216393171001 0.7500000160000013	-0.106790
C	0.3466595212074532 0.1747993353234429 0.2500000000000000	-0.105332
C	0.1149771126528837 0.9496104643317158 0.2500000000000000	0.160698
C	0.1777536484540513 0.0136922668939740 0.2500000000000000	-0.096830
C	0.3809544747508213 0.2085442365817324 0.2500000000000000	0.168704
C	0.2123475004212405 0.0470175101676477 0.2500000000000000	0.126429
C	0.2820507884045981 0.1127090944916472 0.2500000000000000	0.139987
C	0.3168545886921759 0.1458414515317637 0.2500000000000000	-0.101037
C	0.1482823923536995 0.9843783276829007 0.2500000000000000	-0.106790
C	0.8466594892074509 0.6747993353234428 0.2500000000000000	-0.105359
C	0.6149770406528778 0.4496104973317154 0.2500000000000000	0.160698
C	0.6777536484540514 0.5136922708939745 0.2500000000000000	-0.096786
C	0.8809544747508211 0.7085442525817336 0.2500000000000000	0.168611
C	0.7123474844212391 0.5470175511676476 0.2500000000000000	0.126397
C	0.7820507884045980 0.6127091354916471 0.2500000000000000	0.139958
C	0.8168545556921767 0.6458414515317636 0.2500000000000000	-0.100946
C	0.6482823603536966 0.4843783276829004 0.2500000000000000	-0.106796
C	0.3466595212074532 0.8252006646765572 0.7500000160000013	-0.105332
C	0.1149771126528837 0.0503895236682830 0.7500000160000013	0.160698
C	0.1777536484540513 0.9863077291060255 0.7500000160000013	-0.096830
C	0.3809544747508213 0.7914557474182664 0.7500000160000013	0.168670
C	0.2123475004212405 0.9529824818323516 0.7500000160000013	0.126429
C	0.2820507884045981 0.8872908645083529 0.7500000160000013	0.139987
C	0.3168545886921759 0.8541585484682364 0.7500000160000013	-0.101036
C	0.1482823923536995 0.0156216443171044 0.7500000160000013	-0.106790
C	0.8466594892074509 0.3252006646765571 0.7500000160000013	-0.105361
C	0.6149770406528778 0.5503895356682842 0.7500000160000013	0.160698
C	0.6777536484540514 0.4863077291060257 0.7500000160000013	-0.096787
C	0.8809544747508211 0.2914557474182662 0.7500000160000013	0.168645
C	0.7123474844212391 0.4529824818323514 0.7500000160000013	0.126397
C	0.7820507884045980 0.3872908975083521 0.7500000160000013	0.139957
C	0.8168545556921767 0.3541585154682371 0.7500000160000013	-0.100947
C	0.6482823603536966 0.5156216393171000 0.7500000160000013	-0.106795
C	0.6533405107925491 0.1747993353234429 0.2500000000000000	-0.105360
C	0.8850229593471222 0.9496104643317158 0.2500000000000000	0.160698
C	0.8222463515459486 0.0136922668939740 0.2500000000000000	-0.096786
C	0.6190455252491789 0.2085442365817324 0.2500000000000000	0.168644
C	0.7876525155787609 0.0470175101676477 0.2500000000000000	0.126397
C	0.7179492115954020 0.1127090944916472 0.2500000000000000	0.139958
C	0.6831454443078233 0.1458414515317637 0.2500000000000000	-0.100947
C	0.8517176396463034 0.9843783276829008 0.2500000000000000	-0.106795
C	0.1533404947925480 0.6747993353234428 0.2500000000000000	-0.105331
C	0.3850228633471214 0.4496104973317154 0.2500000000000000	0.160698
C	0.3222463515459487 0.5136922708939745 0.2500000000000000	-0.096830
C	0.1190455172491781 0.7085442525817336 0.2500000000000000	0.168670
C	0.2876524835787652 0.5470175511676476 0.2500000000000000	0.126429
C	0.2179491955954006 0.6127091354916471 0.2500000000000000	0.139987
C	0.1831454113078241 0.6458414515317636 0.2500000000000000	-0.101036
C	0.3517176076463004 0.4843783276829004 0.2500000000000000	-0.106791
H	0.9472605823489810 0.1177331598100513 0.0121580672618208	0.093522
H	0.8901401201276260 0.0557322223414686 0.0227598970804422	0.121032
H	0.7836880506723223 0.9493143921880121 0.0217541115247805	0.105386
H	0.7220560812835963 0.8911559370686224 0.0216319331217156	0.114490
H	0.5535659487608745 0.7272611869598666 0.0121110027234651	0.092206
H	0.6137019897050815 0.7859044826469302 0.0225769879450657	0.125958
H	0.4472606783489819 0.6177331758100530 0.0121580672618208	0.093522
H	0.3901400561276278 0.5557322513414747 0.0227598970804422	0.121032
H	0.2836880506723223 0.4493143921880122 0.0217541115247805	0.105378
H	0.2220560972835979 0.3911560360686276 0.0216319331217156	0.114489
H	0.0535659567608752 0.2272612359598674 0.0121110027234651	0.092212
H	0.1137020057050756 0.2859044166469316 0.0225769879450657	0.125972
H	0.0527393576510141 0.8822668241899470 0.5121580962618195	0.093522
H	0.1098599278723709 0.9442677486585253 0.5227599320804414	0.121032
H	0.2163119813276804 0.0506856248119928 0.5217541435247836	0.105378
H	0.2779439187164034 0.1088439889313781 0.5216319291217152	0.114489
H	0.4464340512391256 0.2727387470401346 0.5121110027234653	0.092212
H	0.3862980102949186 0.2140955343530677 0.5225770189450645	0.125972
H	0.5527394176510190 0.3822668241899473 0.5121580962618195	0.093522
H	0.6098598798723740 0.4442677816585319 0.5227599320804414	0.121033
H	0.7163119493276777 0.5506856078119879 0.5217541435247836	0.105386
H	0.7779439187164037 0.6088440629313776 0.5216319291217152	0.114490
H	0.9464340512391255 0.7727388130401334 0.5121110027234653	0.092206
H	0.8862980102949185 0.7140955173530698 0.5225770189450645	0.125958
H	0.0527393576510141 0.1177331598100513 0.4878419347381794	0.093522
H	0.1098599278723709 0.0557322223414686 0.4772400679195514	0.121032
H	0.2163119813276804 0.9493143921880121 0.4782458884752195	0.105378
H	0.2779439187164034 0.8911559370686224 0.4783680708782848	0.114489
H	0.4464340512391256 0.7272611869598666 0.4878890292765375	0.092206
H	0.3862980102949186 0.7859044826469302 0.4774230120549343	0.125959
H	0.5527394176510190 0.6177331758100530 0.4878419347381794	0.093522
H	0.6098598798723740 0.5557322513414747 0.4772400679195514	0.121032
H	0.7163119493276777 0.4493143921880122 0.4782458884752195	0.105387
H	0.7779439187164037 0.3911560360686276 0.4783680708782848	0.114490
H	0.9464340512391255 0.2272612359598674 0.4878890292765375	0.092212
H	0.8862980102949185 0.2859044166469316 0.4774230120549343	0.125971
H	0.9472605823489810 0.8822668241899470 0.9878419347381795	0.093522
H	0.8901401201276260 0.9442677486585253 0.9772400369195525	0.121033
H	0.7836880506723223 0.0506856248119928 0.9782458884752191	0.105386
H	0.7220560812835963 0.1088439889313781 0.9783680398782787	0.114490
H	0.5535659487608745 0.2727387470401346 0.9878889972765347	0.092212
H	0.6137019897050815 0.2140955343530677 0.9774230120549345	0.125971
H	0.4472606783489819 0.3822668241899473 0.9878419347381795	0.093522
H	0.3901400561276278 0.4442677816585319 0.9772400369195525	0.121032
H	0.2836880506723223 0.5506856078119879 0.9782458884752191	0.105378
H	0.2220560972835979 0.6088440629313776 0.9783680398782787	0.114489
H	0.0535659567608752 0.7727388130401334 0.9878889972765347	0.092206
H	0.1137020057050756 0.7140955173530698 0.9774230120549345	0.125959
H	0.0527393576510141 0.8822668241899470 0.9878419347381795	0.093522
H	0.1098599278723709 0.9442677486585253 0.9772400369195525	0.121032
H	0.2163119813276804 0.0506856248119928 0.9782458884752191	0.105378
H	0.2779439187164034 0.1088439889313781 0.9783680398782787	0.114490
H	0.4464340512391256 0.2727387470401346 0.9878889972765347	0.092212
H	0.3862980102949186 0.2140955343530677 0.9774230120549345	0.125972
H	0.5527394176510190 0.3822668241899473 0.9878419347381795	0.093522
H	0.6098598798723740 0.4442677816585319 0.9772400369195525	0.121033
H	0.7163119493276777 0.5506856078119879 0.9782458884752191	0.105387
H	0.7779439187164037 0.6088440629313776 0.9783680398782787	0.114491
H	0.9464340512391255 0.7727388130401334 0.9878889972765347	0.092206
H	0.8862980102949185 0.7140955173530698 0.9774230120549345	0.125958
H	0.9472605823489810 0.1177331598100513 0.4878419347381794	0.093522
H	0.8901401201276260 0.0557322223414686 0.4772400679195514	0.121032
H	0.7836880506723223 0.9493143921880121 0.4782458884752195	0.105387
H	0.7220560812835963 0.8911559370686224 0.4783680708782848	0.114491
H	0.5535659487608745 0.7272611869598666 0.4878890292765375	0.092206
H	0.6137019897050815 0.7859044826469302 0.4774230120549343	0.125958
H	0.4472606783489819 0.6177331758100530 0.4878419347381794	0.093522
H	0.3901400561276278 0.5557322513414747 0.4772400679195514	0.121032
H	0.2836880506723223 0.4493143921880122 0.4782458884752195	0.105378
H	0.2220560972835979 0.3911560360686276 0.4783680708782848	0.114490
H	0.0535659567608752 0.2272612359598674 0.4878890292765375	0.092212
H	0.1137020057050756 0.2859044166469316 0.4774230120549343	0.125973
H	0.9472605823489810 0.8822668241899470 0.5121580962618195	0.093522
H	0.8901401201276260 0.9442677486585253 0.5227599320804414	0.121033
H	0.7836880506723223 0.0506856248119928 0.5217541435247836	0.105386
H	0.7220560812835963 0.1088439889313781 0.5216319291217152	0.114490
H	0.5535659487608745 0.2727387470401346 0.5121110027234653	0.092212
H	0.6137019897050815 0.2140955343530677 0.5225770189450645	0.125971
H	0.4472606783489819 0.3822668241899473 0.5121580962618195	0.093522
H	0.3901400561276278 0.4442677816585319 0.5227599320804414	0.121032
H	0.2836880506723223 0.5506856078119879 0.5217541435247836	0.105378
H	0.2220560972835979 0.6088440629313776 0.5216319291217152	0.114490
H	0.0535659567608752 0.7727388130401334 0.5121110027234653	0.092206
H	0.1137020057050756 0.7140955173530698 0.5225770189450645	0.125959
H	0.0527393576510141 0.1177331598100513 0.0121580672618208	0.093522
H	0.1098599278723709 0.0557322223414686 0.0227598970804422	0.121032
H	0.2163119813276804 0.9493143921880121 0.0217541115247805	0.105378
H	0.2779439187164034 0.8911559370686224 0.0216319331217156	0.114490
H	0.4464340512391256 0.7272611869598666 0.0121110027234651	0.092206
H	0.3862980102949186 0.7859044826469302 0.0225769879450657	0.125959
H	0.5527394176510190 0.6177331758100530 0.0121580672618208	0.093522
H	0.6098598798723740 0.5557322513414747 0.0227598970804422	0.121032
H	0.7163119493276777 0.4493143921880122 0.0217541115247805	0.105387
H	0.7779439187164037 0.3911560360686276 0.0216319331217156	0.114490
H	0.9464340512391255 0.2272612359598674 0.0121110027234651	0.092212
H	0.8862980102949185 0.2859044166469316 0.0225769879450657	0.125971
Ni	0.5000000000000000 0.6729544615147670 0.7500000160000013	0.764130
Ni	-0.0000000000000000 0.1729544785147649 0.7500000160000013	0.764113
Ni	0.5000000000000000 0.3270455384852328 0.2500000000000000	0.764113
Ni	-0.0000000000000000 0.8270455384852330 0.2500000000000000	0.764130
Ge	0.5000000000000000 0.6729585914429796 0.2500000000000000	1.758983
Ge	-0.0000000000000000 0.1729585914429798 0.2500000000000000	1.759070
Ge	0.5000000000000000 0.3270414405570229 0.7500000160000013	1.759070
Ge	-0.0000000000000000 0.8270414085570204 0.7500000160000013	1.758983
F	0.5000000000000000 0.7354535092083323 0.2500000000000000	-0.529701
F	0.5000000000000000 0.6104452328137406 0.2500000000000000	-0.527012
F	-0.0000000000000000 0.2354534602083319 0.2500000000000000	-0.529741
F	-0.0000000000000000 0.1104452168137394 0.2500000000000000	-0.527026
F	0.5000000000000000 0.2645465397916680 0.7500000160000013	-0.529741
F	0.5000000000000000 0.3895547341862602 0.7500000160000013	-0.527026
F	-0.0000000000000000 0.7645464907916677 0.7500000160000013	-0.529700
F	-0.0000000000000000 0.8895547671862594 0.7500000160000013	-0.527013
F	0.5607266423732972 0.6730497657033773 0.2500000000000000	-0.529660
F	0.0607266623732987 0.1730497987033764 0.2500000000000000	-0.529671
F	0.4392733256267002 0.3269501682966245 0.7500000160000013	-0.529671
F	0.9392733576267028 0.8269502342966227 0.7500000160000013	-0.529660
F	0.4392733256267002 0.6730497657033773 0.2500000000000000	-0.529660
F	0.9392733576267028 0.1730497987033764 0.2500000000000000	-0.529671
F	0.5607266423732972 0.3269501682966245 0.7500000160000013	-0.529671
F	0.0607266623732987 0.8269502342966227 0.7500000160000013	-0.529660
F	0.5000000000000000 0.6729730906293604 0.4895639875468995	-0.512736
F	-0.0000000000000000 0.1729731076293585 0.4895639875468995	-0.512741
F	0.5000000000000000 0.3270269423706387 -0.0104360124531004	-0.512741
F	-0.0000000000000000 0.8270269093706396 -0.0104360124531004	-0.512737
F	0.5000000000000000 0.6729730906293604 0.0104360084531001	-0.512736
F	-0.0000000000000000 0.1729731076293585 0.0104360084531001	-0.512741
F	0.5000000000000000 0.3270269423706387 0.5104359804531050	-0.512741
F	-0.0000000000000000 0.8270269093706396 0.5104359804531050	-0.512736
N	0.5506077110700338 0.7243944155352471 0.7500000160000013	-0.236861
N	0.9500029293476377 0.1206936719661335 0.7500000160000013	-0.239144
N	0.0506076750700309 0.2243943995352457 0.7500000160000013	-0.236776
N	0.4500029293476380 0.6206936559661321 0.7500000160000013	-0.239147
N	0.4493923529299643 0.2756055844647529 0.2500000000000000	-0.236776
N	0.0499970786523628 0.8793063440338679 0.2500000000000000	-0.239147
N	0.9493922889299662 0.7756055844647529 0.2500000000000000	-0.236860
N	0.5499970706523623 0.3793063440338678 0.2500000000000000	-0.239145
N	0.4493923529299643 0.7243944155352471 0.7500000160000013	-0.236860
N	0.0499970786523628 0.1206936719661335 0.7500000160000013	-0.239144
N	0.9493922889299662 0.2243943995352457 0.7500000160000013	-0.236776
N	0.5499970706523623 0.6206936559661321 0.7500000160000013	-0.239146
N	0.5506077110700338 0.2756055844647529 0.2500000000000000	-0.236776
N	0.9500029293476377 0.8793063440338679 0.2500000000000000	-0.239146
N	0.0506076750700309 0.7756055844647529 0.2500000000000000	-0.236860
N	0.4500029293476380 0.3793063440338678 0.2500000000000000	-0.239144
	  	
