#======================================================================

# CRYSTAL DATA

#----------------------------------------------------------------------

data_VESTA_phase_1


_pd_phase_name                         GeFSIX_2_Fe_i
_cell_length_a                         14.04258
_cell_length_b                         14.04258
_cell_length_c                         7.94025
_cell_angle_alpha                      90
_cell_angle_beta                       90
_cell_angle_gamma                      90
_symmetry_space_group_name_H-M         P 1
_symmetry_Int_Tables_number            1

loop_
_symmetry_equiv_pos_as_xyz
   x, y, z

loop_
   _atom_site_label
   _atom_site_fract_x
   _atom_site_fract_y
   _atom_site_fract_z
   _atom_site_charge
C	-0.0000000000000000 0.3044443230049287 0.3480661032186420	-0.158683
C	-0.0000000000000000 0.2057176169413990 0.3538958941243810	0.107176
C	0.5000000000000000 0.8044443230049291 0.8480661322186406	-0.158683
C	0.5000000000000000 0.7057176349414006 0.8538958941243809	0.107176
C	-0.0000000000000000 0.6955556769950709 0.3480661032186420	-0.158685
C	-0.0000000000000000 0.7942823650585994 0.3538958941243810	0.107178
C	0.5000000000000000 0.1955556939950689 0.8480661322186406	-0.158685
C	0.5000000000000000 0.2942823650585994 0.8538958941243809	0.107178
C	0.6955556769950709 0.0000000000000000 0.3480661032186420	-0.158683
C	0.7942823650585994 0.0000000000000000 0.3538958941243810	0.107176
C	0.1955556939950689 0.5000000000000000 0.8480661322186406	-0.158683
C	0.2942823650585994 0.5000000000000000 0.8538958941243809	0.107176
C	0.3044443230049287 0.0000000000000000 0.3480661032186420	-0.158685
C	0.2057176169413990 0.0000000000000000 0.3538958941243810	0.107178
C	0.8044443230049291 0.5000000000000000 0.8480661322186406	-0.158685
C	0.7057176349414006 0.5000000000000000 0.8538958941243809	0.107178
C	-0.0000000000000000 0.3044443230049287 0.6519338677813594	-0.158683
C	-0.0000000000000000 0.2057176169413990 0.6461041058756191	0.107176
C	0.5000000000000000 0.8044443230049291 0.1519338967813580	-0.158683
C	0.5000000000000000 0.7057176349414006 0.1461040908756213	0.107176
C	-0.0000000000000000 0.6955556769950709 0.6519338677813594	-0.158686
C	-0.0000000000000000 0.7942823650585994 0.6461041058756191	0.107178
C	0.5000000000000000 0.1955556939950689 0.1519338967813580	-0.158686
C	0.5000000000000000 0.2942823650585994 0.1461040908756213	0.107178
C	0.3044443230049287 0.0000000000000000 0.6519338677813594	-0.158686
C	0.2057176169413990 0.0000000000000000 0.6461041058756191	0.107178
C	0.8044443230049291 0.5000000000000000 0.1519338967813580	-0.158686
C	0.7057176349414006 0.5000000000000000 0.1461040908756213	0.107178
C	0.6955556769950709 0.0000000000000000 0.6519338677813594	-0.158683
C	0.7942823650585994 0.0000000000000000 0.6461041058756191	0.107176
C	0.1955556939950689 0.5000000000000000 0.1519338967813580	-0.158684
C	0.2942823650585994 0.5000000000000000 0.1461040908756213	0.107176
C	-0.0000000000000000 0.4565725131026723 0.5000000000000000	-0.097315
C	-0.0000000000000000 0.3559801497369238 0.5000000000000000	0.156557
C	0.5000000000000000 0.9565725471026749 -0.0000000000000000	-0.097315
C	0.5000000000000000 0.8559801147369243 -0.0000000000000000	0.156557
C	-0.0000000000000000 0.5434274868973279 0.5000000000000000	-0.097073
C	-0.0000000000000000 0.6440198852630757 0.5000000000000000	0.156529
C	0.5000000000000000 0.0434274658973225 -0.0000000000000000	-0.097073
C	0.5000000000000000 0.1440198852630755 -0.0000000000000000	0.156529
C	0.5434274868973279 0.0000000000000000 0.5000000000000000	-0.097315
C	0.6440198852630757 0.0000000000000000 0.5000000000000000	0.156557
C	0.0434274658973225 0.5000000000000000 -0.0000000000000000	-0.097316
C	0.1440198852630755 0.5000000000000000 -0.0000000000000000	0.156557
C	0.4565725131026723 0.0000000000000000 0.5000000000000000	-0.097073
C	0.3559801497369238 0.0000000000000000 0.5000000000000000	0.156529
C	0.9565725471026750 0.5000000000000000 -0.0000000000000000	-0.097073
C	0.8559801147369243 0.5000000000000000 -0.0000000000000000	0.156529
H	-0.0000000000000000 0.3414269073164098 0.2277438154611244	0.119161
H	-0.0000000000000000 0.1642277008024319 0.2382325979033713	0.091107
H	0.5000000000000000 0.8414269073164096 0.7277438154611247	0.119161
H	0.5000000000000000 0.6642276478024310 0.7382326279033735	0.091107
H	-0.0000000000000000 0.6585730926835904 0.2277438154611244	0.119160
H	-0.0000000000000000 0.8357723521975690 0.2382325979033713	0.091108
H	0.5000000000000000 0.1585730926835901 0.7277438154611247	0.119160
H	0.5000000000000000 0.3357723171975624 0.7382326279033735	0.091108
H	0.6585730926835904 0.0000000000000000 0.2277438154611244	0.119161
H	0.8357723521975690 0.0000000000000000 0.2382325979033713	0.091108
H	0.1585730926835901 0.5000000000000000 0.7277438154611247	0.119161
H	0.3357723171975624 0.5000000000000000 0.7382326279033735	0.091108
H	0.3414269073164098 0.0000000000000000 0.2277438154611244	0.119160
H	0.1642277008024319 0.0000000000000000 0.2382325979033713	0.091108
H	0.8414269073164096 0.5000000000000000 0.7277438154611247	0.119160
H	0.6642276478024310 0.5000000000000000 0.7382326279033735	0.091108
H	-0.0000000000000000 0.3414269073164098 0.7722561845388753	0.119161
H	-0.0000000000000000 0.1642277008024319 0.7617673140966288	0.091108
H	0.5000000000000000 0.8414269073164096 0.2722561845388755	0.119161
H	0.5000000000000000 0.6642276478024310 0.2617674020966289	0.091108
H	-0.0000000000000000 0.6585730926835904 0.7722561845388753	0.119160
H	-0.0000000000000000 0.8357723521975690 0.7617673140966288	0.091108
H	0.5000000000000000 0.1585730926835901 0.2722561845388755	0.119160
H	0.5000000000000000 0.3357723171975624 0.2617674020966289	0.091108
H	0.3414269073164098 0.0000000000000000 0.7722561845388753	0.119160
H	0.1642277008024319 0.0000000000000000 0.7617673140966288	0.091108
H	0.8414269073164096 0.5000000000000000 0.2722561845388755	0.119160
H	0.6642276478024310 0.5000000000000000 0.2617674020966289	0.091108
H	0.6585730926835904 0.0000000000000000 0.7722561845388753	0.119161
H	0.8357723521975690 0.0000000000000000 0.7617673140966288	0.091108
H	0.1585730926835901 0.5000000000000000 0.2722561845388755	0.119161
H	0.3357723171975624 0.5000000000000000 0.2617674020966289	0.091108
Fe	-0.0000000000000000 0.0000000000000000 0.5000000000000000	0.826217
Fe	0.5000000000000000 0.5000000000000000 -0.0000000000000000	0.826217
Ge	-0.0000000000000000 0.0000000000000000 -0.0000000000000000	1.754925
Ge	0.5000000000000000 0.5000000000000000 0.5000000000000000	1.754925
N	-0.0000000000000000 0.1564146063478266 0.5000000000000000	-0.249265
N	0.5000000000000000 0.6564145883478246 -0.0000000000000000	-0.249265
N	-0.0000000000000000 0.8435854116521754 0.5000000000000000	-0.249264
N	0.5000000000000000 0.3435854116521749 -0.0000000000000000	-0.249264
N	0.8435854116521754 0.0000000000000000 0.5000000000000000	-0.249265
N	0.3435854116521749 0.5000000000000000 -0.0000000000000000	-0.249265
N	0.1564146063478266 0.0000000000000000 0.5000000000000000	-0.249264
N	0.6564145883478246 0.5000000000000000 -0.0000000000000000	-0.249264
F	-0.0000000000000000 0.0000000000000000 0.7593442497429375	-0.492657
F	0.5000000000000000 0.5000000000000000 0.2593443387429411	-0.492657
F	-0.0000000000000000 0.0000000000000000 0.2406556762570637	-0.492657
F	0.5000000000000000 0.5000000000000000 0.7406557502570627	-0.492656
F	0.5908575813141096 0.5908575813141096 0.5000000000000000	-0.526563
F	0.5908575813141096 0.4091424186858904 0.5000000000000000	-0.526563
F	0.4091424186858904 0.5908575813141096 0.5000000000000000	-0.526563
F	0.4091424186858904 0.4091424186858904 0.5000000000000000	-0.526563
F	0.0908575983141075 0.0908575983141075 -0.0000000000000000	-0.526563
F	0.9091424186858904 0.9091424186858904 -0.0000000000000000	-0.526563
F	0.9091424186858904 0.0908575983141075 -0.0000000000000000	-0.526563
F	0.0908575983141075 0.9091424186858904 -0.0000000000000000	-0.526563
	  	
