#======================================================================

# CRYSTAL DATA

#----------------------------------------------------------------------

data_VESTA_phase_1


_pd_phase_name                         GeFSIX_6_Ni_i
_cell_length_a                         17.64948
_cell_length_b                         17.64948
_cell_length_c                         15.26855
_cell_angle_alpha                      90
_cell_angle_beta                       90
_cell_angle_gamma                      90
_symmetry_space_group_name_H-M         P 1
_symmetry_Int_Tables_number            1

loop_
_symmetry_equiv_pos_as_xyz
   x, y, z

loop_
   _atom_site_label
   _atom_site_fract_x
   _atom_site_fract_y
   _atom_site_fract_z
   _atom_site_charge
N	0.2439211249930970 0.1327823960238791 0.1281066310600596	-0.244448
N	0.2560788750069031 0.3672176179761220 0.1281066310600596	-0.244447
N	0.3672176179761220 0.2439211249930970 0.1281066310600596	-0.244447
N	0.1327823960238791 0.2560788750069031 0.1281066310600596	-0.244447
N	0.7560788480069044 0.6327824090238838 0.3718933539399426	-0.244448
N	0.7439211519930956 0.8672175909761162 0.3718933539399426	-0.244447
N	0.6327824090238838 0.7439211519930956 0.3718933539399426	-0.244447
N	0.8672175909761162 0.7560788480069044 0.3718933539399426	-0.244447
N	0.7560788480069044 0.8672175909761162 0.8718933539399428	-0.244445
N	0.7439211519930956 0.6327824090238838 0.8718933539399428	-0.244446
N	0.6327824090238838 0.7560788480069044 0.8718933539399428	-0.244446
N	0.8672175909761162 0.7439211519930956 0.8718933539399428	-0.244446
N	0.2439211249930970 0.3672176179761220 0.6281066460600572	-0.244445
N	0.2560788750069031 0.1327823960238791 0.6281066460600572	-0.244446
N	0.3672176179761220 0.2560788750069031 0.6281066460600572	-0.244446
N	0.1327823960238791 0.2439211249930970 0.6281066460600572	-0.244446
C	0.2002955175381268 0.0964376776509872 0.1869623757447306	0.105368
C	0.1918273330753357 0.0182103557514083 0.1862855024268356	-0.181777
C	0.2323204917110125 0.9748822221609250 0.1251262597709239	0.112582
C	0.2791169136699820 0.0134733291111948 0.0657556917913358	-0.180332
C	0.2821892729852230 0.0920924322335640 0.0681019308821923	0.107237
C	0.2262976489304264 0.8917259019335904 0.1237962529267989	0.058128
C	0.2910602264645876 0.8475161315342297 0.1208959932495303	-0.173036
C	0.2866274747226161 0.7676257656046316 0.1219965273842255	0.087477
C	0.1475994920859340 0.7786641177214779 0.1246247401830563	-0.124326
C	0.1539171578277699 0.8563240832433859 0.1267604469140850	-0.135085
C	0.2997044424618769 0.4035623353490103 0.1869623757447306	0.105367
C	0.3081726269246610 0.4817896252485935 0.1862855024268356	-0.181776
C	0.2676795082889876 0.5251177778390750 0.1251262597709239	0.112584
C	0.2208830993300156 0.4865266678888014 0.0657556917913358	-0.180332
C	0.2178107410147781 0.4079075747664401 0.0681019308821923	0.107235
C	0.2737023510695736 0.6082740980664096 0.1237962529267989	0.058120
C	0.2089398145354124 0.6524838684657703 0.1208959932495303	-0.173009
C	0.2133724982773854 0.7323742343953684 0.1219965273842255	0.087448
C	0.3524004939140646 0.7213358822785221 0.1246247401830563	-0.124342
C	0.3460828421722302 0.6436759167566141 0.1267604469140850	-0.135076
C	0.4035623353490103 0.2002955175381268 0.1869623757447306	0.105368
C	0.4817896252485935 0.1918273330753357 0.1862855024268356	-0.181777
C	0.5251177778390750 0.2323204917110125 0.1251262597709239	0.112583
C	0.4865266678888014 0.2791169136699820 0.0657556917913358	-0.180330
C	0.4079075747664401 0.2821892729852230 0.0681019308821923	0.107235
C	0.6082740980664096 0.2262976489304264 0.1237962529267989	0.058128
C	0.6524838684657703 0.2910602264645876 0.1208959932495303	-0.173035
C	0.7323742343953684 0.2866274747226161 0.1219965273842255	0.087477
C	0.7213358822785221 0.1475994920859340 0.1246247401830563	-0.124326
C	0.6436759167566141 0.1539171578277699 0.1267604469140850	-0.135085
C	0.0964376776509872 0.2997044424618769 0.1869623757447306	0.105367
C	0.0182103557514083 0.3081726269246610 0.1862855024268356	-0.181776
C	0.9748822221609250 0.2676795082889876 0.1251262597709239	0.112584
C	0.0134733291111948 0.2208830993300156 0.0657556917913358	-0.180333
C	0.0920924322335640 0.2178107410147781 0.0681019308821923	0.107236
C	0.8917259019335904 0.2737023510695736 0.1237962529267989	0.058120
C	0.8475161315342297 0.2089398145354124 0.1208959932495303	-0.173011
C	0.7676257656046316 0.2133724982773854 0.1219965273842255	0.087449
C	0.7786641177214779 0.3524004939140646 0.1246247401830563	-0.124342
C	0.8563240832433859 0.3460828421722302 0.1267604469140850	-0.135077
C	0.7997044954618703 0.5964376646509898 0.3130376402552706	0.105369
C	0.8081726799246617 0.5182103207514018 0.3137144665731653	-0.181776
C	0.7676795082889870 0.4748822221609248 0.3748737082290734	0.112582
C	0.7208830593300194 0.5134733861111959 0.4342443122086646	-0.180332
C	0.7178107010147748 0.5920924792335643 0.4318981091178038	0.107236
C	0.7737024310695733 0.3917259549335911 0.3762037390732005	0.058126
C	0.7089398005354112 0.3475160785342289 0.3791039987504691	-0.173033
C	0.7133725252773842 0.2676256856046322 0.3780034726157746	0.087458
C	0.8524005209140706 0.2786640907214793 0.3753752438169423	-0.124358
C	0.8460827891722291 0.3563240572433840 0.3732395850859176	-0.135080
C	0.7002955045381297 0.9035623353490102 0.3130376402552706	0.105367
C	0.6918273200753383 0.9817896252485937 0.3137144665731653	-0.181777
C	0.7323204917110130 0.0251177838390756 0.3748737082290734	0.112584
C	0.7791169406699806 0.9865266678888015 0.4342443122086646	-0.180331
C	0.7821892989852252 0.9079076277664410 0.4318981091178038	0.107235
C	0.7262975689304267 0.1082740720664075 0.3762037390732005	0.058127
C	0.7910601994645888 0.1524839084657665 0.3791039987504691	-0.173033
C	0.7866274747226158 0.2323742873953692 0.3780034726157746	0.087464
C	0.6475994790859294 0.2213358962785232 0.3753752438169423	-0.124354
C	0.6539172108277709 0.1436759167566140 0.3732395850859176	-0.135079
C	0.5964376646509898 0.7002955045381297 0.3130376402552706	0.105368
C	0.5182103207514018 0.6918273200753383 0.3137144665731653	-0.181777
C	0.4748822221609248 0.7323204917110130 0.3748737082290734	0.112584
C	0.5134733861111959 0.7791169406699806 0.4342443122086646	-0.180331
C	0.5920924792335643 0.7821892989852252 0.4318981091178038	0.107235
C	0.3917259549335911 0.7262975689304267 0.3762037390732005	0.058126
C	0.3475160785342289 0.7910601994645888 0.3791039987504691	-0.173034
C	0.2676256856046322 0.7866274747226158 0.3780034726157746	0.087458
C	0.2786640907214793 0.6475994790859294 0.3753752438169423	-0.124358
C	0.3563240572433840 0.6539172108277709 0.3732395850859176	-0.135080
C	0.9035623353490102 0.7997044954618703 0.3130376402552706	0.105367
C	0.9817896252485937 0.8081726799246617 0.3137144665731653	-0.181775
C	0.0251177838390756 0.7676795082889870 0.3748737082290734	0.112582
C	0.9865266678888015 0.7208830593300194 0.4342443122086646	-0.180332
C	0.9079076277664410 0.7178107010147748 0.4318981091178038	0.107236
C	0.1082740720664075 0.7737024310695733 0.3762037390732005	0.058127
C	0.1524839084657665 0.7089398005354112 0.3791039987504691	-0.173033
C	0.2323742873953692 0.7133725252773842 0.3780034726157746	0.087465
C	0.2213358962785232 0.8524005209140706 0.3753752438169423	-0.124354
C	0.1436759167566140 0.8460827891722291 0.3732395850859176	-0.135080
C	0.7997044954618703 0.9035623353490102 0.8130376082552683	0.105366
C	0.8081726799246617 0.9817896252485937 0.8137145295731671	-0.181760
C	0.7676795082889870 0.0251177838390756 0.8748737722290715	0.112590
C	0.7208830593300194 0.9865266678888015 0.9342442812086655	-0.180333
C	0.7178107010147748 0.9079076277664410 0.9318980771178013	0.107234
C	0.7737024310695733 0.1082740720664075 0.8762037390732003	0.058126
C	0.7089398005354112 0.1524839084657665 0.8791040307504715	-0.173037
C	0.7133725252773842 0.2323742873953692 0.8780035046157700	0.087453
C	0.8524005209140706 0.2213358962785232 0.8753753068169435	-0.124350
C	0.8460827891722291 0.1436759167566140 0.8732396170859131	-0.135081
C	0.7002955045381297 0.5964376646509898 0.8130376082552683	0.105367
C	0.6918273200753383 0.5182103207514018 0.8137145295731671	-0.181761
C	0.7323204917110130 0.4748822221609248 0.8748737722290715	0.112588
C	0.7791169406699806 0.5134733861111959 0.9342442812086655	-0.180332
C	0.7821892989852252 0.5920924792335643 0.9318980771178013	0.107236
C	0.7262975689304267 0.3917259549335911 0.8762037390732003	0.058126
C	0.7910601994645888 0.3475160785342289 0.8791040307504715	-0.173039
C	0.7866274747226158 0.2676256856046322 0.8780035046157700	0.087460
C	0.6475994790859294 0.2786640907214793 0.8753753068169435	-0.124345
C	0.6539172108277709 0.3563240572433840 0.8732396170859131	-0.135082
C	0.5964376646509898 0.7997044954618703 0.8130376082552683	0.105366
C	0.5182103207514018 0.8081726799246617 0.8137145295731671	-0.181760
C	0.4748822221609248 0.7676795082889870 0.8748737722290715	0.112589
C	0.5134733861111959 0.7208830593300194 0.9342442812086655	-0.180333
C	0.5920924792335643 0.7178107010147748 0.9318980771178013	0.107235
C	0.3917259549335911 0.7737024310695733 0.8762037390732003	0.058125
C	0.3475160785342289 0.7089398005354112 0.8791040307504715	-0.173039
C	0.2676256856046322 0.7133725252773842 0.8780035046157700	0.087453
C	0.2786640907214793 0.8524005209140706 0.8753753068169435	-0.124350
C	0.3563240572433840 0.8460827891722291 0.8732396170859131	-0.135082
C	0.9035623353490102 0.7002955045381297 0.8130376082552683	0.105366
C	0.9817896252485937 0.6918273200753383 0.8137145295731671	-0.181761
C	0.0251177838390756 0.7323204917110130 0.8748737722290715	0.112589
C	0.9865266678888015 0.7791169406699806 0.9342442812086655	-0.180332
C	0.9079076277664410 0.7821892989852252 0.9318980771178013	0.107234
C	0.1082740720664075 0.7262975689304267 0.8762037390732003	0.058127
C	0.1524839084657665 0.7910601994645888 0.8791040307504715	-0.173037
C	0.2323742873953692 0.7866274747226158 0.8780035046157700	0.087460
C	0.2213358962785232 0.6475994790859294 0.8753753068169435	-0.124345
C	0.1436759167566140 0.6539172108277709 0.8732396170859131	-0.135082
C	0.2002955175381268 0.4035623353490103 0.6869623917447317	0.105365
C	0.1918273330753357 0.4817896252485935 0.6862854704268329	-0.181761
C	0.2323204917110125 0.5251177778390750 0.6251262277709285	0.112590
C	0.2791169136699820 0.4865266678888014 0.5657557187913345	-0.180332
C	0.2821892729852230 0.4079075747664401 0.5681019228821987	0.107235
C	0.2262976489304264 0.6082740980664096 0.6237962609267997	0.058128
C	0.2910602264645876 0.6524838684657703 0.6208959692495285	-0.173043
C	0.2866274747226161 0.7323742343953684 0.6219964953842300	0.087487
C	0.1475994920859340 0.7213358822785221 0.6246246931830565	-0.124314
C	0.1539171578277699 0.6436759167566141 0.6267603829140869	-0.135087
C	0.2997044424618769 0.0964376776509872 0.6869623917447317	0.105367
C	0.3081726269246610 0.0182103557514083 0.6862854704268329	-0.181760
C	0.2676795082889876 0.9748822221609250 0.6251262277709285	0.112589
C	0.2208830993300156 0.0134733291111948 0.5657557187913345	-0.180334
C	0.2178107410147781 0.0920924322335640 0.5681019228821987	0.107236
C	0.2737023510695736 0.8917259019335904 0.6237962609267997	0.058120
C	0.2089398145354124 0.8475161315342297 0.6208959692495285	-0.173018
C	0.2133724982773854 0.7676257656046316 0.6219964953842300	0.087439
C	0.3524004939140646 0.7786641177214779 0.6246246931830565	-0.124335
C	0.3460828421722302 0.8563240832433859 0.6267603829140869	-0.135078
C	0.4035623353490103 0.2997044424618769 0.6869623917447317	0.105365
C	0.4817896252485935 0.3081726269246610 0.6862854704268329	-0.181759
C	0.5251177778390750 0.2676795082889876 0.6251262277709285	0.112589
C	0.4865266678888014 0.2208830993300156 0.5657557187913345	-0.180333
C	0.4079075747664401 0.2178107410147781 0.5681019228821987	0.107235
C	0.6082740980664096 0.2737023510695736 0.6237962609267997	0.058120
C	0.6524838684657703 0.2089398145354124 0.6208959692495285	-0.173018
C	0.7323742343953684 0.2133724982773854 0.6219964953842300	0.087432
C	0.7213358822785221 0.3524004939140646 0.6246246931830565	-0.124340
C	0.6436759167566141 0.3460828421722302 0.6267603829140869	-0.135076
C	0.0964376776509872 0.2002955175381268 0.6869623917447317	0.105367
C	0.0182103557514083 0.1918273330753357 0.6862854704268329	-0.181762
C	0.9748822221609250 0.2323204917110125 0.6251262277709285	0.112590
C	0.0134733291111948 0.2791169136699820 0.5657557187913345	-0.180332
C	0.0920924322335640 0.2821892729852230 0.5681019228821987	0.107235
C	0.8917259019335904 0.2262976489304264 0.6237962609267997	0.058128
C	0.8475161315342297 0.2910602264645876 0.6208959692495285	-0.173044
C	0.7676257656046316 0.2866274747226161 0.6219964953842300	0.087493
C	0.7786641177214779 0.1475994920859340 0.6246246931830565	-0.124308
C	0.8563240832433859 0.1539171578277699 0.6267603829140869	-0.135090
H	0.1728036775976141 0.1317071205216893 0.2363324196541411	0.100578
H	0.1557862073297926 0.9908221205232220 0.2348496491796448	0.114011
H	0.3111279511195880 0.9823887768974585 0.0163894175817696	0.114680
H	0.3148068791526609 0.1243346688901047 0.0201393520227609	0.099752
H	0.3468071379762101 0.8743499441486152 0.1203429058747227	0.108337
H	0.0919636987746695 0.7515647183059367 0.1254166239055004	0.108513
H	0.1033519174120314 0.8919570763143791 0.1287875211375786	0.098544
H	0.3271962954023873 0.3682929064783167 0.2363324196541411	0.100577
H	0.3442138326702035 0.5091778794767780 0.2348496491796448	0.114011
H	0.1888720618804096 0.5176112231025415 0.0163894175817696	0.114680
H	0.1851931208473391 0.3756653311098955 0.0201393520227609	0.099752
H	0.1531928760237911 0.6256500558513848 0.1203429058747227	0.108331
H	0.4080362942253263 0.7484352816940633 0.1254166239055004	0.108457
H	0.3966480955879730 0.6080429236856209 0.1287875211375786	0.098542
H	0.3682929064783167 0.1728036775976141 0.2363324196541411	0.100577
H	0.5091778794767780 0.1557862073297926 0.2348496491796448	0.114012
H	0.5176112231025415 0.3111279511195880 0.0163894175817696	0.114680
H	0.3756653311098955 0.3148068791526609 0.0201393520227609	0.099752
H	0.6256500558513848 0.3468071379762101 0.1203429058747227	0.108338
H	0.7484352816940633 0.0919636987746695 0.1254166239055004	0.108513
H	0.6080429236856209 0.1033519174120314 0.1287875211375786	0.098545
H	0.1317071205216893 0.3271962954023873 0.2363324196541411	0.100578
H	0.9908221205232220 0.3442138326702035 0.2348496491796448	0.114011
H	0.9823887768974585 0.1888720618804096 0.0163894175817696	0.114680
H	0.1243346688901047 0.1851931208473391 0.0201393520227609	0.099753
H	0.8743499441486152 0.1531928760237911 0.1203429058747227	0.108332
H	0.7515647183059367 0.4080362942253263 0.1254166239055004	0.108458
H	0.8919570763143791 0.3966480955879730 0.1287875211375786	0.098543
H	0.8271962954023874 0.6317071475216879 0.2636675963458601	0.100578
H	0.8442137516702078 0.4908221745232195 0.2651503508203553	0.114011
H	0.6888720488804119 0.4823887768974586 0.4836105844182306	0.114680
H	0.6851931738473400 0.6243346958901035 0.4798606459772390	0.099752
H	0.6531928620237898 0.3743498901486179 0.3796571021252779	0.108335
H	0.9080362412253253 0.2515647453059352 0.3745833680944991	0.108516
H	0.8966480685879745 0.3919571023143738 0.3712124868624219	0.098545
H	0.6728037045976126 0.8682928524783121 0.2636675963458601	0.100578
H	0.6557862483297922 0.0091778414767747 0.2651503508203553	0.114012
H	0.8111279511195881 0.0176112221025378 0.4836105844182306	0.114679
H	0.8148068261526600 0.8756653041098965 0.4798606459772390	0.099752
H	0.8468071379762102 0.1256501228513869 0.3796571021252779	0.108335
H	0.5919637057746738 0.2484352276940590 0.3745833680944991	0.108512
H	0.6033519314120255 0.1080429106856236 0.3712124868624219	0.098542
H	0.6317071475216879 0.6728037045976126 0.2636675963458601	0.100578
H	0.4908221745232195 0.6557862483297922 0.2651503508203553	0.114012
H	0.4823887768974586 0.8111279511195881 0.4836105844182306	0.114679
H	0.6243346958901035 0.8148068261526600 0.4798606459772390	0.099753
H	0.3743498901486179 0.8468071379762102 0.3796571021252779	0.108337
H	0.2515647453059352 0.5919637057746738 0.3745833680944991	0.108514
H	0.3919571023143738 0.6033519314120255 0.3712124868624219	0.098544
H	0.8682928524783121 0.8271962954023874 0.2636675963458601	0.100578
H	0.0091778414767747 0.8442137516702078 0.2651503508203553	0.114011
H	0.0176112221025378 0.6888720488804119 0.4836105844182306	0.114681
H	0.8756653041098965 0.6851931738473400 0.4798606459772390	0.099752
H	0.1256501228513869 0.6531928620237898 0.3796571021252779	0.108335
H	0.2484352276940590 0.9080362412253253 0.3745833680944991	0.108513
H	0.1080429106856236 0.8966480685879745 0.3712124868624219	0.098545
H	0.8271962954023874 0.8682928524783121 0.7636675653458610	0.100577
H	0.8442137516702078 0.0091778414767747 0.7651503658203601	0.113992
H	0.6888720488804119 0.0176112221025378 0.9836106154182296	0.114679
H	0.6851931738473400 0.8756653041098965 0.9798605819772407	0.099752
H	0.6531928620237898 0.1256501228513869 0.8796570701252752	0.108337
H	0.9080362412253253 0.2484352276940590 0.8745833050944977	0.108514
H	0.8966480685879745 0.1080429106856236 0.8712124548624194	0.098545
H	0.6728037045976126 0.6317071475216879 0.7636675653458610	0.100578
H	0.6557862483297922 0.4908221745232195 0.7651503658203601	0.113993
H	0.8111279511195881 0.4823887768974586 0.9836106154182296	0.114678
H	0.8148068261526600 0.6243346958901035 0.9798605819772407	0.099752
H	0.8468071379762102 0.3743498901486179 0.8796570701252752	0.108335
H	0.5919637057746738 0.2515647453059352 0.8745833050944977	0.108510
H	0.6033519314120255 0.3919571023143738 0.8712124548624194	0.098545
H	0.6317071475216879 0.8271962954023874 0.7636675653458610	0.100578
H	0.4908221745232195 0.8442137516702078 0.7651503658203601	0.113992
H	0.4823887768974586 0.6888720488804119 0.9836106154182296	0.114679
H	0.6243346958901035 0.6851931738473400 0.9798605819772407	0.099753
H	0.3743498901486179 0.6531928620237898 0.8796570701252752	0.108337
H	0.2515647453059352 0.9080362412253253 0.8745833050944977	0.108514
H	0.3919571023143738 0.8966480685879745 0.8712124548624194	0.098546
H	0.8682928524783121 0.6728037045976126 0.7636675653458610	0.100577
H	0.0091778414767747 0.6557862483297922 0.7651503658203601	0.113994
H	0.0176112221025378 0.8111279511195881 0.9836106154182296	0.114679
H	0.8756653041098965 0.8148068261526600 0.9798605819772407	0.099752
H	0.1256501228513869 0.8468071379762102 0.8796570701252752	0.108337
H	0.2484352276940590 0.5919637057746738 0.8745833050944977	0.108510
H	0.1080429106856236 0.6033519314120255 0.8712124548624194	0.098546
H	0.1728036775976141 0.3682929064783167 0.7363324346541390	0.100577
H	0.1557862073297926 0.5091778794767780 0.7348496341796399	0.113993
H	0.3111279511195880 0.5176112231025415 0.5163894155817694	0.114679
H	0.3148068791526609 0.3756653311098955 0.5201393540227611	0.099752
H	0.3468071379762101 0.6256500558513848 0.6203429298747248	0.108340
H	0.0919636987746695 0.7484352816940633 0.6254166949055023	0.108508
H	0.1033519174120314 0.6080429236856209 0.6287875451375806	0.098544
H	0.3271962954023873 0.1317071205216893 0.7363324346541390	0.100577
H	0.3442138326702035 0.9908221205232220 0.7348496341796399	0.113992
H	0.1888720618804096 0.9823887768974585 0.5163894155817694	0.114679
H	0.1851931208473391 0.1243346688901047 0.5201393540227611	0.099753
H	0.1531928760237911 0.8743499441486152 0.6203429298747248	0.108333
H	0.4080362942253263 0.7515647183059367 0.6254166949055023	0.108454
H	0.3966480955879730 0.8919570763143791 0.6287875451375806	0.098543
H	0.3682929064783167 0.3271962954023873 0.7363324346541390	0.100577
H	0.5091778794767780 0.3442138326702035 0.7348496341796399	0.113992
H	0.5176112231025415 0.1888720618804096 0.5163894155817694	0.114680
H	0.3756653311098955 0.1851931208473391 0.5201393540227611	0.099752
H	0.6256500558513848 0.1531928760237911 0.6203429298747248	0.108336
H	0.7484352816940633 0.4080362942253263 0.6254166949055023	0.108456
H	0.6080429236856209 0.3966480955879730 0.6287875451375806	0.098544
H	0.1317071205216893 0.1728036775976141 0.7363324346541390	0.100577
H	0.9908221205232220 0.1557862073297926 0.7348496341796399	0.113993
H	0.9823887768974585 0.3111279511195880 0.5163894155817694	0.114679
H	0.1243346688901047 0.3148068791526609 0.5201393540227611	0.099753
H	0.8743499441486152 0.3468071379762101 0.6203429298747248	0.108338
H	0.7515647183059367 0.0919636987746695 0.6254166949055023	0.108506
H	0.8919570763143791 0.1033519174120314 0.6287875451375806	0.098546
F	0.3080741715550662 0.1645954794476724 0.3785132754321625	-0.557844
F	0.1919258554449324 0.3354045205523274 0.3785132754321625	-0.557843
F	0.3354045205523274 0.3080741715550662 0.3785132754321625	-0.557844
F	0.1645954794476724 0.1919258554449324 0.3785132754321625	-0.557844
F	0.6919258284449337 0.6645954254476751 0.1214867245678375	-0.557844
F	0.8080741715550663 0.8354045745523249 0.1214867245678375	-0.557844
F	0.6645954254476751 0.8080741715550663 0.1214867245678375	-0.557843
F	0.8354045745523249 0.6919258284449337 0.1214867245678375	-0.557845
F	0.6919258284449337 0.8354045745523249 0.6214866925678350	-0.557843
F	0.8080741715550663 0.6645954254476751 0.6214866925678350	-0.557845
F	0.6645954254476751 0.6919258284449337 0.6214866925678350	-0.557844
F	0.8354045745523249 0.8080741715550663 0.6214866925678350	-0.557844
F	0.3080741715550662 0.3354045205523274 0.8785133074321650	-0.557844
F	0.1919258554449324 0.1645954794476724 0.8785133074321650	-0.557844
F	0.3354045205523274 0.1919258554449324 0.8785133074321650	-0.557845
F	0.1645954794476724 0.3080741715550662 0.8785133074321650	-0.557843
F	0.2500000000000000 0.2500000000000000 0.2575386676899181	-0.513732
F	0.2500000000000000 0.2500000000000000 0.4993255869944240	-0.514787
F	0.7500000000000000 0.7500000000000000 0.2424613483100832	-0.513732
F	0.7500000000000000 0.7500000000000000 0.0006744200055803	-0.514787
F	0.7500000000000000 0.7500000000000000 0.7424613003100791	-0.513733
F	0.7500000000000000 0.7500000000000000 0.5006744450055788	-0.514786
F	0.2500000000000000 0.2500000000000000 0.7575386996899209	-0.513733
F	0.2500000000000000 0.2500000000000000 -0.0006744450055788	-0.514787
Ni	0.2500000000000000 0.2500000000000000 0.1284614567457154	0.755265
Ni	0.7500000000000000 0.7500000000000000 0.3715385592542859	0.755264
Ni	0.7500000000000000 0.7500000000000000 0.8715385282542867	0.755264
Ni	0.2500000000000000 0.2500000000000000 0.6284614717457133	0.755264
Ge	0.2500000000000000 0.2500000000000000 0.3784648040931345	1.799975
Ge	0.7500000000000000 0.7500000000000000 0.1215352039068663	1.799975
Ge	0.7500000000000000 0.7500000000000000 0.6215351649068666	1.799975
Ge	0.2500000000000000 0.2500000000000000 0.8784648350931334	1.799975
	  	
