#======================================================================

# CRYSTAL DATA

#----------------------------------------------------------------------

data_VESTA_phase_1


_pd_phase_name                         GeFSIX_5_Ni_i
_cell_length_a                         19.83861
_cell_length_b                         19.83861
_cell_length_c                         15.35812
_cell_angle_alpha                      90
_cell_angle_beta                       90
_cell_angle_gamma                      90
_symmetry_space_group_name_H-M         P 1
_symmetry_Int_Tables_number            1

loop_
_symmetry_equiv_pos_as_xyz
   x, y, z

loop_
   _atom_site_label
   _atom_site_fract_x
   _atom_site_fract_y
   _atom_site_fract_z
   _atom_site_charge
F	0.3216740806269027 0.1927359817601359 0.3514737767065407	-0.545774
F	0.1783259073730962 0.3072640182398640 0.3514737767065407	-0.545778
F	0.3072640182398640 0.3216740806269027 0.3514737767065407	-0.545777
F	0.1927359817601359 0.1783259073730962 0.3514737767065407	-0.545775
F	0.6783259433730923 0.6927360057601377 0.1485262232934594	-0.545775
F	0.8216740566269077 0.8072639942398623 0.1485262232934594	-0.545777
F	0.6927360057601377 0.8216740566269077 0.1485262232934594	-0.545777
F	0.8072639942398623 0.6783259433730923 0.1485262232934594	-0.545775
F	0.6783259433730923 0.8072639942398623 0.6485262552934620	-0.545778
F	0.8216740566269077 0.6927360057601377 0.6485262552934620	-0.545774
F	0.6927360057601377 0.6783259433730923 0.6485262552934620	-0.545775
F	0.8072639942398623 0.8216740566269077 0.6485262552934620	-0.545777
F	0.3216740806269027 0.3072640182398640 0.8514737447065380	-0.545777
F	0.1783259073730962 0.1927359817601359 0.8514737447065380	-0.545776
F	0.3072640182398640 0.1783259073730962 0.8514737447065380	-0.545775
F	0.1927359817601359 0.3216740806269027 0.8514737447065380	-0.545777
F	0.2500000000000000 0.2500000000000000 0.4720032809110946	-0.513877
F	0.2500000000000000 0.2500000000000000 0.2305336915168510	-0.512134
F	0.7500000000000000 0.7500000000000000 0.0279967460889040	-0.513877
F	0.7500000000000000 0.7500000000000000 0.2694662924831476	-0.512134
F	0.7500000000000000 0.7500000000000000 0.5279967500889043	-0.513875
F	0.7500000000000000 0.7500000000000000 0.7694662924831475	-0.512135
F	0.2500000000000000 0.2500000000000000 0.9720032499110957	-0.513875
F	0.2500000000000000 0.2500000000000000 0.7305337075168525	-0.512135
N	0.3551391442812960 0.2476681942643973 0.6013493348187661	-0.244322
N	0.1448608557187039 0.2523318057356026 0.6013493348187661	-0.244322
N	0.2523318057356026 0.3551391442812960 0.6013493348187661	-0.244322
N	0.2476681942643973 0.1448608557187039 0.6013493348187661	-0.244321
N	0.6448608797187060 0.7476681702643955 0.8986506651812339	-0.244324
N	0.8551391202812940 0.7523318297356045 0.8986506651812339	-0.244324
N	0.7476681702643955 0.8551391202812940 0.8986506651812339	-0.244324
N	0.7523318297356045 0.6448608797187060 0.8986506651812339	-0.244323
N	0.6448608797187060 0.7523318297356045 0.3986506961812331	-0.244321
N	0.8551391202812940 0.7476681702643955 0.3986506961812331	-0.244321
N	0.7476681702643955 0.6448608797187060 0.3986506961812331	-0.244321
N	0.7523318297356045 0.8551391202812940 0.3986506961812331	-0.244322
N	0.3551391442812960 0.2523318057356026 0.1013493348187661	-0.244320
N	0.1448608557187039 0.2476681942643973 0.1013493348187661	-0.244319
N	0.2523318057356026 0.1448608557187039 0.1013493348187661	-0.244319
N	0.2476681942643973 0.3551391442812960 0.1013493348187661	-0.244320
C	0.3885918427805187 0.2177105607657032 0.6670896049544502	0.106377
C	0.4584827663200289 0.2160573623888911 0.6708735314572758	-0.179245
C	0.4965205180657215 0.2471405928806067 0.6051132293143984	0.105801
C	0.4608616934940237 0.2780785107987447 0.5369755350779650	-0.179914
C	0.3908468448860425 0.2770000750182258 0.5370932262974508	0.105828
C	0.5706995918573758 0.2478224482612338 0.6082221719200486	0.053341
C	0.6068868521468815 0.1912930700883261 0.6377029375992459	-0.130456
C	0.6768780907110784 0.1921198365529922 0.6403287420510860	-0.124062
C	0.7129531643488094 0.2498192127756542 0.6151901029453188	0.066290
C	0.6768591716032257 0.3066234181728447 0.5869322143629302	-0.118068
C	0.6069095456691115 0.3054097920114939 0.5826324846368693	-0.124868
C	0.1114081332194863 0.2822894632342990 0.6670896049544502	0.106378
C	0.0415171736799733 0.2839426616111110 0.6708735314572758	-0.179247
C	0.0034794609342803 0.2528594071193934 0.6051132293143984	0.105790
C	0.0391383335059749 0.2219214892012552 0.5369755350779650	-0.179907
C	0.1091531191139544 0.2229999489817762 0.5370932262974508	0.105825
C	0.9293003601426273 0.2521775277387641 0.6082221719200486	0.053383
C	0.8931131958531153 0.3087069649116733 0.6377029375992459	-0.130465
C	0.8231219092889216 0.3078801754470015 0.6403287420510860	-0.124061
C	0.7870468356511906 0.2501807632243437 0.6151901029453188	0.066298
C	0.8231408753967746 0.1933765818271554 0.5869322143629302	-0.118097
C	0.8930905503308894 0.1945902429885054 0.5826324846368693	-0.124886
C	0.2822894632342990 0.3885918427805187 0.6670896049544502	0.106379
C	0.2839426616111110 0.4584827663200289 0.6708735314572758	-0.179247
C	0.2528594071193934 0.4965205180657215 0.6051132293143984	0.105799
C	0.2219214892012552 0.4608616934940237 0.5369755350779650	-0.179911
C	0.2229999489817762 0.3908468448860425 0.5370932262974508	0.105829
C	0.2521775277387641 0.5706995918573758 0.6082221719200486	0.053341
C	0.3087069649116733 0.6068868521468815 0.6377029375992459	-0.130456
C	0.3078801754470015 0.6768780907110784 0.6403287420510860	-0.124063
C	0.2501807632243437 0.7129531643488094 0.6151901029453188	0.066288
C	0.1933765818271554 0.6768591716032257 0.5869322143629302	-0.118067
C	0.1945902429885054 0.6069095456691115 0.5826324846368693	-0.124869
C	0.2177105607657032 0.1114081332194863 0.6670896049544502	0.106377
C	0.2160573623888911 0.0415171736799733 0.6708735314572758	-0.179245
C	0.2471405928806067 0.0034794609342803 0.6051132293143984	0.105791
C	0.2780785107987447 0.0391383335059749 0.5369755350779650	-0.179909
C	0.2770000750182258 0.1091531191139544 0.5370932262974508	0.105824
C	0.2478224482612338 0.9293003601426273 0.6082221719200486	0.053383
C	0.1912930700883261 0.8931131958531153 0.6377029375992459	-0.130465
C	0.1921198365529922 0.8231219092889216 0.6403287420510860	-0.124060
C	0.2498192127756542 0.7870468356511906 0.6151901029453188	0.066300
C	0.3066234181728447 0.8231408753967746 0.5869322143629302	-0.118098
C	0.3054097920114939 0.8930905503308894 0.5826324846368693	-0.124885
C	0.6114081332194861 0.7177106087657000 0.8329103950455498	0.106378
C	0.5415171856799741 0.7160573863888858 0.8291264685427242	-0.179249
C	0.5034794819342783 0.7471406408806038 0.8948867706856016	0.105820
C	0.5391384025059770 0.7780784627987410 0.9630244649220350	-0.179925
C	0.6091531791139523 0.7770000990182206 0.9629067737025492	0.105833
C	0.4293004081426242 0.7478225202612330 0.8917778280799514	0.053369
C	0.3931131478531186 0.6912930350883267 0.8622970624007541	-0.130528
C	0.3231218372889159 0.6921198005529965 0.8596712579489140	-0.124039
C	0.2870468836511944 0.7498192367756562 0.8848098970546812	0.066286
C	0.3231407803967707 0.8066234181728446 0.9130677856370698	-0.118067
C	0.3930904783308835 0.8054097210114917 0.9173675153631307	-0.124850
C	0.8885918667805139 0.7822893912343000 0.8329103950455498	0.106381
C	0.9584828143200259 0.7839426136111142 0.8291264685427242	-0.179254
C	0.9965205660657186 0.7528593591193962 0.8948867706856016	0.105822
C	0.9608616454940270 0.7219215372012590 0.9630244649220350	-0.179922
C	0.8908468208860477 0.7229999009817794 0.9629067737025492	0.105834
C	0.0706996278573717 0.7521774797387670 0.8917778280799514	0.053368
C	0.1068868401468804 0.8087069649116733 0.8622970624007541	-0.130530
C	0.1768781387110823 0.8078801514470066 0.8596712579489140	-0.124040
C	0.2129531163488055 0.7501807632243438 0.8848098970546812	0.066288
C	0.1768591956032275 0.6933765818271554 0.9130677856370698	-0.118068
C	0.1069095216691163 0.6945902319885080 0.9173675153631307	-0.124854
C	0.7177106087657000 0.8885918667805139 0.8329103950455498	0.106382
C	0.7160573863888858 0.9584828143200259 0.8291264685427242	-0.179251
C	0.7471406408806038 0.9965205660657186 0.8948867706856016	0.105821
C	0.7780784627987410 0.9608616454940270 0.9630244649220350	-0.179925
C	0.7770000990182206 0.8908468208860477 0.9629067737025492	0.105835
C	0.7478225202612330 0.0706996278573717 0.8917778280799514	0.053368
C	0.6912930350883267 0.1068868401468804 0.8622970624007541	-0.130530
C	0.6921198005529965 0.1768781387110823 0.8596712579489140	-0.124039
C	0.7498192367756562 0.2129531163488055 0.8848098970546812	0.066287
C	0.8066234181728446 0.1768591956032275 0.9130677856370698	-0.118067
C	0.8054097210114917 0.1069095216691163 0.9173675153631307	-0.124853
C	0.7822893912343000 0.6114081332194861 0.8329103950455498	0.106378
C	0.7839426136111142 0.5415171856799741 0.8291264685427242	-0.179252
C	0.7528593591193962 0.5034794819342783 0.8948867706856016	0.105821
C	0.7219215372012590 0.5391384025059770 0.9630244649220350	-0.179921
C	0.7229999009817794 0.6091531791139523 0.9629067737025492	0.105833
C	0.7521774797387670 0.4293004081426242 0.8917778280799514	0.053369
C	0.8087069649116733 0.3931131478531186 0.8622970624007541	-0.130527
C	0.8078801514470066 0.3231218372889159 0.8596712579489140	-0.124040
C	0.7501807632243438 0.2870468836511944 0.8848098970546812	0.066288
C	0.6933765818271554 0.3231407803967707 0.9130677856370698	-0.118068
C	0.6945902319885080 0.3930904783308835 0.9173675153631307	-0.124851
C	0.6114081332194861 0.7822893912343000 0.3329104260455488	0.106379
C	0.5415171856799741 0.7839426136111142 0.3291264685427240	-0.179249
C	0.5034794819342783 0.7528593591193962 0.3948867706856015	0.105820
C	0.5391384025059770 0.7219215372012590 0.4630244959220413	-0.179921
C	0.6091531791139523 0.7229999009817794 0.4629067737025491	0.105833
C	0.4293004081426242 0.7521774797387670 0.3917778280799514	0.053369
C	0.3931131478531186 0.8087069649116733 0.3622970314007550	-0.130527
C	0.3231218372889159 0.8078801514470066 0.3596712889489130	-0.124040
C	0.2870468836511944 0.7501807632243438 0.3848098030546804	0.066287
C	0.3231407803967707 0.6933765818271554 0.4130678166370685	-0.118066
C	0.3930904783308835 0.6945902319885080 0.4173675153631308	-0.124851
C	0.8885918667805139 0.7177106087657000 0.3329104260455488	0.106379
C	0.9584828143200259 0.7160573863888858 0.3291264685427240	-0.179247
C	0.9965205660657186 0.7471406408806038 0.3948867706856015	0.105823
C	0.9608616454940270 0.7780784627987410 0.4630244959220413	-0.179925
C	0.8908468208860477 0.7770000990182206 0.4629067737025491	0.105835
C	0.0706996278573717 0.7478225202612330 0.3917778280799514	0.053368
C	0.1068868401468804 0.6912930350883267 0.3622970314007550	-0.130530
C	0.1768781387110823 0.6921198005529965 0.3596712889489130	-0.124041
C	0.2129531163488055 0.7498192367756562 0.3848098030546804	0.066289
C	0.1768591956032275 0.8066234181728446 0.4130678166370685	-0.118069
C	0.1069095216691163 0.8054097210114917 0.4173675153631308	-0.124852
C	0.7177106087657000 0.6114081332194861 0.3329104260455488	0.106378
C	0.7160573863888858 0.5415171856799741 0.3291264685427240	-0.179247
C	0.7471406408806038 0.5034794819342783 0.3948867706856015	0.105822
C	0.7780784627987410 0.5391384025059770 0.4630244959220413	-0.179923
C	0.7770000990182206 0.6091531791139523 0.4629067737025491	0.105832
C	0.7478225202612330 0.4293004081426242 0.3917778280799514	0.053369
C	0.6912930350883267 0.3931131478531186 0.3622970314007550	-0.130527
C	0.6921198005529965 0.3231218372889159 0.3596712889489130	-0.124039
C	0.7498192367756562 0.2870468836511944 0.3848098030546804	0.066289
C	0.8066234181728446 0.3231407803967707 0.4130678166370685	-0.118067
C	0.8054097210114917 0.3930904783308835 0.4173675153631308	-0.124850
C	0.7822893912343000 0.8885918667805139 0.3329104260455488	0.106381
C	0.7839426136111142 0.9584828143200259 0.3291264685427240	-0.179250
C	0.7528593591193962 0.9965205660657186 0.3948867706856015	0.105822
C	0.7219215372012590 0.9608616454940270 0.4630244959220413	-0.179923
C	0.7229999009817794 0.8908468208860477 0.4629067737025491	0.105836
C	0.7521774797387670 0.0706996278573717 0.3917778280799514	0.053368
C	0.8087069649116733 0.1068868401468804 0.3622970314007550	-0.130530
C	0.8078801514470066 0.1768781387110823 0.3596712889489130	-0.124041
C	0.7501807632243438 0.2129531163488055 0.3848098030546804	0.066287
C	0.6933765818271554 0.1768591956032275 0.4130678166370685	-0.118068
C	0.6945902319885080 0.1069095216691163 0.4173675153631308	-0.124853
C	0.3885918427805187 0.2822894632342990 0.1670895899544525	0.106379
C	0.4584827663200289 0.2839426616111110 0.1708735004572769	-0.179248
C	0.4965205180657215 0.2528594071193934 0.1051132293143984	0.105801
C	0.4608616934940237 0.2219214892012552 0.0369755000779655	-0.179910
C	0.3908468448860425 0.2229999489817762 0.0370932182974502	0.105827
C	0.5706995918573758 0.2521775277387641 0.1082221639200480	0.053341
C	0.6068868521468815 0.3087069649116733 0.1377029375992460	-0.130455
C	0.6768780907110784 0.3078801754470015 0.1403286950510856	-0.124063
C	0.7129531643488094 0.2501807632243437 0.1151901739453212	0.066291
C	0.6768591716032257 0.1933765818271554 0.0869321983629292	-0.118066
C	0.6069095456691115 0.1945902429885054 0.0826324996368670	-0.124868
C	0.1114081332194863 0.2177105607657032 0.1670895899544524	0.106376
C	0.0415171736799733 0.2160573623888911 0.1708735004572769	-0.179243
C	0.0034794609342803 0.2471405928806067 0.1051132293143984	0.105791
C	0.0391383335059749 0.2780785107987447 0.0369755000779655	-0.179911
C	0.1091531191139544 0.2770000750182258 0.0370932182974502	0.105825
C	0.9293003601426273 0.2478224482612338 0.1082221639200480	0.053384
C	0.8931131958531153 0.1912930700883261 0.1377029375992460	-0.130466
C	0.8231219092889216 0.1921198365529922 0.1403286950510856	-0.124061
C	0.7870468356511906 0.2498192127756542 0.1151901739453212	0.066299
C	0.8231408753967746 0.3066234181728447 0.0869321983629292	-0.118098
C	0.8930905503308894 0.3054097920114939 0.0826324996368670	-0.124884
C	0.2822894632342990 0.1114081332194863 0.1670895899544524	0.106376
C	0.2839426616111110 0.0415171736799733 0.1708735004572769	-0.179246
C	0.2528594071193934 0.0034794609342803 0.1051132293143984	0.105792
C	0.2219214892012552 0.0391383335059749 0.0369755000779655	-0.179907
C	0.2229999489817762 0.1091531191139544 0.0370932182974502	0.105825
C	0.2521775277387641 0.9293003601426273 0.1082221639200480	0.053383
C	0.3087069649116733 0.8931131958531153 0.1377029375992460	-0.130465
C	0.3078801754470015 0.8231219092889216 0.1403286950510856	-0.124063
C	0.2501807632243437 0.7870468356511906 0.1151901739453212	0.066299
C	0.1933765818271554 0.8231408753967746 0.0869321983629292	-0.118099
C	0.1945902429885054 0.8930905503308894 0.0826324996368670	-0.124885
C	0.2177105607657032 0.3885918427805187 0.1670895899544524	0.106380
C	0.2160573623888911 0.4584827663200289 0.1708735004572769	-0.179245
C	0.2471405928806067 0.4965205180657215 0.1051132293143984	0.105800
C	0.2780785107987447 0.4608616934940237 0.0369755000779655	-0.179913
C	0.2770000750182258 0.3908468448860426 0.0370932182974502	0.105828
C	0.2478224482612338 0.5706995918573758 0.1082221639200480	0.053341
C	0.1912930700883261 0.6068868521468815 0.1377029375992460	-0.130456
C	0.1921198365529922 0.6768780907110784 0.1403286950510856	-0.124062
C	0.2498192127756542 0.7129531643488094 0.1151901739453212	0.066290
C	0.3066234181728447 0.6768591716032257 0.0869321983629292	-0.118066
C	0.3054097920114939 0.6069095456691115 0.0826324996368670	-0.124868
H	0.3580038488930454 0.1957919943126703 0.7188715763902019	0.097535
H	0.4830402343138759 0.1924249891386014 0.7265395050180522	0.113828
H	0.4874140730006158 0.3016924792419973 0.4828327646931796	0.113932
H	0.3619399464715540 0.2993251905674236 0.4839935731049397	0.098770
H	0.5795910242011590 0.1460050414254162 0.6572478850899054	0.099421
H	0.7043374901443522 0.1480178544113093 0.6632995378003065	0.101383
H	0.7042166423795161 0.3512472197811283 0.5654162932416086	0.101749
H	0.5796907337639564 0.3498905247358340 0.5601618679760361	0.102633
H	0.1419961151069519 0.3042080296873316 0.7188715763902019	0.097534
H	0.0169597716861174 0.3075750348614005 0.7265395050180522	0.113830
H	0.0125859159993868 0.1983075327580036 0.4828327646931796	0.113930
H	0.1380600775284478 0.2006747974325753 0.4839935731049397	0.098770
H	0.9204090227988413 0.3539949585745836 0.6572478850899054	0.099422
H	0.7956625098556478 0.3519821335886896 0.6632995378003065	0.101382
H	0.7957833576204839 0.1487527922188727 0.5654162932416086	0.101758
H	0.9203092662360436 0.1501094632641722 0.5601618679760361	0.102650
H	0.3042080296873316 0.3580038488930454 0.7188715763902019	0.097535
H	0.3075750348614005 0.4830402343138759 0.7265395050180522	0.113830
H	0.1983075327580036 0.4874140730006158 0.4828327646931796	0.113931
H	0.2006747974325753 0.3619399464715540 0.4839935731049397	0.098770
H	0.3539949585745836 0.5795910242011590 0.6572478850899054	0.099420
H	0.3519821335886896 0.7043374901443522 0.6632995378003065	0.101382
H	0.1487527922188727 0.7042166423795161 0.5654162932416086	0.101752
H	0.1501094632641722 0.5796907337639564 0.5601618679760361	0.102636
H	0.1957919943126703 0.1419961151069519 0.7188715763902019	0.097534
H	0.1924249891386014 0.0169597716861174 0.7265395050180522	0.113828
H	0.3016924792419973 0.0125859159993868 0.4828327646931796	0.113931
H	0.2993251905674236 0.1380600775284478 0.4839935731049397	0.098771
H	0.1460050414254162 0.9204090227988413 0.6572478850899054	0.099424
H	0.1480178544113093 0.7956625098556478 0.6632995378003065	0.101384
H	0.3512472197811283 0.7957833576204839 0.5654162932416086	0.101755
H	0.3498905247358340 0.9203092662360436 0.5601618679760361	0.102647
H	0.6419961031069510 0.6957919943126704 0.7811284236097981	0.097534
H	0.5169597176861201 0.6924249651385995 0.7734604949819478	0.113829
H	0.5125859269993842 0.8016924792419973 0.0171672203068156	0.113924
H	0.6380600535284456 0.7993251665674217 0.0160064548950625	0.098767
H	0.4204089757988414 0.6460050414254161 0.8427521149100946	0.099435
H	0.2956625338556496 0.6480178664113102 0.8367004621996935	0.101381
H	0.2957833576204843 0.8512472197811286 0.9345837067583914	0.101751
H	0.4203093142360404 0.8498905487358288 0.9398381320239639	0.102633
H	0.8580039448930459 0.8042080536873336 0.7811284236097981	0.097534
H	0.9830401863138790 0.8075750348614005 0.7734604949819478	0.113830
H	0.9874140250006189 0.6983075207580027 0.0171672203068156	0.113925
H	0.8619398504715535 0.7006748334325783 0.0160064548950625	0.098769
H	0.0795910242011588 0.8539949585745839 0.8427521149100946	0.099433
H	0.2043374661443503 0.8519821335886898 0.8367004621996935	0.101378
H	0.2042166423795157 0.6487528282188683 0.9345837067583914	0.101751
H	0.0796907277639561 0.6501094512641712 0.9398381320239639	0.102632
H	0.6957919943126704 0.8580039448930459 0.7811284236097981	0.097534
H	0.6924249651385995 0.9830401863138790 0.7734604949819478	0.113829
H	0.8016924792419973 0.9874140250006189 0.0171672203068156	0.113926
H	0.7993251665674217 0.8619398504715535 0.0160064548950625	0.098769
H	0.6460050414254161 0.0795910242011588 0.8427521149100946	0.099435
H	0.6480178664113102 0.2043374661443503 0.8367004621996935	0.101380
H	0.8512472197811286 0.2042166423795157 0.9345837067583914	0.101750
H	0.8498905487358288 0.0796907277639561 0.9398381320239639	0.102632
H	0.8042080536873336 0.6419961031069510 0.7811284236097981	0.097534
H	0.8075750348614005 0.5169597176861201 0.7734604949819478	0.113830
H	0.6983075207580027 0.5125859269993842 0.0171672203068156	0.113923
H	0.7006748334325783 0.6380600535284456 0.0160064548950625	0.098767
H	0.8539949585745839 0.4204089757988414 0.8427521149100946	0.099433
H	0.8519821335886898 0.2956625338556496 0.8367004621996935	0.101379
H	0.6487528282188683 0.2957833576204843 0.9345837067583914	0.101752
H	0.6501094512641712 0.4203093142360404 0.9398381320239639	0.102634
H	0.6419961031069510 0.8042080536873336 0.2811284556097936	0.097533
H	0.5169597176861201 0.8075750348614005 0.2734605259819468	0.113827
H	0.5125859269993842 0.6983075207580027 0.5171672043068215	0.113921
H	0.6380600535284456 0.7006748334325783 0.5160064268950603	0.098768
H	0.4204089757988414 0.8539949585745839 0.3427520839100954	0.099433
H	0.2956625338556496 0.8519821335886898 0.3367004301996910	0.101380
H	0.2957833576204843 0.6487528282188683 0.4345837377583905	0.101753
H	0.4203093142360404 0.6501094512641712 0.4398381940239620	0.102633
H	0.8580039448930459 0.6957919943126704 0.2811284556097936	0.097535
H	0.9830401863138790 0.6924249651385995 0.2734605259819468	0.113824
H	0.9874140250006189 0.8016924792419973 0.5171672043068215	0.113923
H	0.8619398504715535 0.7993251665674217 0.5160064268950603	0.098768
H	0.0795910242011588 0.6460050414254161 0.3427520839100954	0.099433
H	0.2043374661443503 0.6480178664113102 0.3367004301996910	0.101380
H	0.2042166423795157 0.8512472197811286 0.4345837377583905	0.101748
H	0.0796907277639561 0.8498905487358288 0.4398381940239620	0.102630
H	0.6957919943126704 0.6419961031069510 0.2811284556097936	0.097533
H	0.6924249651385995 0.5169597176861201 0.2734605259819468	0.113824
H	0.8016924792419973 0.5125859269993842 0.5171672043068215	0.113922
H	0.7993251665674217 0.6380600535284456 0.5160064268950603	0.098768
H	0.6460050414254161 0.4204089757988414 0.3427520839100954	0.099435
H	0.6480178664113102 0.2956625338556496 0.3367004301996910	0.101381
H	0.8512472197811286 0.2957833576204843 0.4345837377583905	0.101751
H	0.8498905487358288 0.4203093142360404 0.4398381940239620	0.102630
H	0.8042080536873336 0.8580039448930459 0.2811284556097936	0.097534
H	0.8075750348614005 0.9830401863138790 0.2734605259819468	0.113827
H	0.6983075207580027 0.9874140250006189 0.5171672043068215	0.113922
H	0.7006748334325783 0.8619398504715535 0.5160064268950603	0.098768
H	0.8539949585745839 0.0795910242011588 0.3427520839100954	0.099432
H	0.8519821335886898 0.2043374661443503 0.3367004301996910	0.101378
H	0.6487528282188683 0.2042166423795157 0.4345837377583905	0.101751
H	0.6501094512641712 0.0796907277639561 0.4398381940239620	0.102633
H	0.3580038488930454 0.3042080296873316 0.2188715763902019	0.097534
H	0.4830402343138759 0.3075750348614005 0.2265395200180569	0.113827
H	0.4874140730006158 0.1983075327580036 0.9828328266931846	0.113929
H	0.3619399464715540 0.2006747974325753 0.9839935421049407	0.098771
H	0.5795910242011590 0.3539949585745836 0.1572479000899033	0.099420
H	0.7043374901443522 0.3519821335886896 0.1632995848003067	0.101381
H	0.7042166423795161 0.1487527922188727 0.0654162542416089	0.101751
H	0.5796907337639564 0.1501094632641722 0.0601618289760363	0.102633
H	0.1419961151069519 0.1957919943126703 0.2188715763902019	0.097534
H	0.0169597716861174 0.1924249891386014 0.2265395200180569	0.113826
H	0.0125859159993868 0.3016924792419973 0.9828328266931846	0.113928
H	0.1380600775284478 0.2993251905674236 0.9839935421049407	0.098769
H	0.9204090227988413 0.1460050414254162 0.1572479000899033	0.099423
H	0.7956625098556478 0.1480178544113093 0.1632995848003067	0.101383
H	0.7957833576204839 0.3512472197811283 0.0654162542416089	0.101755
H	0.9203092662360436 0.3498905247358340 0.0601618289760363	0.102648
H	0.3042080296873316 0.1419961151069519 0.2188715763902019	0.097534
H	0.3075750348614005 0.0169597716861174 0.2265395200180569	0.113826
H	0.1983075327580036 0.0125859159993868 0.9828328266931846	0.113927
H	0.2006747974325753 0.1380600775284478 0.9839935421049407	0.098769
H	0.3539949585745836 0.9204090227988413 0.1572479000899033	0.099421
H	0.3519821335886896 0.7956625098556478 0.1632995848003067	0.101382
H	0.1487527922188727 0.7957833576204839 0.0654162542416089	0.101757
H	0.1501094632641722 0.9203092662360436 0.0601618289760363	0.102649
H	0.1957919943126703 0.3580038488930454 0.2188715763902019	0.097534
H	0.1924249891386014 0.4830402343138759 0.2265395200180569	0.113826
H	0.3016924792419973 0.4874140730006158 0.9828328266931846	0.113930
H	0.2993251905674236 0.3619399464715540 0.9839935421049407	0.098771
H	0.1460050414254162 0.5795910242011590 0.1572479000899033	0.099423
H	0.1480178544113093 0.7043374901443522 0.1632995848003067	0.101382
H	0.3512472197811283 0.7042166423795161 0.0654162542416089	0.101749
H	0.3498905247358340 0.5796907337639564 0.0601618289760363	0.102633
Ni	0.2500000000000000 0.2500000000000000 0.6010450089762366	0.760968
Ni	0.7500000000000000 0.7500000000000000 0.8989549910237634	0.760968
Ni	0.7500000000000000 0.7500000000000000 0.3989549290237651	0.760964
Ni	0.2500000000000000 0.2500000000000000 0.1010450319762353	0.760963
Ge	0.2500000000000000 0.2500000000000000 0.3513742856342491	1.784317
Ge	0.7500000000000000 0.7500000000000000 0.1486257293657487	1.784317
Ge	0.7500000000000000 0.7500000000000000 0.6486258073657482	1.784317
Ge	0.2500000000000000 0.2500000000000000 0.8513741926342518	1.784317
	  	
