#======================================================================

# CRYSTAL DATA

#----------------------------------------------------------------------

data_VESTA_phase_1


_pd_phase_name                         GeFSIX_15_Cd_i
_cell_length_a                         30.29811
_cell_length_b                         29.63954
_cell_length_c                         8.18326
_cell_angle_alpha                      90
_cell_angle_beta                       90
_cell_angle_gamma                      90
_symmetry_space_group_name_H-M         P 1
_symmetry_Int_Tables_number            1

loop_
_symmetry_equiv_pos_as_xyz
   x, y, z

loop_
   _atom_site_label
   _atom_site_fract_x
   _atom_site_fract_y
   _atom_site_fract_z
   _atom_site_charge
C	0.9302501156870254 0.0994357034147843 0.8922207926747122	0.103478
C	0.8988091031434952 0.0653724135660532 0.8978607363515944	-0.162861
C	0.7695627835868271 0.9361504753341907 0.8991740501790741	-0.114043
C	0.7360295472000232 0.9043912224065743 0.8989475553559084	-0.114936
C	0.5713186298246890 0.7447677606796407 0.8921054078868792	0.099269
C	0.6045069969935883 0.7770478685819817 0.8975253829741937	-0.167581
C	0.4302501476870208 0.5994357194147852 0.8922207926747122	0.103478
C	0.3988091351434978 0.5653723765660538 0.8978607363515944	-0.162860
C	0.2695627195868288 0.4361505083341902 0.8991740501790741	-0.114030
C	0.2360295152000211 0.4043912884065798 0.8989475553559084	-0.114974
C	0.0713186538246911 0.2447677436796429 0.8921054078868792	0.099269
C	0.1045069729935864 0.2770479015819810 0.8975253829741937	-0.167581
C	0.0697498523129791 0.9005642805852148 0.3922208236747108	0.103478
C	0.1011908728565027 0.9346276234339462 0.3978607683515899	-0.162861
C	0.2304372324131743 0.0638494876658093 0.3991741121790723	-0.114029
C	0.2639704687999774 0.0956087275934213 0.3989475553559085	-0.114975
C	0.4286813381753080 0.2552322893203560 0.3921054388868785	0.099298
C	0.3954930030064116 0.2229520984180190 0.3975253829741938	-0.167589
C	0.5697498843129746 0.4005643135852135 0.3922208236747108	0.103478
C	0.6011908968565048 0.4346276234339463 0.3978607683515899	-0.162861
C	0.7304372164131729 0.5638495246658093 0.3991741121790723	-0.114043
C	0.7639704527999768 0.5956087775934257 0.3989475553559085	-0.114936
C	0.9286813701753110 0.7552322393203593 0.3921054388868785	0.099267
C	0.8954930030064117 0.7229521314180183 0.3975253829741938	-0.167580
C	0.0697498523129791 0.0994357034147843 0.6077791763252888	0.103478
C	0.1011908728565027 0.0653724135660532 0.6021391696484050	-0.162860
C	0.2304372324131743 0.9361504753341907 0.6008259188209268	-0.114043
C	0.2639704687999774 0.9043912224065743 0.6010524756440906	-0.114935
C	0.4286813381753080 0.7447677606796407 0.6078944981131201	0.099262
C	0.3954930030064116 0.7770478685819817 0.6024745860258073	-0.167575
C	0.5697498843129746 0.5994357194147852 0.6077791763252888	0.103478
C	0.6011908968565048 0.5653723765660538 0.6021391696484050	-0.162860
C	0.7304372164131729 0.4361505083341902 0.6008259188209268	-0.114030
C	0.7639704527999768 0.4043912884065798 0.6010524756440906	-0.114974
C	0.9286813701753110 0.2447677436796429 0.6078944981131201	0.099262
C	0.8954930030064117 0.2770479015819810 0.6024745860258073	-0.167575
C	0.9302501156870254 0.9005642805852148 0.1077791923252904	0.103479
C	0.8988091031434952 0.9346276234339462 0.1021392086484047	-0.162861
C	0.7695627835868271 0.0638494876658093 0.1008259188209269	-0.114029
C	0.7360295472000232 0.0956087275934213 0.1010524606440858	-0.114974
C	0.5713186298246890 0.2552322893203560 0.1078945531131209	0.099298
C	0.6045069969935883 0.2229520984180190 0.1024746320258038	-0.167589
C	0.4302501476870208 0.4005643135852135 0.1077791923252904	0.103478
C	0.3988091351434978 0.4346276234339463 0.1021392086484047	-0.162861
C	0.2695627195868288 0.5638495246658093 0.1008259188209269	-0.114042
C	0.2360295152000211 0.5956087775934257 0.1010524606440858	-0.114936
C	0.0713186538246911 0.7552322393203593 0.1078945531131209	0.099267
C	0.1045069729935864 0.7229521314180183 0.1024746320258038	-0.167580
C	0.0697498523129790 0.9005642805852148 0.1077791923252904	0.103479
C	0.1011908728565027 0.9346276234339462 0.1021392086484047	-0.162861
C	0.2304372324131743 0.0638494876658093 0.1008259188209269	-0.114029
C	0.2639704687999774 0.0956087275934213 0.1010524606440858	-0.114975
C	0.4286813381753080 0.2552322893203560 0.1078945531131209	0.099299
C	0.3954930030064116 0.2229520984180190 0.1024746320258038	-0.167589
C	0.5697498843129746 0.4005643135852135 0.1077791923252904	0.103479
C	0.6011908968565048 0.4346276234339463 0.1021392086484047	-0.162861
C	0.7304372164131729 0.5638495246658093 0.1008259188209269	-0.114043
C	0.7639704527999768 0.5956087775934257 0.1010524606440858	-0.114936
C	0.9286813701753110 0.7552322393203593 0.1078945531131209	0.099267
C	0.8954930030064117 0.7229521314180183 0.1024746320258038	-0.167579
C	0.9302501156870254 0.0994357034147843 0.6077791763252888	0.103478
C	0.8988091031434952 0.0653724135660532 0.6021391696484050	-0.162861
C	0.7695627835868271 0.9361504753341907 0.6008259188209268	-0.114043
C	0.7360295472000232 0.9043912224065743 0.6010524756440906	-0.114936
C	0.5713186298246890 0.7447677606796407 0.6078944981131201	0.099262
C	0.6045069969935883 0.7770478685819817 0.6024745860258073	-0.167575
C	0.4302501476870208 0.5994357194147852 0.6077791763252888	0.103478
C	0.3988091351434978 0.5653723765660538 0.6021391696484050	-0.162860
C	0.2695627195868288 0.4361505083341902 0.6008259188209268	-0.114030
C	0.2360295152000211 0.4043912884065798 0.6010524756440906	-0.114974
C	0.0713186538246911 0.2447677436796429 0.6078944981131201	0.099262
C	0.1045069729935864 0.2770479015819810 0.6024745860258073	-0.167575
C	0.9302501156870254 0.9005642805852148 0.3922208236747108	0.103479
C	0.8988091031434952 0.9346276234339462 0.3978607683515899	-0.162861
C	0.7695627835868271 0.0638494876658093 0.3991741121790723	-0.114029
C	0.7360295472000232 0.0956087275934213 0.3989475553559085	-0.114975
C	0.5713186298246890 0.2552322893203560 0.3921054388868785	0.099298
C	0.6045069969935883 0.2229520984180190 0.3975253829741938	-0.167588
C	0.4302501476870208 0.4005643135852135 0.3922208236747108	0.103478
C	0.3988091351434978 0.4346276234339463 0.3978607683515899	-0.162861
C	0.2695627195868288 0.5638495246658093 0.3991741121790723	-0.114042
C	0.2360295152000211 0.5956087775934257 0.3989475553559085	-0.114936
C	0.0713186538246911 0.7552322393203593 0.3921054388868785	0.099267
C	0.1045069729935864 0.7229521314180183 0.3975253829741938	-0.167579
C	0.0697498523129790 0.0994357034147843 0.8922207926747122	0.103478
C	0.1011908728565027 0.0653724135660532 0.8978607363515944	-0.162860
C	0.2304372324131743 0.9361504753341907 0.8991740501790741	-0.114043
C	0.2639704687999774 0.9043912224065743 0.8989475553559084	-0.114936
C	0.4286813381753080 0.7447677606796407 0.8921054078868792	0.099269
C	0.3954930030064116 0.7770478685819817 0.8975253829741937	-0.167581
C	0.5697498843129746 0.5994357194147852 0.8922207926747122	0.103478
C	0.6011908968565048 0.5653723765660538 0.8978607363515944	-0.162860
C	0.7304372164131729 0.4361505083341902 0.8991740501790741	-0.114030
C	0.7639704527999768 0.4043912884065798 0.8989475553559084	-0.114974
C	0.9286813701753110 0.2447677436796429 0.8921054078868792	0.099269
C	0.8954930030064117 0.2770479015819810 0.8975253829741937	-0.167581
C	0.6556750579574145 0.8268130732302497 0.7500000160000013	-0.105354
C	0.8823233712393517 0.0477989359371870 0.7500000160000013	0.161770
C	0.8206832190810999 0.9851494537493638 0.7500000160000013	-0.098401
C	0.6218844938292362 0.7939347596346359 0.7500000160000013	0.169913
C	0.7868033833043977 0.9524818480654320 0.7500000160000013	0.126135
C	0.7187462268215170 0.8879128107974041 0.7500000160000013	0.136343
C	0.6848188750506360 0.8552519051431993 0.7500000160000013	-0.098614
C	0.8496091344390198 0.0138286982229832 0.7500000160000013	-0.107220
C	0.1556750419574128 0.3268130732302498 0.7500000160000013	-0.105355
C	0.3823232752393504 0.5477989479371879 0.7500000160000013	0.161770
C	0.3206832190810999 0.4851494537493641 0.7500000160000013	-0.098397
C	0.1218844858292354 0.2939347596346356 0.7500000160000013	0.169913
C	0.2868033513044021 0.4524818480654322 0.7500000160000013	0.126144
C	0.2187462108215156 0.3879128437974028 0.7500000160000013	0.136362
C	0.1848188420506366 0.3552518721432005 0.7500000160000013	-0.098614
C	0.3496091024390172 0.5138286932229792 0.7500000160000013	-0.107222
C	0.3443249740425887 0.1731869267697503 0.2500000000000000	-0.105355
C	0.1176767007606545 0.9522010520628121 0.2500000000000000	0.161770
C	0.1793167809189000 0.0148505422506356 0.2500000000000000	-0.098397
C	0.3781155061707639 0.2060652243653631 0.2500000000000000	0.169916
C	0.2131966326956035 0.0475181439345673 0.2500000000000000	0.126143
C	0.2812537731784831 0.1120871482025964 0.2500000000000000	0.136362
C	0.3151811579493634 0.1447480948568005 0.2500000000000000	-0.098614
C	0.1503908975609828 0.9861712737770216 0.2500000000000000	-0.107222
C	0.8443249420425855 0.6731869267697503 0.2500000000000000	-0.105355
C	0.6176766287606483 0.4522010850628110 0.2500000000000000	0.161770
C	0.6793167809189001 0.5148505462506362 0.2500000000000000	-0.098400
C	0.8781155061707638 0.7060652403653641 0.2500000000000000	0.169915
C	0.7131966166956023 0.5475181849345672 0.2500000000000000	0.126135
C	0.7812537731784830 0.6120871892025959 0.2500000000000000	0.136344
C	0.8151811249493640 0.6447480948568007 0.2500000000000000	-0.098614
C	0.6503908655609802 0.4861712737770216 0.2500000000000000	-0.107221
C	0.3443249740425887 0.8268130732302497 0.7500000160000013	-0.105354
C	0.1176767007606545 0.0477989359371870 0.7500000160000013	0.161770
C	0.1793167809189000 0.9851494537493638 0.7500000160000013	-0.098401
C	0.3781155061707639 0.7939347596346359 0.7500000160000013	0.169913
C	0.2131966326956035 0.9524818480654320 0.7500000160000013	0.126135
C	0.2812537731784831 0.8879128107974041 0.7500000160000013	0.136343
C	0.3151811579493634 0.8552519051431993 0.7500000160000013	-0.098614
C	0.1503908975609828 0.0138286982229832 0.7500000160000013	-0.107220
C	0.8443249420425855 0.3268130732302498 0.7500000160000013	-0.105355
C	0.6176766287606483 0.5477989479371879 0.7500000160000013	0.161770
C	0.6793167809189001 0.4851494537493641 0.7500000160000013	-0.098397
C	0.8781155061707638 0.2939347596346356 0.7500000160000013	0.169913
C	0.7131966166956023 0.4524818480654322 0.7500000160000013	0.126144
C	0.7812537731784830 0.3879128437974028 0.7500000160000013	0.136362
C	0.8151811249493640 0.3552518721432005 0.7500000160000013	-0.098614
C	0.6503908655609802 0.5138286932229792 0.7500000160000013	-0.107221
C	0.6556750579574145 0.1731869267697503 0.2500000000000000	-0.105355
C	0.8823233712393517 0.9522010520628121 0.2500000000000000	0.161770
C	0.8206832190810999 0.0148505422506356 0.2500000000000000	-0.098397
C	0.6218844938292362 0.2060652243653631 0.2500000000000000	0.169916
C	0.7868033833043977 0.0475181439345673 0.2500000000000000	0.126143
C	0.7187462268215170 0.1120871482025964 0.2500000000000000	0.136362
C	0.6848188750506360 0.1447480948568005 0.2500000000000000	-0.098614
C	0.8496091344390198 0.9861712737770216 0.2500000000000000	-0.107222
C	0.1556750419574128 0.6731869267697503 0.2500000000000000	-0.105355
C	0.3823232752393504 0.4522010850628110 0.2500000000000000	0.161770
C	0.3206832190810999 0.5148505462506362 0.2500000000000000	-0.098400
C	0.1218844858292354 0.7060652403653641 0.2500000000000000	0.169915
C	0.2868033513044021 0.5475181849345672 0.2500000000000000	0.126135
C	0.2187462108215156 0.6120871892025959 0.2500000000000000	0.136344
C	0.1848188420506366 0.6447480948568007 0.2500000000000000	-0.098614
C	0.3496091024390172 0.4861712737770216 0.2500000000000000	-0.107221
H	0.9437264029797898 0.1140044524163611 0.0040266660130141	0.100528
H	0.8870233928697617 0.0525587268799888 0.0146951850554592	0.119935
H	0.7830818288054455 0.9488815345828476 0.0137018007934220	0.107207
H	0.7225981360263469 0.8916447994544583 0.0134225173050194	0.115022
H	0.5571150958840173 0.7309804468275404 0.0039583347010840	0.102393
H	0.6169041551655116 0.7890933820543354 0.0144400736980357	0.125734
H	0.4437264989797909 0.6140044684163627 0.0040266660130141	0.100528
H	0.3870233288697637 0.5525587558799948 0.0146951850554592	0.119935
H	0.2830818288054454 0.4488815345828472 0.0137018007934220	0.107211
H	0.2225981520263485 0.3916448984544630 0.0134225173050194	0.115028
H	0.0571151038840183 0.2309804958275407 0.0039583347010840	0.102393
H	0.1169041711655055 0.2890933160543367 0.0144400736980357	0.125734
H	0.0562735370202049 0.8859955315836373 0.5040266950130128	0.100528
H	0.1129766551302351 0.9474412441200052 0.5146952200554581	0.119935
H	0.2169182031945573 0.0511184824171576 0.5137018327934244	0.107211
H	0.2774018639736530 0.1083551265455428 0.5134225133050189	0.115027
H	0.4428849041159823 0.2690194871724616 0.5039583347010842	0.102378
H	0.3830958448344886 0.2109066349456628 0.5144401046980347	0.125735
H	0.5562735970202102 0.3859955315836377 0.5040266950130128	0.100527
H	0.6129766071302383 0.4474412771200116 0.5146952200554581	0.119935
H	0.7169181711945545 0.5511184654171524 0.5137018327934244	0.107207
H	0.7774018639736531 0.6083552005455417 0.5134225133050189	0.115022
H	0.9428849041159827 0.7690195531724596 0.5039583347010842	0.102392
H	0.8830958448344884 0.7109066179456646 0.5144401046980347	0.125734
H	0.0562735370202049 0.1140044524163611 0.4959733359869861	0.100528
H	0.1129766551302351 0.0525587268799888 0.4853047799445342	0.119935
H	0.2169182031945573 0.9488815345828476 0.4862981992065777	0.107207
H	0.2774018639736530 0.8916447994544583 0.4865774866949810	0.115022
H	0.4428849041159823 0.7309804468275404 0.4960416972989188	0.102405
H	0.3830958448344886 0.7890933820543354 0.4855599263019643	0.125735
H	0.5562735970202102 0.6140044684163627 0.4959733359869861	0.100528
H	0.6129766071302383 0.5525587558799948 0.4853047799445342	0.119935
H	0.7169181711945545 0.4488815345828472 0.4862981992065777	0.107211
H	0.7774018639736531 0.3916448984544630 0.4865774866949810	0.115028
H	0.9428849041159827 0.2309804958275407 0.4960416972989188	0.102405
H	0.8830958448344884 0.2890933160543367 0.4855599263019643	0.125735
H	0.9437264029797898 0.8859955315836373 0.9959733359869862	0.100528
H	0.8870233928697617 0.9474412441200052 0.9853047489445358	0.119935
H	0.7830818288054455 0.0511184824171576 0.9862981992065782	0.107211
H	0.7225981360263469 0.1083551265455428 0.9865774556949750	0.115028
H	0.5571150958840173 0.2690194871724616 0.9960416652989158	0.102378
H	0.6169041551655116 0.2109066349456628 0.9855599263019643	0.125735
H	0.4437264989797909 0.3859955315836377 0.9959733359869862	0.100527
H	0.3870233288697637 0.4474412771200116 0.9853047489445358	0.119935
H	0.2830818288054454 0.5511184654171524 0.9862981992065782	0.107207
H	0.2225981520263485 0.6083552005455417 0.9865774556949750	0.115022
H	0.0571151038840183 0.7690195531724596 0.9960416652989158	0.102392
H	0.1169041711655055 0.7109066179456646 0.9855599263019643	0.125734
H	0.0562735370202049 0.8859955315836373 0.9959733359869862	0.100528
H	0.1129766551302351 0.9474412441200052 0.9853047489445358	0.119935
H	0.2169182031945573 0.0511184824171576 0.9862981992065782	0.107211
H	0.2774018639736530 0.1083551265455428 0.9865774556949750	0.115028
H	0.4428849041159823 0.2690194871724616 0.9960416652989158	0.102378
H	0.3830958448344886 0.2109066349456628 0.9855599263019643	0.125735
H	0.5562735970202102 0.3859955315836377 0.9959733359869862	0.100527
H	0.6129766071302383 0.4474412771200116 0.9853047489445358	0.119935
H	0.7169181711945545 0.5511184654171524 0.9862981992065782	0.107207
H	0.7774018639736531 0.6083552005455417 0.9865774556949750	0.115022
H	0.9428849041159827 0.7690195531724596 0.9960416652989158	0.102392
H	0.8830958448344884 0.7109066179456646 0.9855599263019643	0.125734
H	0.9437264029797898 0.1140044524163611 0.4959733359869861	0.100528
H	0.8870233928697617 0.0525587268799888 0.4853047799445342	0.119935
H	0.7830818288054455 0.9488815345828476 0.4862981992065777	0.107207
H	0.7225981360263469 0.8916447994544583 0.4865774866949810	0.115022
H	0.5571150958840173 0.7309804468275404 0.4960416972989188	0.102405
H	0.6169041551655116 0.7890933820543354 0.4855599263019643	0.125735
H	0.4437264989797909 0.6140044684163627 0.4959733359869861	0.100528
H	0.3870233288697637 0.5525587558799948 0.4853047799445342	0.119935
H	0.2830818288054454 0.4488815345828472 0.4862981992065777	0.107211
H	0.2225981520263485 0.3916448984544630 0.4865774866949810	0.115028
H	0.0571151038840183 0.2309804958275407 0.4960416972989188	0.102405
H	0.1169041711655055 0.2890933160543367 0.4855599263019643	0.125735
H	0.9437264029797898 0.8859955315836373 0.5040266950130128	0.100528
H	0.8870233928697617 0.9474412441200052 0.5146952200554581	0.119935
H	0.7830818288054455 0.0511184824171576 0.5137018327934244	0.107211
H	0.7225981360263469 0.1083551265455428 0.5134225133050189	0.115028
H	0.5571150958840173 0.2690194871724616 0.5039583347010842	0.102378
H	0.6169041551655116 0.2109066349456628 0.5144401046980347	0.125735
H	0.4437264989797909 0.3859955315836377 0.5040266950130128	0.100527
H	0.3870233288697637 0.4474412771200116 0.5146952200554581	0.119935
H	0.2830818288054454 0.5511184654171524 0.5137018327934244	0.107207
H	0.2225981520263485 0.6083552005455417 0.5134225133050189	0.115022
H	0.0571151038840183 0.7690195531724596 0.5039583347010842	0.102392
H	0.1169041711655055 0.7109066179456646 0.5144401046980347	0.125734
H	0.0562735370202049 0.1140044524163611 0.0040266660130141	0.100528
H	0.1129766551302351 0.0525587268799888 0.0146951850554592	0.119935
H	0.2169182031945573 0.9488815345828476 0.0137018007934220	0.107207
H	0.2774018639736530 0.8916447994544583 0.0134225173050194	0.115022
H	0.4428849041159823 0.7309804468275404 0.0039583347010840	0.102393
H	0.3830958448344886 0.7890933820543354 0.0144400736980357	0.125735
H	0.5562735970202102 0.6140044684163627 0.0040266660130141	0.100528
H	0.6129766071302383 0.5525587558799948 0.0146951850554592	0.119935
H	0.7169181711945545 0.4488815345828472 0.0137018007934220	0.107211
H	0.7774018639736531 0.3916448984544630 0.0134225173050194	0.115028
H	0.9428849041159827 0.2309804958275407 0.0039583347010840	0.102393
H	0.8830958448344884 0.2890933160543367 0.0144400736980357	0.125734
Cd	0.5000000000000000 0.6730102668555777 0.7500000160000013	0.830774
Cd	0.0000000000000000 0.1730102838555757 0.7500000160000013	0.830774
Cd	0.5000000000000000 0.3269897331444224 0.2500000000000000	0.830780
Cd	0.0000000000000000 0.8269897331444223 0.2500000000000000	0.830769
Ge	0.5000000000000000 0.6731145307017989 0.2500000000000000	1.780875
Ge	0.0000000000000000 0.1731145307017993 0.2500000000000000	1.780875
Ge	0.5000000000000000 0.3268855012982033 0.7500000160000013	1.780914
Ge	0.0000000000000000 0.8268854692982011 0.7500000160000013	1.780875
F	0.5000000000000000 0.7345607108353297 0.2500000000000000	-0.557701
F	0.5000000000000000 0.6117118286673305 0.2500000000000000	-0.555945
F	0.0000000000000000 0.2345606618353290 0.2500000000000000	-0.557701
F	0.0000000000000000 0.1117118126673289 0.2500000000000000	-0.555945
F	0.5000000000000000 0.2654393381646709 0.7500000160000013	-0.557788
F	0.5000000000000000 0.3882881383326707 0.7500000160000013	-0.555897
F	0.0000000000000000 0.7654392891646703 0.7500000160000013	-0.557700
F	0.0000000000000000 0.8882881713326695 0.7500000160000013	-0.555945
F	0.5600661633759068 0.6731568580085373 0.2500000000000000	-0.558055
F	0.0600661833759082 0.1731568910085364 0.2500000000000000	-0.558055
F	0.4399338046240907 0.3268430759914643 0.7500000160000013	-0.558042
F	0.9399338366240932 0.8268431419914627 0.7500000160000013	-0.558054
F	0.4399338046240907 0.6731568580085373 0.2500000000000000	-0.558055
F	0.9399338366240932 0.1731568910085364 0.2500000000000000	-0.558055
F	0.5600661633759068 0.3268430759914643 0.7500000160000013	-0.558042
F	0.0600661833759082 0.8268431419914627 0.7500000160000013	-0.558054
F	0.5000000000000000 0.6730591316349678 0.4774499238742652	-0.518832
F	0.0000000000000000 0.1730591486349661 0.4774499238742652	-0.518832
F	0.5000000000000000 0.3269409013650307 0.9774499238742655	-0.518845
F	0.0000000000000000 0.8269408683650322 0.9774499238742655	-0.518831
F	0.5000000000000000 0.6730591316349678 0.0225500721257344	-0.518831
F	0.0000000000000000 0.1730591486349661 0.0225500721257344	-0.518831
F	0.5000000000000000 0.3269409013650307 0.5225500441257389	-0.518845
F	0.0000000000000000 0.8269408683650322 0.5225500441257389	-0.518831
N	0.5550197478059096 0.7288518950861099 0.7500000160000013	-0.243073
N	0.9456245920277390 0.1162340332194429 0.7500000160000013	-0.241915
N	0.0550197118059066 0.2288518790861088 0.7500000160000013	-0.243073
N	0.4456245920277389 0.6162340172194415 0.7500000160000013	-0.241916
N	0.4449803161940887 0.2711481049138898 0.2500000000000000	-0.243081
N	0.0543754159722618 0.8837659827805585 0.2500000000000000	-0.241915
N	0.9449802521940904 0.7711481049138901 0.2500000000000000	-0.243059
N	0.5543754079722610 0.3837659827805582 0.2500000000000000	-0.241916
N	0.4449803161940887 0.7288518950861099 0.7500000160000013	-0.243073
N	0.0543754159722618 0.1162340332194429 0.7500000160000013	-0.241915
N	0.9449802521940904 0.2288518790861088 0.7500000160000013	-0.243074
N	0.5543754079722610 0.6162340172194415 0.7500000160000013	-0.241915
N	0.5550197478059096 0.2711481049138898 0.2500000000000000	-0.243081
N	0.9456245920277390 0.8837659827805585 0.2500000000000000	-0.241915
N	0.0550197118059066 0.7711481049138901 0.2500000000000000	-0.243059
N	0.4456245920277389 0.3837659827805582 0.2500000000000000	-0.241916
	  	
