#======================================================================

# CRYSTAL DATA

#----------------------------------------------------------------------

data_VESTA_phase_1


_pd_phase_name                         GeFSIX_2_Ni
_cell_length_a                         13.84605
_cell_length_b                         13.84605
_cell_length_c                         7.83088
_cell_angle_alpha                      90
_cell_angle_beta                       90
_cell_angle_gamma                      90
_symmetry_space_group_name_H-M         P 1
_symmetry_Int_Tables_number            1

loop_
_symmetry_equiv_pos_as_xyz
   x, y, z

loop_
   _atom_site_label
   _atom_site_fract_x
   _atom_site_fract_y
   _atom_site_fract_z
   _atom_site_charge
C	0.5319573602848624 0.7009386700124095 0.1367746986523644	0.102253
C	0.5326998511456117 0.8011251673161839 0.1423807075781139	-0.165650
C	0.4680427097151362 0.2990613299875905 0.1367746986523644	0.102250
C	0.4673001138543888 0.1988748146838148 0.1423807075781139	-0.165647
C	0.2990613299875905 0.5319573602848624 0.1367746986523644	0.102253
C	0.1988748146838148 0.5326998511456117 0.1423807075781139	-0.165649
C	0.7009386700124095 0.4680427097151362 0.1367746986523644	0.102251
C	0.8011251673161839 0.4673001138543888 0.1423807075781139	-0.165647
C	0.4680427097151362 0.7009386700124095 0.8632253013476356	0.102254
C	0.4673001138543888 0.8011251673161839 0.8576192624218838	-0.165649
C	0.5319573602848624 0.2990613299875905 0.8632253013476356	0.102251
C	0.5326998511456117 0.1988748146838148 0.8576192624218838	-0.165646
C	0.7009386700124095 0.5319573602848624 0.8632253013476356	0.102251
C	0.8011251673161839 0.5326998511456117 0.8576192624218838	-0.165646
C	0.2990613299875905 0.4680427097151362 0.8632253013476356	0.102254
C	0.1988748146838148 0.4673001138543888 0.8576192624218838	-0.165648
C	0.5000000000000000 0.1462266006560193 -0.0000000000000000	0.170788
C	0.5000000000000000 0.0440208903234035 -0.0000000000000000	-0.095131
C	0.5000000000000000 0.8537733993439806 -0.0000000000000000	0.170757
C	0.5000000000000000 0.9559790526766028 -0.0000000000000000	-0.094883
C	0.8537733993439806 0.5000000000000000 -0.0000000000000000	0.170788
C	0.9559790526766028 0.5000000000000000 -0.0000000000000000	-0.095131
C	0.1462266006560193 0.5000000000000000 -0.0000000000000000	0.170757
C	0.0440208903234035 0.5000000000000000 -0.0000000000000000	-0.094882
H	0.5569793720269686 0.6589656766073226 0.2458715960603075	0.098398
H	0.5586833794580744 0.8379481865984569 0.2561820938357902	0.127190
H	0.4430206279730313 0.3410342533926788 0.2458715960603075	0.098397
H	0.4413166555419248 0.1620517434015441 0.2561820938357902	0.127191
H	0.3410342533926788 0.5569793720269686 0.2458715960603075	0.098398
H	0.1620517434015441 0.5586833794580744 0.2561820938357902	0.127190
H	0.6589656766073226 0.4430206279730313 0.2458715960603075	0.098397
H	0.8379481865984569 0.4413166555419248 0.2561820938357902	0.127191
H	0.4430206279730313 0.6589656766073226 0.7541284039396925	0.098398
H	0.4413166555419248 0.8379481865984569 0.7438179361642119	0.127189
H	0.5569793720269686 0.3410342533926788 0.7541284039396925	0.098397
H	0.5586833794580744 0.1620517434015441 0.7438179361642119	0.127190
H	0.6589656766073226 0.5569793720269686 0.7541284039396925	0.098397
H	0.8379481865984569 0.5586833794580744 0.7438179361642119	0.127190
H	0.3410342533926788 0.4430206279730313 0.7541284039396925	0.098397
H	0.1620517434015441 0.4413166555419248 0.7438179361642119	0.127189
Ni	0.5000000000000000 0.5000000000000000 -0.0000000000000000	0.759697
Ge	0.5000000000000000 0.5000000000000000 0.5000000000000000	1.771637
F	0.5000000000000000 0.5000000000000000 0.7401717202586433	-0.517651
F	0.5000000000000000 0.5000000000000000 0.2598283097413519	-0.517651
F	0.5927654839586873 0.5927654839586873 0.5000000000000000	-0.534543
F	0.4072345510413120 0.5927654839586873 0.5000000000000000	-0.534543
F	0.4072345510413120 0.4072345510413120 0.5000000000000000	-0.534543
F	0.5927654839586873 0.4072345510413120 0.5000000000000000	-0.534543
N	0.5000000000000000 0.3488197453675316 -0.0000000000000000	-0.239615
N	0.5000000000000000 0.6511802196324692 -0.0000000000000000	-0.239614
N	0.6511802196324692 0.5000000000000000 -0.0000000000000000	-0.239615
N	0.3488197453675316 0.5000000000000000 -0.0000000000000000	-0.239614
	  	
