#======================================================================

# CRYSTAL DATA

#----------------------------------------------------------------------

data_VESTA_phase_1


_pd_phase_name                         GeFSIX_2_Zn
_cell_length_a                         13.93027
_cell_length_b                         13.93027
_cell_length_c                         7.94009
_cell_angle_alpha                      90
_cell_angle_beta                       90
_cell_angle_gamma                      90
_symmetry_space_group_name_H-M         P 1
_symmetry_Int_Tables_number            1

loop_
_symmetry_equiv_pos_as_xyz
   x, y, z

loop_
   _atom_site_label
   _atom_site_fract_x
   _atom_site_fract_y
   _atom_site_fract_z
   _atom_site_charge
C	0.5314551343748174 0.7025904819384629 0.1356217286791341	0.102009
C	0.5323246006237636 0.8022054421516870 0.1408161567965006	-0.167605
C	0.4685449356251813 0.2974095180615369 0.1356217286791341	0.102007
C	0.4676753643762368 0.1977945398483112 0.1408161567965006	-0.167603
C	0.2974095180615369 0.5314551343748174 0.1356217286791341	0.102010
C	0.1977945398483112 0.5323246006237636 0.1408161567965006	-0.167605
C	0.7025904819384629 0.4685449356251813 0.1356217286791341	0.102007
C	0.8022054421516870 0.4676753643762368 0.1408161567965006	-0.167603
C	0.4685449356251813 0.7025904819384629 0.8643782713208661	0.102010
C	0.4676753643762368 0.8022054421516870 0.8591838132034969	-0.167605
C	0.5314551343748174 0.2974095180615369 0.8643782713208661	0.102007
C	0.5323246006237636 0.1977945398483112 0.8591838132034969	-0.167602
C	0.7025904819384629 0.5314551343748174 0.8643782713208661	0.102007
C	0.8022054421516870 0.5323246006237636 0.8591838132034969	-0.167602
C	0.2974095180615369 0.4685449356251813 0.8643782713208661	0.102010
C	0.1977945398483112 0.4676753643762368 0.8591838132034969	-0.167604
C	0.5000000000000000 0.1455097567777391 -0.0000000000000000	0.169943
C	0.5000000000000000 0.0437875725472237 -0.0000000000000000	-0.092470
C	0.5000000000000000 0.8544902432222607 -0.0000000000000000	0.169911
C	0.5000000000000000 0.9562123704527824 -0.0000000000000000	-0.092215
C	0.8544902432222607 0.5000000000000000 -0.0000000000000000	0.169943
C	0.9562123704527824 0.5000000000000000 -0.0000000000000000	-0.092470
C	0.1455097567777391 0.5000000000000000 -0.0000000000000000	0.169910
C	0.0437875725472237 0.5000000000000000 -0.0000000000000000	-0.092214
H	0.5557027311785834 0.6604399909617981 0.2433466259288777	0.100404
H	0.5579770655048480 0.8390701531494651 0.2530160827918548	0.128076
H	0.4442972688214168 0.3395599390382034 0.2433466259288777	0.100404
H	0.4420229694951514 0.1609297768505361 0.2530160827918548	0.128077
H	0.3395599390382034 0.5557027311785834 0.2433466259288777	0.100404
H	0.1609297768505361 0.5579770655048480 0.2530160827918548	0.128076
H	0.6604399909617981 0.4442972688214168 0.2433466259288777	0.100404
H	0.8390701531494651 0.4420229694951514 0.2530160827918548	0.128077
H	0.4442972688214168 0.6604399909617981 0.7566533740711219	0.100404
H	0.4420229694951514 0.8390701531494651 0.7469839472081478	0.128076
H	0.5557027311785834 0.3395599390382034 0.7566533740711219	0.100404
H	0.5579770655048480 0.1609297768505361 0.7469839472081478	0.128077
H	0.6604399909617981 0.5557027311785834 0.7566533740711219	0.100404
H	0.8390701531494651 0.5579770655048480 0.7469839472081478	0.128077
H	0.3395599390382034 0.4442972688214168 0.7566533740711219	0.100404
H	0.1609297768505361 0.4420229694951514 0.7469839472081478	0.128075
Zn	0.5000000000000000 0.5000000000000000 -0.0000000000000000	0.733567
Ge	0.5000000000000000 0.5000000000000000 0.5000000000000000	1.770225
F	0.5000000000000000 0.5000000000000000 0.7355383050414754	-0.511114
F	0.5000000000000000 0.5000000000000000 0.2644617249585205	-0.511114
F	0.5924138165309782 0.5924138165309782 0.5000000000000000	-0.545814
F	0.4075862184690213 0.5924138165309782 0.5000000000000000	-0.545814
F	0.4075862184690213 0.4075862184690213 0.5000000000000000	-0.545814
F	0.5924138165309782 0.4075862184690213 0.5000000000000000	-0.545814
N	0.5000000000000000 0.3464484358054246 -0.0000000000000000	-0.227933
N	0.5000000000000000 0.6535515291945764 -0.0000000000000000	-0.227932
N	0.6535515291945764 0.5000000000000000 -0.0000000000000000	-0.227933
N	0.3464484358054246 0.5000000000000000 -0.0000000000000000	-0.227932
	  	
