#======================================================================

# CRYSTAL DATA

#----------------------------------------------------------------------

data_VESTA_phase_1


_pd_phase_name                         GeFSIX_13_Zn_i
_cell_length_a                         15.39294
_cell_length_b                         15.39072
_cell_length_c                         7.86971
_cell_angle_alpha                      89.91959
_cell_angle_beta                       89.99744
_cell_angle_gamma                      89.84870
_symmetry_space_group_name_H-M         P 1
_symmetry_Int_Tables_number            1

loop_
_symmetry_equiv_pos_as_xyz
   x, y, z

loop_
   _atom_site_label
   _atom_site_fract_x
   _atom_site_fract_y
   _atom_site_fract_z
   _atom_site_charge
C	0.5400127542959644 0.6856897938363147 0.8703267115310466	0.108640
C	0.5433681199296406 0.7760759456609237 0.8685740459523426	-0.149732
C	0.4634494880725885 0.3171895480428810 0.8774444287268593	0.107944
C	0.4600868109768040 0.2268833380971159 0.8773178016290516	-0.141208
C	0.8163242246134406 0.9737064439966531 0.3647346657663256	0.107866
C	0.7261213841370805 0.9705936028247258 0.3610490003130895	-0.135127
C	0.3165884503533988 0.5411260956718155 0.8683510805466179	0.107532
C	0.2262466095041452 0.5452935701199808 0.8661459813371154	-0.150770
C	0.1859804754161541 0.9710923205129177 0.3553843497123035	0.103606
C	0.2762778063499114 0.9698697589479658 0.3526680703876021	-0.137278
C	0.6848530679439432 0.4630705460889733 0.8834870115396430	0.109727
C	0.7751155286083785 0.4601571879305670 0.8822256894298623	-0.141600
C	0.4550011022661108 0.6857551835141462 0.1143745414783876	0.107444
C	0.4517590052513215 0.7760229724221861 0.1169251500083622	-0.137342
C	0.5396361446217162 0.3186308243414123 0.1325122886427744	0.106381
C	0.5422933996402778 0.2282325217235815 0.1377845668330955	-0.149367
C	0.1837702238092006 0.0198020796940831 0.6348137007533735	0.110191
C	0.2739191588610183 0.0222149723839122 0.6416252097239119	-0.138801
C	0.6832501682537638 0.5433429282067164 0.1334761147901556	0.108254
C	0.7736662347992611 0.5467478556323013 0.1371179176792952	-0.148035
C	0.8160066453548246 0.0296087530439283 0.6389909582433132	0.102466
C	0.7257555366598482 0.0304910589005038 0.6444683252299807	-0.137770
C	0.3157296190384780 0.4583358005619154 0.1155438893376406	0.108737
C	0.2254340100755630 0.4558898680982406 0.1176804712315161	-0.140805
C	0.9655674442736103 0.8142068321315499 0.6347779015972632	0.110129
C	0.9645503943308756 0.7238720893158365 0.6413159448191008	-0.137570
C	0.9838171999742346 0.1825916907782636 0.6408175055041437	0.104468
C	0.9798172131239635 0.2727178092788748 0.6438128879536799	-0.138975
C	0.0208074523540880 0.8131926556537628 0.3599137010900102	0.104948
C	0.0239769166065605 0.7230433452226303 0.3574216483822278	-0.138401
C	0.0314038576293774 0.1821335165089410 0.3604943338645184	0.111185
C	0.0311487497422755 0.2724587707200488 0.3539068781421078	-0.138323
C	0.0039022567383721 0.3186886785577270 0.4977093368396547	0.044205
C	0.0009675999642910 0.4138872655843349 0.4974311378967787	0.253785
C	0.4978692013226024 0.8222336667729248 0.9931932039815334	0.056621
C	0.4988595119410844 0.9181509840328999 0.9980143851997989	0.248391
C	0.9952142689588317 0.6772632137518168 0.5005833816930898	0.039772
C	0.9971837955900513 0.5819325964635665 0.5005713423574741	0.248658
C	0.5010024715940402 0.1813820964664967 0.0090251005807140	0.056403
C	0.5003328751949724 0.0853705236483201 0.0097022278667281	0.251309
C	0.6797686445903469 0.9998718054604022 0.5032113996037932	0.039610
C	0.5844942522541209 0.9977733409188428 0.5041888086841295	0.245418
C	0.1796600023344324 0.5011943005975756 0.9918988019727026	0.056158
C	0.0837310829895923 0.5022275232872663 0.9944321061497366	0.248785
C	0.3212469306295092 0.9961197726491514 0.4984188242967749	0.041191
C	0.4164665588659495 0.9961318088795365 0.5016477052242138	0.256833
C	0.8205530200302301 0.5036569510818372 0.0103085163727391	0.054653
C	0.9165408601684586 0.5034991370224036 0.0075551277388209	0.249699
H	0.5709955477400037 0.6472996278938996 0.7706633852153357	0.104972
H	0.5799767799866457 0.8093018936454105 0.7696336959997477	0.123789
H	0.4359380858980531 0.3550744776029341 0.7729910898079578	0.105189
H	0.4285862012292436 0.1922350503908543 0.7739188945589635	0.118430
H	0.8544865236015015 0.9528159349544489 0.2553474609591125	0.103128
H	0.6928471560909750 0.9465233922634227 0.2486214716960282	0.119893
H	0.3552200152626117 0.5709093962523956 0.7676344148668554	0.105279
H	0.1933494712188405 0.5813815037490614 0.7658516163613243	0.124799
H	0.1491100679503018 0.9534550904976316 0.2423543380695143	0.098618
H	0.3103545101512208 0.9503814538350071 0.2375869578032573	0.116114
H	0.6469548108547457 0.4338892876815737 0.7813319412192480	0.104572
H	0.8097951534796363 0.4271999433055674 0.7803653093823361	0.117697
H	0.4241231352423684 0.6472459376137203 0.2138963382502288	0.105804
H	0.4171259740757942 0.8100479173433647 0.2174104252493916	0.116052
H	0.5674254260869227 0.3575278878411723 0.2349010820300410	0.105029
H	0.5748063739416543 0.1955550560624592 0.2429011712993144	0.124267
H	0.1449667159597251 0.0381225495334384 0.7450193749952975	0.101746
H	0.3062561067632988 0.0426642349365376 0.7577773079990830	0.119885
H	0.6443557910337884 0.5725073353124411 0.2346145847233792	0.105226
H	0.8062456210045418 0.5812817330626173 0.2395262832287066	0.123746
H	0.8536482830229798 0.0500435473913085 0.7491785208029942	0.098493
H	0.6924429188579030 0.0529886501853829 0.7582479760670101	0.121232
H	0.3538977113367849 0.4280677437814605 0.2165433377121297	0.104986
H	0.1910032217999129 0.4222908366226925 0.2189468188504727	0.116921
H	0.9444185987118966 0.8526639448409770 0.7435932206808835	0.103829
H	0.9418463932582696 0.6910236530266708 0.7555346750852138	0.120747
H	0.9677156684721648 0.1450273339774914 0.7538567913918051	0.095668
H	0.9593615978174816 0.3061646747499627 0.7588177598487547	0.120004
H	0.0402942983284410 0.8505204804060262 0.2485853107497044	0.096912
H	0.0475815624177043 0.6894433976490991 0.2449702241145726	0.118896
H	0.0501976928745684 0.1438922169530984 0.2497596472928637	0.103004
H	0.0499182312249420 0.3056113121956315 0.2372841858918453	0.118809
N	0.9448222384481630 0.5391174611092383 0.6101956124870891	-0.136955
N	0.4222027256860402 0.0455851130453359 0.0086313008516812	-0.149476
N	0.5421425989768481 0.0495593986625174 0.6157722898477195	-0.134919
N	0.9567938659969327 0.4254185221895654 0.0025454883290098	-0.148039
N	0.0508893586585196 0.5422033983293366 0.3885923443231168	-0.135353
N	0.5776906159212796 0.0437754115194127 0.0114204006581423	-0.148551
N	0.9575895132441609 0.5809341474757084 0.0050872090583676	-0.147894
N	0.5443951762739314 0.9430241619404014 0.3952315862890029	-0.132820
N	0.0532120969367193 0.4567419846599693 0.3878627517353334	-0.129416
N	0.5769595984484551 0.9579718420615694 0.0009556551421684	-0.146758
N	0.4588742200935006 0.9421542485961154 0.3943617043774729	-0.131269
N	0.0433907475404354 0.5802673768076079 0.9943010896225738	-0.145686
N	0.9463574347791719 0.4535549230520039 0.6075083355552909	-0.130371
N	0.4215487128794408 0.9596473378574499 0.0061741644761667	-0.144728
N	0.0427015215355239 0.4247579811007517 0.9989715807240268	-0.147224
N	0.4566262610020473 0.0488356466746905 0.6140589055083489	-0.134629
N	0.0078587846775164 0.1380018222989302 0.5012199002427469	-0.218577
N	0.4976407695840679 0.6415433096080447 0.9925216811204062	-0.223327
N	0.9932964892496364 0.8580775571603892 0.4966741702932870	-0.218374
N	0.5016681768196969 0.3620884804668891 0.0036713091364550	-0.228026
N	0.8605191049489239 0.0023163824468548 0.5014782502613061	-0.216486
N	0.3603441353976737 0.4994018494637260 0.9922264919805871	-0.225416
N	0.1405119238475067 0.9947779842999792 0.4942628873298097	-0.217546
N	0.6398615972207374 0.5030845427210738 0.0077286798119044	-0.225349
Zn	0.0004519291541810 0.9979462094774464 0.4979644607595073	0.730849
Zn	0.5001488655335429 0.5019211821294391 0.9991623427084451	0.732372
Ge	0.9998174324125961 0.9971273818383025 0.9983026511624434	1.763598
Ge	0.4994364021780207 0.5034346264072842 0.4989119420274550	1.780192
F	0.9978446915307588 0.0010356052137884 0.2354180114984426	-0.510027
F	0.5061303566881744 0.4997614252947378 0.7362610330322744	-0.514997
F	0.0019664990018865 0.9934037227595988 0.7610612416520027	-0.510676
F	0.4930826176450270 0.5063560647985035 0.2615235920476412	-0.514606
F	0.0838579064052661 0.0800862475264825 0.9954994547643065	-0.537014
F	0.5809444853610476 0.5891905730544427 0.4949697901761306	-0.551839
F	0.9158940732725025 0.9142911620008616 0.0008666958218974	-0.536704
F	0.4180177765052341 0.4177967851508438 0.5030923824325083	-0.554167
F	0.9170893181725034 0.0815943792574393 0.9882810522733942	-0.534191
F	0.4141455693188810 0.5853790244444045 0.5110533952641808	-0.551653
F	0.0830850078763889 0.9132233185572354 0.0086829275107045	-0.534614
F	0.5854153300474247 0.4220306159450864 0.4864552638679025	-0.552977
	  	
