#======================================================================

# CRYSTAL DATA

#----------------------------------------------------------------------

data_VESTA_phase_1


_pd_phase_name                         GeFSIX_3_Cd
_cell_length_a                         14.97366
_cell_length_b                         14.97366
_cell_length_c                         8.15419
_cell_angle_alpha                      90
_cell_angle_beta                       90
_cell_angle_gamma                      90
_symmetry_space_group_name_H-M         P 1
_symmetry_Int_Tables_number            1

loop_
_symmetry_equiv_pos_as_xyz
   x, y, z

loop_
   _atom_site_label
   _atom_site_fract_x
   _atom_site_fract_y
   _atom_site_fract_z
   _atom_site_charge
C	0.2691794534729028 0.4534510078962898 0.6374564340405244	0.066654
C	0.2308205465270971 0.0465489961037105 0.6374564340405244	0.066654
C	0.2308205465270971 0.4534510078962898 0.3625435339594727	0.066656
C	0.2691794534729028 0.0465489961037105 0.3625435339594728	0.066657
C	0.0465489961037105 0.2691794534729028 0.3625435339594728	0.066659
C	0.4534510078962898 0.2308205465270971 0.3625435339594728	0.066658
C	0.4534510078962898 0.2691794534729028 0.6374564340405244	0.066661
C	0.0465489961037105 0.2308205465270971 0.6374564340405244	0.066661
C	0.9534509398962911 0.2308205465270971 0.6374564340405244	0.066667
C	0.5465490601037089 0.2691794534729028 0.6374564340405244	0.066668
C	0.5465490601037089 0.2308205465270971 0.3625435339594727	0.066670
C	0.9534509398962911 0.2691794534729028 0.3625435339594728	0.066670
C	0.7308205635270945 0.0465489961037105 0.3625435339594728	0.066658
C	0.7691794364729055 0.4534510078962898 0.3625435339594728	0.066658
C	0.7691794364729055 0.0465489961037105 0.6374564340405244	0.066662
C	0.7308205635270945 0.4534510078962898 0.6374564340405244	0.066661
C	0.4534510078962898 0.7308205635270945 0.6374564340405244	0.066654
C	0.0465489961037105 0.7691794364729055 0.6374564340405244	0.066655
C	0.0465489961037105 0.7308205635270945 0.3625435339594728	0.066657
C	0.4534510078962898 0.7691794364729055 0.3625435339594728	0.066657
C	0.2308205465270971 0.5465490601037089 0.3625435339594728	0.066672
C	0.2691794534729028 0.9534509398962911 0.3625435339594728	0.066672
C	0.2691794534729028 0.5465490601037089 0.6374564340405244	0.066675
C	0.2308205465270971 0.9534509398962911 0.6374564340405244	0.066674
C	0.7691794364729055 0.9534509398962911 0.6374564340405244	0.066668
C	0.7308205635270945 0.5465490601037089 0.6374564340405244	0.066668
C	0.7308205635270945 0.9534509398962911 0.3625435339594728	0.066669
C	0.7691794364729055 0.5465490601037089 0.3625435339594728	0.066670
C	0.5465490601037089 0.7691794364729055 0.3625435339594728	0.066672
C	0.9534509398962911 0.7308205635270945 0.3625435339594728	0.066671
C	0.9534509398962911 0.7691794364729055 0.6374564340405244	0.066674
C	0.5465490601037089 0.7308205635270945 0.6374564340405244	0.066674
H	0.2842365890158545 0.4157451619926129 0.7486807222923130	0.116003
H	0.2157633769841427 0.0842548380073874 0.7486807222923130	0.116003
H	0.2157633769841427 0.4157451619926129 0.2513192467076881	0.116003
H	0.2842365890158545 0.0842548380073874 0.2513192467076881	0.116003
H	0.0842548380073874 0.2842365890158545 0.2513192467076881	0.116002
H	0.4157451619926129 0.2157633769841427 0.2513192467076881	0.116002
H	0.4157451619926129 0.2842365890158545 0.7486807222923130	0.116001
H	0.0842548380073874 0.2157633769841427 0.7486807222923130	0.116001
H	0.9157452299926184 0.2157633769841427 0.7486807222923130	0.115998
H	0.5842547700073816 0.2842365890158545 0.7486807222923130	0.115998
H	0.5842547700073816 0.2157633769841427 0.2513192467076881	0.115999
H	0.9157452299926184 0.2842365890158545 0.2513192467076881	0.115998
H	0.7157633429841477 0.0842548380073874 0.2513192467076881	0.116002
H	0.7842366570158523 0.4157451619926129 0.2513192467076881	0.116002
H	0.7842366570158523 0.0842548380073874 0.7486807222923130	0.116001
H	0.7157633429841477 0.4157451619926129 0.7486807222923130	0.116001
H	0.4157451619926129 0.7157633429841477 0.7486807222923130	0.116003
H	0.0842548380073874 0.7842366570158523 0.7486807222923130	0.116003
H	0.0842548380073874 0.7157633429841477 0.2513192467076881	0.116003
H	0.4157451619926129 0.7842366570158523 0.2513192467076881	0.116003
H	0.2157633769841427 0.5842547700073816 0.2513192467076881	0.115998
H	0.2842365890158545 0.9157452299926184 0.2513192467076881	0.115997
H	0.2842365890158545 0.5842547700073816 0.7486807222923130	0.115996
H	0.2157633769841427 0.9157452299926184 0.7486807222923130	0.115997
H	0.7842366570158523 0.9157452299926184 0.7486807222923130	0.115998
H	0.7157633429841477 0.5842547700073816 0.7486807222923130	0.115998
H	0.7157633429841477 0.9157452299926184 0.2513192467076881	0.115998
H	0.7842366570158523 0.5842547700073816 0.2513192467076881	0.115998
H	0.5842547700073816 0.7842366570158523 0.2513192467076881	0.115997
H	0.9157452299926184 0.7157633429841477 0.2513192467076881	0.115998
H	0.9157452299926184 0.7842366570158523 0.7486807222923130	0.115996
H	0.5842547700073816 0.7157633429841477 0.7486807222923130	0.115997
Cd	0.2500000000000000 0.2500000000000000 0.5000000000000000	0.825685
Cd	0.7500000340000028 0.2500000000000000 0.5000000000000000	0.825686
Cd	0.2500000000000000 0.7500000340000028 0.5000000000000000	0.825686
Cd	0.7500000340000028 0.7500000340000028 0.5000000000000000	0.825686
Ge	0.2500000000000000 0.2500000000000000 0.0000000000000000	1.774313
Ge	0.7500000340000028 0.2500000000000000 0.0000000000000000	1.774313
Ge	0.2500000000000000 0.7500000340000028 0.0000000000000000	1.774313
Ge	0.7500000340000028 0.7500000340000028 0.0000000000000000	1.774313
F	0.2500000000000000 0.2500000000000000 0.7704622621201122	-0.528505
F	0.2500000000000000 0.2500000000000000 0.2295377378798879	-0.528506
F	0.3357253531389978 0.3357253531389978 -0.0077134573461751	-0.547326
F	0.1642746468610023 0.1642746468610023 -0.0077134573461751	-0.547324
F	0.1642746468610023 0.3357253531389978 0.0077134783461733	-0.547325
F	0.3357253531389978 0.1642746468610023 0.0077134783461733	-0.547325
F	0.7500000340000028 0.2500000000000000 0.7704622621201122	-0.528505
F	0.7500000340000028 0.2500000000000000 0.2295377378798879	-0.528506
F	0.8357253871390005 0.3357253531389978 0.0077134783461733	-0.547326
F	0.6642746128609995 0.1642746468610023 0.0077134783461733	-0.547324
F	0.6642746128609995 0.3357253531389978 -0.0077134573461751	-0.547325
F	0.8357253871390005 0.1642746468610023 -0.0077134573461751	-0.547325
F	0.2500000000000000 0.7500000340000028 0.7704622621201122	-0.528505
F	0.2500000000000000 0.7500000340000028 0.2295377378798879	-0.528506
F	0.3357253531389978 0.8357253871390005 0.0077134783461733	-0.547326
F	0.1642746468610023 0.6642746128609995 0.0077134783461733	-0.547324
F	0.1642746468610023 0.8357253871390005 -0.0077134573461751	-0.547325
F	0.3357253531389978 0.6642746128609995 -0.0077134573461751	-0.547325
F	0.7500000340000028 0.7500000340000028 0.7704622621201122	-0.528505
F	0.7500000340000028 0.7500000340000028 0.2295377378798879	-0.528506
F	0.8357253871390005 0.8357253871390005 -0.0077134573461751	-0.547327
F	0.6642746128609995 0.6642746128609995 -0.0077134573461751	-0.547324
F	0.6642746128609995 0.8357253871390005 0.0077134783461733	-0.547325
F	0.8357253871390005 0.6642746128609995 0.0077134783461733	-0.547325
N	0.4077153892397750 0.2500000000000000 0.5000000000000000	-0.203749
N	0.0922846107602251 0.2500000000000000 0.5000000000000000	-0.203749
N	0.2500000000000000 0.4077153892397750 0.5000000000000000	-0.203749
N	0.2500000000000000 0.0922846107602251 0.5000000000000000	-0.203748
N	0.9077153892397752 0.2500000000000000 0.5000000000000000	-0.203752
N	0.5922846107602248 0.2500000000000000 0.5000000000000000	-0.203751
N	0.7500000340000028 0.4077153892397750 0.5000000000000000	-0.203750
N	0.7500000340000028 0.0922846107602251 0.5000000000000000	-0.203749
N	0.4077153892397750 0.7500000340000028 0.5000000000000000	-0.203748
N	0.0922846107602251 0.7500000340000028 0.5000000000000000	-0.203748
N	0.2500000000000000 0.9077153892397752 0.5000000000000000	-0.203753
N	0.2500000000000000 0.5922846107602249 0.5000000000000000	-0.203752
N	0.9077153892397752 0.7500000340000028 0.5000000000000000	-0.203753
N	0.5922846107602249 0.7500000340000028 0.5000000000000000	-0.203752
N	0.7500000340000028 0.9077153892397752 0.5000000000000000	-0.203752
N	0.7500000340000028 0.5922846107602248 0.5000000000000000	-0.203751
	  	
