#======================================================================

# CRYSTAL DATA

#----------------------------------------------------------------------

data_VESTA_phase_1


_pd_phase_name                         GeFSIX_4_Ni_i
_cell_length_a                         23.58620
_cell_length_b                         20.52474
_cell_length_c                         9.33826
_cell_angle_alpha                      90
_cell_angle_beta                       90
_cell_angle_gamma                      90
_symmetry_space_group_name_H-M         P 1
_symmetry_Int_Tables_number            1

loop_
_symmetry_equiv_pos_as_xyz
   x, y, z

loop_
   _atom_site_label
   _atom_site_fract_x
   _atom_site_fract_y
   _atom_site_fract_z
   _atom_site_charge
C	0.4164278029515652 0.5969777979254052 0.6273233281362286	0.096772
C	0.3728018831074071 0.5516498685317642 0.6252648653096590	-0.170925
C	0.2768692209823871 0.4487020384393364 0.6244439601150571	-0.117005
C	0.2310389047642988 0.4062844280740793 0.6232415173996853	-0.112238
C	0.1301907048444833 0.3196474331960945 0.6220476069332554	-0.166732
C	0.0838175082745698 0.2780883208102043 0.6255184303423507	0.090981
C	0.9164278859515613 0.0969778089254095 0.6273233281362286	0.096772
C	0.8728018411074107 0.0516498105317665 0.6252648653096590	-0.170923
C	0.7768692419823922 0.9487020854393363 0.6244439601150571	-0.116984
C	0.7310388847642977 0.9062844740740762 0.6232415173996853	-0.112243
C	0.6301907048444831 0.8196474801960953 0.6220476069332554	-0.166805
C	0.5838174932745648 0.7780884138102017 0.6255184303423507	0.090986
C	0.5835721970484349 0.4030221560745912 0.1273233361362295	0.096772
C	0.6271981588925893 0.4483501774682397 0.1252648803096572	-0.170926
C	0.7231307580176078 0.5512979145606637 0.1244439681150574	-0.116997
C	0.7689611152357023 0.5937155719259205 0.1232415253996857	-0.112250
C	0.8698092951555169 0.6803525668039050 0.1220476139332599	-0.166804
C	0.9161825067254352 0.7219116331897987 0.1255184453423485	0.090986
C	0.0835722080484393 0.9030222490745952 0.1273233361362294	0.096772
C	0.1271981168925929 0.9483500854682391 0.1252648803096572	-0.170926
C	0.2231308000176110 0.0512979615606637 0.1244439681150574	-0.117003
C	0.2689610742357029 0.0937155489259222 0.1232415253996857	-0.112242
C	0.3698093371555205 0.1803525778039027 0.1220476139332599	-0.166801
C	0.4161825067254349 0.2219117031897976 0.1255184453423485	0.090983
C	0.5835721970484349 0.5969777979254052 0.8726766408637724	0.096772
C	0.6271981588925893 0.5516498685317642 0.8747351036903420	-0.170925
C	0.7231307580176078 0.4487020384393364 0.8755560708849419	-0.116991
C	0.7689611152357023 0.4062844280740793 0.8767585136003138	-0.112244
C	0.8698092951555169 0.3196474331960945 0.8779524240667436	-0.166803
C	0.9161825067254352 0.2780883208102043 0.8744816006576484	0.090983
C	0.0835722080484393 0.0969778089254095 0.8726766408637724	0.096772
C	0.1271981168925929 0.0516498105317665 0.8747351036903420	-0.170924
C	0.2231308000176110 0.9487020854393363 0.8755560708849419	-0.116970
C	0.2689610742357029 0.9062844740740762 0.8767585136003138	-0.112239
C	0.3698093371555205 0.8196474801960953 0.8779524240667436	-0.166806
C	0.4161825067254349 0.7780884138102017 0.8744816006576484	0.090987
C	0.4164278029515652 0.4030221560745912 0.3726766718637712	0.096772
C	0.3728018831074071 0.4483501774682397 0.3747351036903412	-0.170926
C	0.2768692209823871 0.5512979145606637 0.3755560398849433	-0.116993
C	0.2310389047642988 0.5937155719259205 0.3767584516003160	-0.112259
C	0.1301907048444833 0.6803525668039050 0.3779523620667382	-0.166735
C	0.0838175082745698 0.7219116331897987 0.3744815386576501	0.090983
C	0.9164278859515613 0.9030222490745952 0.3726766718637712	0.096772
C	0.8728018411074107 0.9483500854682391 0.3747351036903412	-0.170925
C	0.7768692419823922 0.0512979615606637 0.3755560398849433	-0.117003
C	0.7310388847642977 0.0937155489259222 0.3767584516003160	-0.112248
C	0.6301907048444831 0.1803525778039027 0.3779523620667382	-0.166802
C	0.5838174932745648 0.2219117031897976 0.3744815386576501	0.090983
C	0.5835721970484349 0.4030221560745912 0.3726766718637712	0.096773
C	0.6271981588925893 0.4483501774682397 0.3747351036903412	-0.170926
C	0.7231307580176078 0.5512979145606637 0.3755560398849433	-0.116997
C	0.7689611152357023 0.5937155719259205 0.3767584516003160	-0.112250
C	0.8698092951555169 0.6803525668039050 0.3779523620667382	-0.166805
C	0.9161825067254352 0.7219116331897987 0.3744815386576501	0.090985
C	0.0835722080484393 0.9030222490745952 0.3726766718637712	0.096773
C	0.1271981168925929 0.9483500854682391 0.3747351036903412	-0.170926
C	0.2231308000176110 0.0512979615606637 0.3755560398849433	-0.117003
C	0.2689610742357029 0.0937155489259222 0.3767584516003160	-0.112242
C	0.3698093371555205 0.1803525778039027 0.3779523620667382	-0.166803
C	0.4161825067254349 0.2219117031897976 0.3744815386576501	0.090983
C	0.4164278029515652 0.5969777979254052 0.8726766408637724	0.096772
C	0.3728018831074071 0.5516498685317642 0.8747351036903420	-0.170925
C	0.2768692209823871 0.4487020384393364 0.8755560708849419	-0.116991
C	0.2310389047642988 0.4062844280740794 0.8767585136003138	-0.112239
C	0.1301907048444833 0.3196474331960945 0.8779524240667436	-0.166734
C	0.0838175082745698 0.2780883208102043 0.8744816006576484	0.090980
C	0.9164278859515613 0.0969778089254095 0.8726766408637724	0.096772
C	0.8728018411074107 0.0516498105317665 0.8747351036903420	-0.170923
C	0.7768692419823922 0.9487020854393363 0.8755560708849419	-0.116970
C	0.7310388847642977 0.9062844740740762 0.8767585136003138	-0.112244
C	0.6301907048444831 0.8196474801960953 0.8779524240667436	-0.166807
C	0.5838174932745648 0.7780884138102017 0.8744816006576484	0.090986
C	0.4164278029515652 0.4030221560745912 0.1273233361362295	0.096773
C	0.3728018831074071 0.4483501774682397 0.1252648803096572	-0.170926
C	0.2768692209823871 0.5512979145606637 0.1244439681150574	-0.116993
C	0.2310389047642988 0.5937155719259205 0.1232415253996857	-0.112259
C	0.1301907048444833 0.6803525668039050 0.1220476139332599	-0.166737
C	0.0838175082745698 0.7219116331897987 0.1255184453423485	0.090983
C	0.9164278859515613 0.9030222490745952 0.1273233361362295	0.096773
C	0.8728018411074107 0.9483500854682391 0.1252648803096572	-0.170926
C	0.7768692419823922 0.0512979615606637 0.1244439681150574	-0.117003
C	0.7310388847642977 0.0937155489259221 0.1232415253996857	-0.112248
C	0.6301907048444831 0.1803525778039027 0.1220476139332599	-0.166804
C	0.5838174932745648 0.2219117031897976 0.1255184453423485	0.090983
C	0.5835721970484349 0.5969777979254052 0.6273233281362286	0.096773
C	0.6271981588925893 0.5516498685317642 0.6252648653096590	-0.170925
C	0.7231307580176078 0.4487020384393364 0.6244439601150571	-0.117005
C	0.7689611152357023 0.4062844280740794 0.6232415173996853	-0.112243
C	0.8698092951555169 0.3196474331960945 0.6220476069332554	-0.166805
C	0.9161825067254352 0.2780883208102043 0.6255184303423507	0.090983
C	0.0835722080484393 0.0969778089254095 0.6273233281362286	0.096773
C	0.1271981168925929 0.0516498105317665 0.6252648653096590	-0.170923
C	0.2231308000176110 0.9487020854393363 0.6244439601150571	-0.116984
C	0.2689610742357029 0.9062844740740762 0.6232415173996853	-0.112238
C	0.3698093371555205 0.8196474801960953 0.6220476069332554	-0.166808
C	0.4161825067254349 0.7780884138102017 0.6255184303423507	0.090986
C	0.3484178371470321 0.5247530618603941 0.7500000149999977	0.117514
C	0.3014710226553817 0.4746515213320250 0.7500000149999977	0.070174
C	0.2054246066458723 0.3845771061709277 0.7500000149999977	0.066379
C	0.1554132492954197 0.3412470376638240 0.7500000149999977	0.102231
C	0.8484177951470355 0.0247530448603965 0.7500000149999977	0.117494
C	0.8014710846553804 0.9746514743320243 0.7500000149999977	0.070154
C	0.7054246066458723 0.8845771291709260 0.7500000149999977	0.066383
C	0.6554132492954193 0.8412469686638220 0.7500000149999977	0.102262
C	0.6515821628529681 0.4752469841396024 0.2500000000000000	0.117514
C	0.6985289153446196 0.5253484786679754 0.2500000000000000	0.070177
C	0.7945753933541277 0.6154229178290743 0.2500000000000000	0.066411
C	0.8445867917045876 0.6587529393361775 0.2500000000000000	0.102255
C	0.1515821738529653 0.9752470311396030 0.2500000000000000	0.117514
C	0.1985289983446165 0.0253484816679719 0.2500000000000000	0.070178
C	0.2945753933541276 0.1154228708290739 0.2500000000000000	0.066401
C	0.3445867507045802 0.1587529733361805 0.2500000000000000	0.102254
C	0.6515821628529681 0.5247530618603941 0.7500000149999977	0.117514
C	0.6985289153446196 0.4746515213320250 0.7500000149999977	0.070175
C	0.7945753933541277 0.3845771061709277 0.7500000149999977	0.066382
C	0.8445867917045876 0.3412470376638240 0.7500000149999977	0.102261
C	0.1515821738529653 0.0247530448603965 0.7500000149999977	0.117494
C	0.1985289983446165 0.9746514743320243 0.7500000149999977	0.070153
C	0.2945753933541276 0.8845771291709260 0.7500000149999977	0.066379
C	0.3445867507045803 0.8412469686638220 0.7500000149999977	0.102261
C	0.3484178371470321 0.4752469841396023 0.2500000000000000	0.117514
C	0.3014710226553817 0.5253484786679754 0.2500000000000000	0.070176
C	0.2054246066458723 0.6154229178290743 0.2500000000000000	0.066412
C	0.1554132492954197 0.6587529393361775 0.2500000000000000	0.102225
C	0.8484177951470355 0.9752470311396030 0.2500000000000000	0.117514
C	0.8014710846553804 0.0253484816679719 0.2500000000000000	0.070179
C	0.7054246066458723 0.1154228708290739 0.2500000000000000	0.066405
C	0.6554132492954193 0.1587529733361805 0.2500000000000000	0.102255
H	0.4340418705047644 0.6157721886579739 0.5271679147879464	0.115562
H	0.3598332442950777 0.5393427524292971 0.5185637782127058	0.108236
H	0.2928314252597375 0.4603569375793312 0.5198785559233963	0.087425
H	0.2156675203946637 0.3902984831816499 0.5190851241843485	0.104689
H	0.1462226534890668 0.3340357164202998 0.5175573446217134	0.122839
H	0.0641130747052004 0.2601165191397984 0.5271150850288383	0.115144
H	0.9340418285047610 0.1157722236579731 0.5271679147879464	0.115562
H	0.8598332032950778 0.0393426884292918 0.5185637782127058	0.108235
H	0.7928314042597394 0.9603569375793312 0.5198785559233963	0.087423
H	0.7156674783946598 0.8902984141816547 0.5190851241843485	0.104692
H	0.6462226434890654 0.8340357164203006 0.5175573446217134	0.122850
H	0.5641131057051995 0.7601164961398000 0.5271150850288383	0.115165
H	0.5659581294952355 0.3842278113420263 0.0271679767879445	0.115563
H	0.6401667557049223 0.4606572945707031 0.0185637782127059	0.108236
H	0.7071685957402606 0.5396430164206650 0.0198786179233942	0.087424
H	0.7843325216053402 0.6097014938183448 0.0190850631843468	0.104687
H	0.8537773565109346 0.6659642375796956 0.0175573446217134	0.122849
H	0.9358868532948007 0.7398835038602000 0.0271150540288390	0.115164
H	0.0659581354952362 0.8842278113420261 0.0271679767879445	0.115563
H	0.1401667967049223 0.9606572945707033 0.0185637782127059	0.108236
H	0.2071685957402607 0.0396430594206650 0.0198786179233942	0.087424
H	0.2843324796053361 0.1097015278183474 0.0190850631843468	0.104690
H	0.3537773565109341 0.1659642605796945 0.0175573446217134	0.122849
H	0.4358868942948005 0.2398834808602017 0.0271150540288390	0.115169
H	0.5659581294952355 0.6157721886579739 -0.0271679337879444	0.115562
H	0.6401667557049223 0.5393427524292971 -0.0185638052127118	0.108236
H	0.7071685957402606 0.4603569375793312 -0.0198785739233907	0.087423
H	0.7843325216053402 0.3902984831816499 -0.0190851171843442	0.104694
H	0.8537773565109346 0.3340357164202998 -0.0175573446217136	0.122851
H	0.9358868532948007 0.2601165191397984 -0.0271150920288423	0.115169
H	0.0659581354952362 0.1157722236579731 -0.0271679337879444	0.115563
H	0.1401667967049223 0.0393426884292918 -0.0185638052127118	0.108235
H	0.2071685957402607 0.9603569375793312 -0.0198785739233907	0.087422
H	0.2843324796053361 0.8902984141816547 -0.0190851171843442	0.104692
H	0.3537773565109341 0.8340357164203006 -0.0175573446217136	0.122850
H	0.4358868942948005 0.7601164961398000 -0.0271150920288423	0.115164
H	0.4340418705047644 0.3842278113420263 0.4728320542120545	0.115562
H	0.3598332442950777 0.4606572945707031 0.4814362527872932	0.108236
H	0.2928314252597375 0.5396430164206650 0.4801214130766047	0.087424
H	0.2156675203946637 0.6097014938183448 0.4809148448156528	0.104695
H	0.1462226534890668 0.6659642375796956 0.4824426243782876	0.122837
H	0.0641130747052004 0.7398835038602000 0.4728849149711618	0.115139
H	0.9340418285047610 0.8842278113420261 0.4728320542120545	0.115562
H	0.8598332032950778 0.9606572945707033 0.4814362527872932	0.108236
H	0.7928314042597394 0.0396430594206650 0.4801214130766046	0.087424
H	0.7156674783946598 0.1097015278183474 0.4809148448156528	0.104692
H	0.6462226434890654 0.1659642605796945 0.4824426243782876	0.122850
H	0.5641131057051995 0.2398834808602017 0.4728849149711618	0.115169
H	0.5659581294952355 0.3842278113420263 0.4728320542120545	0.115562
H	0.6401667557049223 0.4606572945707031 0.4814362527872932	0.108236
H	0.7071685957402606 0.5396430164206650 0.4801214130766047	0.087424
H	0.7843325216053402 0.6097014938183448 0.4809148448156528	0.104687
H	0.8537773565109346 0.6659642375796956 0.4824426243782876	0.122849
H	0.9358868532948007 0.7398835038602000 0.4728849149711618	0.115164
H	0.0659581354952362 0.8842278113420261 0.4728320542120545	0.115563
H	0.1401667967049223 0.9606572945707033 0.4814362527872932	0.108236
H	0.2071685957402607 0.0396430594206650 0.4801214130766046	0.087424
H	0.2843324796053361 0.1097015278183474 0.4809148448156528	0.104690
H	0.3537773565109341 0.1659642605796945 0.4824426243782876	0.122849
H	0.4358868942948005 0.2398834808602017 0.4728849149711618	0.115169
H	0.4340418705047644 0.6157721886579739 -0.0271679337879444	0.115562
H	0.3598332442950777 0.5393427524292971 -0.0185638052127118	0.108236
H	0.2928314252597375 0.4603569375793312 -0.0198785739233907	0.087423
H	0.2156675203946637 0.3902984831816499 -0.0190851171843442	0.104693
H	0.1462226534890668 0.3340357164202998 -0.0175573446217136	0.122838
H	0.0641130747052004 0.2601165191397984 -0.0271150920288423	0.115144
H	0.9340418285047610 0.1157722236579731 -0.0271679337879444	0.115562
H	0.8598332032950778 0.0393426884292918 -0.0185638052127118	0.108235
H	0.7928314042597394 0.9603569375793312 -0.0198785739233907	0.087422
H	0.7156674783946598 0.8902984141816547 -0.0190851171843442	0.104695
H	0.6462226434890654 0.8340357164203006 -0.0175573446217136	0.122850
H	0.5641131057051995 0.7601164961398000 -0.0271150920288423	0.115165
H	0.4340418705047644 0.3842278113420263 0.0271679767879445	0.115563
H	0.3598332442950777 0.4606572945707031 0.0185637782127059	0.108236
H	0.2928314252597375 0.5396430164206650 0.0198786179233942	0.087424
H	0.2156675203946637 0.6097014938183448 0.0190850631843468	0.104696
H	0.1462226534890668 0.6659642375796956 0.0175573446217134	0.122837
H	0.0641130747052004 0.7398835038602000 0.0271150540288390	0.115139
H	0.9340418285047610 0.8842278113420261 0.0271679767879445	0.115563
H	0.8598332032950778 0.9606572945707033 0.0185637782127059	0.108236
H	0.7928314042597394 0.0396430594206650 0.0198786179233942	0.087424
H	0.7156674783946598 0.1097015278183474 0.0190850631843468	0.104692
H	0.6462226434890654 0.1659642605796945 0.0175573446217134	0.122850
H	0.5641131057051995 0.2398834808602017 0.0271150540288390	0.115170
H	0.5659581294952355 0.6157721886579739 0.5271679147879464	0.115562
H	0.6401667557049223 0.5393427524292971 0.5185637782127058	0.108236
H	0.7071685957402606 0.4603569375793312 0.5198785559233963	0.087424
H	0.7843325216053402 0.3902984831816499 0.5190851241843485	0.104692
H	0.8537773565109346 0.3340357164202998 0.5175573446217134	0.122850
H	0.9358868532948007 0.2601165191397983 0.5271150850288383	0.115170
H	0.0659581354952362 0.1157722236579731 0.5271679147879464	0.115563
H	0.1401667967049223 0.0393426884292918 0.5185637782127058	0.108235
H	0.2071685957402607 0.9603569375793312 0.5198785559233963	0.087424
H	0.2843324796053361 0.8902984141816547 0.5190851241843485	0.104690
H	0.3537773565109341 0.8340357164203006 0.5175573446217134	0.122849
H	0.4358868942948005 0.7601164961398000 0.5271150850288383	0.115164
Ni	0.5000000000000000 0.6884923228194083 0.7500000149999977	0.454752
Ni	0.0000000000000000 0.1884923808194062 0.7500000149999977	0.454750
Ni	0.5000000000000000 0.3115076071805927 0.2500000000000000	0.454748
Ni	0.0000000000000000 0.8115076771805917 0.2500000000000000	0.454754
F	0.5000000000000000 0.6856786987150072 0.4591937449646753	-0.567076
F	0.0000000000000000 0.1856787337150070 0.4591937449646753	-0.567080
F	0.5000000000000000 0.3143212782849868 0.9591937449646748	-0.567082
F	0.0000000000000000 0.8143213012849928 0.9591937449646748	-0.567074
F	0.5000000000000000 0.6856786987150072 0.0408062410353237	-0.567076
F	0.0000000000000000 0.1856787337150070 0.0408062410353237	-0.567080
F	0.5000000000000000 0.3143212782849868 0.5408062250353227	-0.567081
F	0.0000000000000000 0.8143213012849928 0.5408062250353227	-0.567074
F	0.4454014724706808 0.7475680908668577 0.2500000000000000	-0.566422
F	0.5544539174173320 0.6227290602141275 0.2500000000000000	-0.559892
F	0.9454014724706806 0.2475680908668579 0.2500000000000000	-0.566422
F	0.0544539384173375 0.1227290602141277 0.2500000000000000	-0.559886
F	0.5545984865293195 0.2524318861331438 0.7500000149999977	-0.566452
F	0.4455460825826679 0.3772709397858723 0.7500000149999977	-0.559892
F	0.0545985385293236 0.7524319091331423 0.7500000149999977	-0.566421
F	0.9455460825826680 0.8772709397858725 0.7500000149999977	-0.559886
F	0.5545984865293195 0.7475680908668577 0.2500000000000000	-0.566453
F	0.4455460825826679 0.6227290602141275 0.2500000000000000	-0.559892
F	0.0545985385293236 0.2475680908668579 0.2500000000000000	-0.566421
F	0.9455460825826680 0.1227290602141277 0.2500000000000000	-0.559886
F	0.4454014724706808 0.2524318861331438 0.7500000149999977	-0.566421
F	0.5544539174173320 0.3772709397858723 0.7500000149999977	-0.559892
F	0.9454014724706806 0.7524319091331423 0.7500000149999977	-0.566422
F	0.0544539384173375 0.8772709397858725 0.7500000149999977	-0.559886
N	0.4387373920254682 0.6196326559115122 0.7500000149999977	-0.157848
N	0.5613271287856544 0.7571182617969505 0.7500000149999977	-0.165862
N	0.9387373510254613 0.1196326439115110 0.7500000149999977	-0.157848
N	0.0613271027856523 0.2571182387969445 0.7500000149999977	-0.165899
N	0.5612626079745318 0.3803673440884880 0.2500000000000000	-0.157847
N	0.4386728712143456 0.2428817612030554 0.2500000000000000	-0.165865
N	0.0612626079745318 0.8803673440884878 0.2500000000000000	-0.157848
N	0.9386729122143455 0.7428817382030495 0.2500000000000000	-0.165862
N	0.5612626079745318 0.6196326559115122 0.7500000149999977	-0.157849
N	0.4386728712143456 0.7571182617969505 0.7500000149999977	-0.165862
N	0.0612626079745318 0.1196326439115110 0.7500000149999977	-0.157847
N	0.9386729122143455 0.2571182387969445 0.7500000149999977	-0.165866
N	0.4387373920254682 0.3803673440884880 0.2500000000000000	-0.157848
N	0.5613271287856544 0.2428817612030554 0.2500000000000000	-0.165865
N	0.9387373510254613 0.8803673440884878 0.2500000000000000	-0.157849
N	0.0613271027856523 0.7428817382030495 0.2500000000000000	-0.165896
Ge	0.5000000000000000 0.6853152820086196 0.2500000000000000	1.767952
Ge	0.0000000000000000 0.1853153060086218 0.2500000000000000	1.767907
Ge	0.5000000000000000 0.3146846709913797 0.7500000149999977	1.767954
Ge	0.0000000000000000 0.8146847179913804 0.7500000149999977	1.767905
	  	
