#======================================================================

# CRYSTAL DATA

#----------------------------------------------------------------------

data_VESTA_phase_1


_pd_phase_name                         GeFSIX_2_Cd
_cell_length_a                         14.29621
_cell_length_b                         14.29621
_cell_length_c                         8.15775
_cell_angle_alpha                      90
_cell_angle_beta                       90
_cell_angle_gamma                      90
_symmetry_space_group_name_H-M         P 1
_symmetry_Int_Tables_number            1

loop_
_symmetry_equiv_pos_as_xyz
   x, y, z

loop_
   _atom_site_label
   _atom_site_fract_x
   _atom_site_fract_y
   _atom_site_fract_z
   _atom_site_charge
C	0.5301070568033351 0.7105442646854937 0.1326936843086764	0.101956
C	0.5312907104722017 0.8076794514987526 0.1376369782917969	-0.165093
C	0.4698930131966635 0.2894557353145066 0.1326936843086764	0.101953
C	0.4687092545277988 0.1923205305012458 0.1376369782917969	-0.165090
C	0.2894557353145066 0.5301070568033351 0.1326936843086764	0.101956
C	0.1923205305012458 0.5312907104722017 0.1376369782917969	-0.165093
C	0.7105442646854937 0.4698930131966635 0.1326936843086764	0.101954
C	0.8076794514987526 0.4687092545277988 0.1376369782917969	-0.165090
C	0.4698930131966635 0.7105442646854937 0.8673063156913234	0.101956
C	0.4687092545277988 0.8076794514987526 0.8623629917082009	-0.165092
C	0.5301070568033351 0.2894557353145066 0.8673063156913234	0.101954
C	0.5312907104722017 0.1923205305012458 0.8623629917082009	-0.165090
C	0.7105442646854937 0.5301070568033351 0.8673063156913234	0.101954
C	0.8076794514987526 0.5312907104722017 0.8623629917082009	-0.165090
C	0.2894557353145066 0.4698930131966635 0.8673063156913234	0.101956
C	0.1923205305012458 0.4687092545277988 0.8623629917082009	-0.165092
C	0.5000000000000000 0.1416857717737973 -0.0000000000000000	0.170070
C	0.5000000000000000 0.0426298373852678 -0.0000000000000000	-0.093870
C	0.5000000000000000 0.8583142282262028 -0.0000000000000000	0.170040
C	0.5000000000000000 0.9573701056147382 -0.0000000000000000	-0.093629
C	0.8583142282262028 0.5000000000000000 -0.0000000000000000	0.170070
C	0.9573701056147382 0.5000000000000000 -0.0000000000000000	-0.093871
C	0.1416857717737973 0.5000000000000000 -0.0000000000000000	0.170040
C	0.0426298373852678 0.5000000000000000 -0.0000000000000000	-0.093628
H	0.5530710424888767 0.6689745302559263 0.2377651116900880	0.103071
H	0.5562275766568356 0.8439127553768889 0.2464761017513224	0.128199
H	0.4469289575111234 0.3310253997440751 0.2377651116900880	0.103071
H	0.4437724583431636 0.1560871746231127 0.2464761017513224	0.128200
H	0.3310253997440751 0.5530710424888767 0.2377651116900880	0.103071
H	0.1560871746231127 0.5562275766568356 0.2464761017513224	0.128198
H	0.6689745302559263 0.4469289575111234 0.2377651116900880	0.103071
H	0.8439127553768889 0.4437724583431636 0.2464761017513224	0.128200
H	0.4469289575111234 0.6689745302559263 0.7622348883099123	0.103071
H	0.4437724583431636 0.8439127553768889 0.7535239282486801	0.128198
H	0.5530710424888767 0.3310253997440751 0.7622348883099123	0.103071
H	0.5562275766568356 0.1560871746231127 0.7535239282486801	0.128199
H	0.6689745302559263 0.5530710424888767 0.7622348883099123	0.103071
H	0.8439127553768889 0.5562275766568356 0.7535239282486801	0.128199
H	0.3310253997440751 0.4469289575111234 0.7622348883099123	0.103071
H	0.1560871746231127 0.4437724583431636 0.7535239282486801	0.128198
Cd	0.5000000000000000 0.5000000000000000 -0.0000000000000000	0.824670
Ge	0.5000000000000000 0.5000000000000000 0.5000000000000000	1.786475
F	0.5000000000000000 0.5000000000000000 0.7270916362964546	-0.521452
F	0.5000000000000000 0.5000000000000000 0.2729083937035406	-0.521452
F	0.5902540803846554 0.5902540803846554 0.5000000000000000	-0.563320
F	0.4097459546153436 0.5902540803846554 0.5000000000000000	-0.563320
F	0.4097459546153436 0.4097459546153436 0.5000000000000000	-0.563320
F	0.5902540803846554 0.4097459546153436 0.5000000000000000	-0.563320
N	0.5000000000000000 0.3368639584169399 -0.0000000000000000	-0.241311
N	0.5000000000000000 0.6631360065830609 -0.0000000000000000	-0.241311
N	0.6631360065830609 0.5000000000000000 -0.0000000000000000	-0.241311
N	0.3368639584169399 0.5000000000000000 -0.0000000000000000	-0.241311
	  	
