#======================================================================

# CRYSTAL DATA

#----------------------------------------------------------------------

data_VESTA_phase_1


_pd_phase_name                         GeFSIX_7_Cd
_cell_length_a                         19.84640
_cell_length_b                         19.84640
_cell_length_c                         8.33509
_cell_angle_alpha                      90
_cell_angle_beta                       90
_cell_angle_gamma                      90
_symmetry_space_group_name_H-M         P 1
_symmetry_Int_Tables_number            1

loop_
_symmetry_equiv_pos_as_xyz
   x, y, z

loop_
   _atom_site_label
   _atom_site_fract_x
   _atom_site_fract_y
   _atom_site_fract_z
   _atom_site_charge
C	0.6488549995809502 0.8666322326374890 0.7058141601131210	0.100381
C	0.5989356963283899 0.9158439628565365 0.7063188212329976	-0.177943
C	0.5878173555828337 0.9010721648664766 0.4221621961077479	-0.168746
C	0.6378894164499036 0.8524442094046677 0.4304302129307079	0.093569
C	0.8511450004190498 0.6333677673625110 0.7058141601131210	0.100381
C	0.9010643536716071 0.5841560881434642 0.7063188212329976	-0.177943
C	0.9121825434171686 0.5989278861335170 0.4221621961077479	-0.168745
C	0.8621105835500964 0.6475557905953322 0.4304302129307079	0.093568
C	0.6333677673625110 0.6488549995809502 0.7058141601131210	0.100381
C	0.5841560881434642 0.5989356963283899 0.7063188212329976	-0.177943
C	0.5989278861335170 0.5878173555828337 0.4221621961077479	-0.168745
C	0.6475557905953323 0.6378894164499036 0.4304302129307079	0.093569
C	0.8666322326374890 0.8511450004190498 0.7058141601131210	0.100381
C	0.9158439628565365 0.9010643536716071 0.7063188212329976	-0.177943
C	0.9010721648664767 0.9121825434171686 0.4221621961077479	-0.168745
C	0.8524442094046677 0.8621105835500964 0.4304302129307079	0.093569
C	0.3511449754190509 0.3666321826374848 0.2941858698868818	0.100381
C	0.4010643036716101 0.4158439628565361 0.2936812087670050	-0.177942
C	0.4121826444171668 0.4010721138664836 0.5778378038922517	-0.168745
C	0.3621105325501026 0.3524442094046682 0.5695698170692947	0.093569
C	0.1488550245809490 0.1333678043625179 0.2941858698868818	0.100381
C	0.0989356963283900 0.0841560371434641 0.2936812087670050	-0.177942
C	0.0878173365828282 0.0989278861335167 0.5778378038922517	-0.168746
C	0.1378894674498973 0.1475557785953308 0.5695698170692947	0.093569
C	0.3666321826374848 0.1488550245809490 0.2941858698868818	0.100381
C	0.4158439628565361 0.0989356963283900 0.2936812087670050	-0.177942
C	0.4010721138664836 0.0878173365828282 0.5778378038922517	-0.168745
C	0.3524442094046682 0.1378894674498973 0.5695698170692947	0.093569
C	0.1333678043625179 0.3511449754190509 0.2941858698868818	0.100381
C	0.0841560371434641 0.4010643036716101 0.2936812087670050	-0.177942
C	0.0989278861335167 0.4121826444171668 0.5778378038922517	-0.168745
C	0.1475557785953308 0.3621105325501026 0.5695698170692947	0.093569
C	0.4345268764098749 0.0669558067455520 0.4375432129306653	0.139929
C	0.4862887992004869 0.0149620061616407 0.4348910853348398	-0.118437
C	0.0654731235901252 0.4330441862544511 0.4375432129306653	0.139929
C	0.0137111687995105 0.4850379298383612 0.4348910853348398	-0.118437
C	0.4330441862544511 0.4345268764098749 0.4375432129306653	0.139929
C	0.4850379298383611 0.4862887992004869 0.4348910853348398	-0.118437
C	0.0669558067455520 0.0654731235901252 0.4375432129306653	0.139930
C	0.0149620061616407 0.0137111687995105 0.4348910853348398	-0.118437
C	0.5654731235901250 0.5669558137455487 0.5624567870693344	0.139928
C	0.5137112517995066 0.5149620201616348 0.5651089436651592	-0.118420
C	0.9345268264098779 0.9330441362544470 0.5624567870693344	0.139928
C	0.9862887992004870 0.9850380308383658 0.5651089436651592	-0.118419
C	0.5669558137455488 0.9345268264098779 0.5624567870693344	0.139928
C	0.5149620201616348 0.9862887992004870 0.5651089436651592	-0.118420
C	0.9330441362544470 0.5654731235901250 0.5624567870693344	0.139928
C	0.9850380308383658 0.5137112517995066 0.5651089436651592	-0.118420
H	0.6734576615888344 0.8511707338492897 0.8170901256110910	0.102742
H	0.5850740653188650 0.9399170838233959 0.8192886836306789	0.115121
H	0.5653087795819890 0.9118567097602981 0.3058162734439765	0.117330
H	0.6547883623232149 0.8263705565373397 0.3223763104391648	0.100269
H	0.8265423384111656 0.6488292661507103 0.8170901256110910	0.102742
H	0.9149259346811350 0.5600829671766048 0.8192886836306789	0.115121
H	0.9346912714180117 0.5881433412397026 0.3058162734439765	0.117330
H	0.8452116376767851 0.6736294434626603 0.3223763104391648	0.100269
H	0.6488292661507103 0.6734576615888344 0.8170901256110910	0.102742
H	0.5600829671766048 0.5850740653188650 0.8192886836306789	0.115120
H	0.5881433412397026 0.5653087795819890 0.3058162734439765	0.117330
H	0.6736294434626603 0.6547883623232149 0.3223763104391648	0.100269
H	0.8511707338492897 0.8265423384111656 0.8170901256110910	0.102742
H	0.9399170838233959 0.9149259346811350 0.8192886836306789	0.115120
H	0.9118567097602981 0.9346912714180117 0.3058162734439765	0.117330
H	0.8263705565373397 0.8452116376767851 0.3223763104391648	0.100269
H	0.3265423644111680 0.3511706578492903 0.1829098593889117	0.102742
H	0.4149258586811284 0.4399170328233948 0.1807112723693172	0.115120
H	0.4346912714180118 0.4118567097602983 0.6941836965560277	0.117330
H	0.3452116626767912 0.3263705825373418 0.6776236895608355	0.100269
H	0.1734576485888298 0.1488293681507118 0.1829098593889117	0.102742
H	0.0850741163188659 0.0600829831766065 0.1807112723693172	0.115120
H	0.0653087225819879 0.0881433162397038 0.6941836965560277	0.117330
H	0.1547883623232142 0.1736294054626570 0.6776236895608355	0.100269
H	0.3511706578492903 0.1734576485888298 0.1829098593889117	0.102742
H	0.4399170328233948 0.0850741163188659 0.1807112723693172	0.115120
H	0.4118567097602983 0.0653087225819879 0.6941836965560277	0.117330
H	0.3263705825373418 0.1547883623232142 0.6776236895608355	0.100268
H	0.1488293681507118 0.3265423644111680 0.1829098593889117	0.102742
H	0.0600829831766065 0.4149258586811284 0.1807112723693172	0.115120
H	0.0881433162397038 0.4346912714180118 0.6941836965560277	0.117330
H	0.1736294054626570 0.3452116626767912 0.6776236895608355	0.100268
H	0.5031926222654411 -0.0000535296236836 0.3151465642666965	0.099985
H	0.9968074287345595 0.5000535016236813 0.3151465642666965	0.099985
H	0.5000535016236813 0.5031926222654411 0.3151465642666965	0.099985
H	-0.0000535296236836 0.9968074287345595 0.3151465642666965	0.099985
H	0.4968073777345589 0.4999464483763216 0.6848534657332992	0.099983
H	0.0031926132654437 0.0000535016236812 0.6848534657332992	0.099983
H	0.4999464483763216 0.0031926132654437 0.6848534657332992	0.099983
H	0.0000535016236812 0.4968073777345589 0.6848534657332992	0.099983
Cd	0.2500000000000000 0.2500000000000000 0.4292468338544768	0.826709
Cd	0.7500000000000000 0.7500000000000000 0.5707531661455236	0.826708
Ge	0.2500000000000000 0.2500000000000000 0.9312170376090109	1.771318
Ge	0.7500000000000000 0.7500000000000000 0.0687829473909920	1.771318
F	0.2500000000000000 0.2500000000000000 0.1552626348826214	-0.523277
F	0.2500000000000000 0.2500000000000000 0.7058821543543340	-0.524344
F	0.7500000000000000 0.7500000000000000 0.8447373951173809	-0.523277
F	0.7500000000000000 0.7500000000000000 0.2941178456456667	-0.524344
F	0.3154269388822824 0.3144310579361828 0.9311470769977864	-0.547872
F	0.1845730861177160 0.1855689670638160 0.9311470769977864	-0.547872
F	0.1855689670638160 0.3154269388822824 0.9311470769977864	-0.547872
F	0.3144310579361828 0.1845730861177160 0.9311470769977864	-0.547872
F	0.6845730861177158 0.8144310579361819 0.0688529230022138	-0.547872
F	0.8154269138822842 0.6855689420638181 0.0688529230022138	-0.547872
F	0.8144310579361819 0.8154269138822842 0.0688529230022138	-0.547872
F	0.6855689420638181 0.6845730861177158 0.0688529230022138	-0.547872
N	0.3353635746206535 0.1680646109351766 0.4301845004870136	-0.243937
N	0.1646364503793451 0.3319354140648217 0.4301845004870136	-0.243937
N	0.3319354140648217 0.3353635746206535 0.4301845004870136	-0.243937
N	0.1680646109351766 0.1646364503793451 0.4301845004870136	-0.243937
N	0.6646364253793471 0.6680645859351781 0.5698154995129869	-0.243937
N	0.8353635746206529 0.8319354140648219 0.5698154995129869	-0.243937
N	0.6680645859351781 0.8353635746206529 0.5698154995129869	-0.243937
N	0.8319354140648219 0.6646364253793471 0.5698154995129869	-0.243937
	  	
