#======================================================================

# CRYSTAL DATA

#----------------------------------------------------------------------

data_VESTA_phase_1


_pd_phase_name                         GeFSIX_18_Cd
_cell_length_a                         14.65212
_cell_length_b                         14.07845
_cell_length_c                         8.24317
_cell_angle_alpha                      90
_cell_angle_beta                       94.47419
_cell_angle_gamma                      90
_symmetry_space_group_name_H-M         P 1
_symmetry_Int_Tables_number            1

loop_
_symmetry_equiv_pos_as_xyz
   x, y, z

loop_
   _atom_site_label
   _atom_site_fract_x
   _atom_site_fract_y
   _atom_site_fract_z
   _atom_site_charge
F	0.4152473039718227 0.3719806737556156 0.5218522205208649	-0.542559
F	0.5280593244337963 0.4675396924210434 0.7239753852356763	-0.524551
F	0.4128313306621267 0.5561575354788669 0.5210889318691028	-0.517877
F	0.9152473379718182 0.8719806047556138 0.5218522205208649	-0.542559
F	0.0280593504337913 0.9675396574210441 0.7239753852356763	-0.524552
F	0.9128313646621292 0.0561575014788709 0.5210889318691028	-0.517877
F	0.5847526590281780 0.3719806737556156 0.4781477794791351	-0.542559
F	0.4719406725662070 0.4675396924210434 0.2760246147643237	-0.524551
F	0.5871686653378733 0.5561575354788669 0.4789110691309008	-0.517877
F	0.0847526800281757 0.8719806047556138 0.4781477794791351	-0.542559
F	0.9719405375662065 0.9675396574210441 0.2760246147643237	-0.524551
F	0.0871686403378747 0.0561575014788709 0.4789110691309008	-0.517877
C	0.6818095922032127 0.1534083436622570 0.6610380970706849	-0.422565
C	0.7538115423838067 0.1532391016303986 0.7987272667226457	0.209193
C	0.7558571354450788 0.1968933547695324 0.9518063693816560	-0.149048
C	0.6867361124459787 0.2590751718390883 0.0131159822835540	-0.147707
C	0.6755524325398103 0.3571345537619685 0.9773466382070928	0.221433
C	0.7303994904960704 0.4173845600457094 0.8721531338634138	-0.426959
C	0.8826790331275431 0.2077741508023110 0.1927863826316766	-0.430728
C	0.8432011943224833 0.1760756254966748 0.0293217933617453	0.210602
C	0.6220591168750261 0.2379759719536298 0.1243018802701515	0.210165
C	0.5996219063305726 0.1479330632616088 0.2071816649698042	-0.425634
C	0.1818096422032099 0.6534083956622543 0.6610380970706849	-0.422565
C	0.2538115763838094 0.6532390846303940 0.7987272667226457	0.209193
C	0.2558571014450756 0.6968933207695294 0.9518063693816560	-0.149048
C	0.1867361124459787 0.7590751888390856 0.0131159822835540	-0.147706
C	0.1755524155398056 0.8571345877619707 0.9773466382070928	0.221430
C	0.2303995064960645 0.9173845250457094 0.8721531338634138	-0.426952
C	0.3826789321275381 0.7077740648023114 0.1927863826316766	-0.430733
C	0.3432012623224816 0.6760756254966752 0.0293217933617453	0.210603
C	0.1220590918750277 0.7379758859536300 0.1243018802701515	0.210165
C	0.0996219903305729 0.6479331322616110 0.2071816649698042	-0.425635
C	0.3181904047967903 0.1534083436622570 0.3389619039293188	-0.422564
C	0.2461884506161894 0.1532391016303986 0.2012726532773549	0.209193
C	0.2441428935549204 0.1968933547695324 0.0481936066183491	-0.149049
C	0.3132638835540208 0.2590751718390883 0.9868840087164487	-0.147707
C	0.3244476334601950 0.3571345537619685 0.0226534127929080	0.221433
C	0.2696005245039344 0.4173845600457094 0.1278468821365880	-0.426958
C	0.1173210498724602 0.2077741508023110 0.8072136653683267	-0.430735
C	0.1567987846775186 0.1760756254966748 0.9706781946382534	0.210603
C	0.3779409141249727 0.2379759719536298 0.8756981437298431	0.210164
C	0.4003780196694280 0.1479330632616088 0.7928182560302001	-0.425631
C	0.8181904047967906 0.6534083956622543 0.3389619039293188	-0.422564
C	0.7461884506161892 0.6532390846303940 0.2012726532773549	0.209193
C	0.7441428595549243 0.6968933207695294 0.0481936066183491	-0.149048
C	0.8132638835540210 0.7590751888390856 0.9868840087164487	-0.147707
C	0.8244475664601931 0.8571345877619706 0.0226534127929080	0.221433
C	0.7696005075039294 0.9173845250457094 0.1278468821365880	-0.426958
C	0.6173209658724603 0.7077740648023114 0.8072136653683267	-0.430731
C	0.6567988016775164 0.6760756254966752 0.9706781946382534	0.210602
C	0.8779408801249701 0.7379758859536300 0.8756981437298431	0.210165
C	0.9003780866694304 0.6479331322616110 0.7928182560302001	-0.425638
H	0.7103915454261984 0.1739501130945739 0.5469034346678044	0.149523
H	0.6282410328953252 0.2048458385808863 0.6846202637369003	0.144108
H	0.6503386744135139 0.0828369819997389 0.6425997331923793	0.133827
H	0.6857525378979223 0.4565586201622248 0.7824832469617274	0.147625
H	0.7768985772664884 0.3724823294357642 0.8075405085126960	0.137813
H	0.7717795663579331 0.4690438985406511 0.9465033521991559	0.127243
H	0.8616261841080282 0.0772789856179180 0.6928370054795147	0.283366
H	0.8881789778039381 0.1493816831680829 0.2816246873866778	0.148166
H	0.8390985579441628 0.2632754339188391 0.2398314268727432	0.137364
H	0.9518341241005950 0.2369044360199481 0.1852132152376244	0.138333
H	0.5766190398485836 0.1625741136239884 0.3282146547606640	0.145528
H	0.6596544955880566 0.1012537556389122 0.2197407817714817	0.148079
H	0.5443938780049254 0.1090818402702701 0.1373420405108441	0.131230
H	0.5353299205410443 0.3358156793915476 0.2366828751663037	0.277642
H	0.2103915964261990 0.6739500100945760 0.5469034346678044	0.149523
H	0.1282411168953247 0.7048457695808841 0.6846202637369003	0.144108
H	0.1503387244135103 0.5828369219997339 0.6425997331923793	0.133827
H	0.1857525548979204 0.9565585521622193 0.7824832469617274	0.147611
H	0.2768986112664910 0.8724823634357670 0.8075405085126960	0.137820
H	0.2717795993579317 0.9690438985406509 0.9465033521991559	0.127243
H	0.3616261501080322 0.5772790286179180 0.6928370054795147	0.283366
H	0.3881790448039397 0.6493816491680803 0.2816246873866778	0.148166
H	0.3390984899441639 0.7632754689188389 0.2398314268727432	0.137368
H	0.4518341911005901 0.7369044870199418 0.1852132152376244	0.138334
H	0.0766190318485825 0.6625741306239863 0.3282146547606640	0.145528
H	0.1596544615880537 0.6012537126389118 0.2197407817714817	0.148079
H	0.0443939140049286 0.6090817882702729 0.1373420405108441	0.131231
H	0.0353299055410469 0.8358156793915480 0.2366828751663037	0.277642
H	0.2896083855738066 0.1739501130945739 0.4530965973321913	0.149523
H	0.3717588661046703 0.2048458385808863 0.3153798012631011	0.144102
H	0.3496612545864916 0.0828369819997389 0.3574002668076206	0.133829
H	0.3142474571020804 0.4565586201622248 0.2175167210382771	0.147622
H	0.2231014177335077 0.3724823294357642 0.1924594594873011	0.137816
H	0.2282204296420740 0.4690438985406511 0.0534966208008456	0.127239
H	0.1383738168919686 0.0772789856179180 0.3071628995204810	0.283365
H	0.1118209451960594 0.1493816831680829 0.7183753446133252	0.148166
H	0.1609015060558357 0.2632754339188391 0.7601685731272567	0.137370
H	0.0481658048994097 0.2369044360199481 0.8147868167623707	0.138339
H	0.4233809901514193 0.1625741136239884 0.6717853452393362	0.145523
H	0.3403455664119486 0.1012537556389122 0.7802591702285147	0.148078
H	0.4556060869950752 0.1090818402702701 0.8626579994891594	0.131223
H	0.4646700404589558 0.3358156793915476 0.7633170778336955	0.277639
H	0.7896084525738014 0.6739500100945760 0.4530965973321913	0.149523
H	0.8717589671046748 0.7048457695808841 0.3153798012631011	0.144102
H	0.8496612545864909 0.5828369219997339 0.3574002668076206	0.133829
H	0.8142474571020808 0.9565585521622193 0.2175167210382771	0.147622
H	0.7231014177335077 0.8724823634357670 0.1924594594873011	0.137816
H	0.7282204296420737 0.9690438985406509 0.0534966208008456	0.127239
H	0.6383738078919712 0.5772790286179180 0.3071628995204810	0.283365
H	0.6118210541960575 0.6493816491680803 0.7183753446133252	0.148166
H	0.6609014390558334 0.7632754689188389 0.7601685731272567	0.137366
H	0.5481658408994057 0.7369044870199418 0.8147868167623707	0.138342
H	0.9233809231514168 0.6625741306239863 0.6717853452393362	0.145523
H	0.8403454994119467 0.6012537126389118 0.7802591702285147	0.148082
H	0.9556060869950752 0.6090817882702729 0.8626579994891594	0.131224
H	0.9646700064589603 0.8358156793915480 0.7633170778336955	0.277639
N	0.8349227727191214 0.1086819899048773 0.7922979533924631	-0.146477
N	0.6078770721933930 0.3927997876777053 0.0602304746798975	-0.258722
N	0.8904868117523328 0.1223760733347360 0.9297844307436399	-0.263134
N	0.5763603945182689 0.3195201749291374 0.1463664225393357	-0.148200
N	0.3349227727191215 0.6086819129048815 0.7922979533924631	-0.146477
N	0.1078771391933950 0.8927997876777052 0.0602304746798975	-0.258723
N	0.3904868457523358 0.6223761243347370 0.9297844307436399	-0.263134
N	0.0763603865182679 0.8195201399291383 0.1463664225393357	-0.148199
N	0.1650772092808770 0.1086819899048773 0.2077020946075335	-0.146477
N	0.3921228218066055 0.3927997876777053 0.9397695013201003	-0.258721
N	0.1095131582476647 0.1223760733347360 0.0702155492563588	-0.263134
N	0.4236396024817348 0.3195201749291374 0.8536335934606655	-0.148198
N	0.6650772262808750 0.6086819129048815 0.2077020946075334	-0.146477
N	0.8921229228066101 0.8927997876777052 0.9397695013201003	-0.258721
N	0.6095131832476703 0.6223761243347370 0.0702155492563588	-0.263133
N	0.9236396364817301 0.8195201399291383 0.8536335934606655	-0.148198
Ge	0.4999999979999998 0.4642255773974732 0.5000000000000000	1.749981
Ge	-0.0000000000000000 0.9642255773974735 0.5000000000000000	1.749981
Cd	0.5000000000000000 0.5120275272255205 -0.0000000000000000	0.855876
Cd	-0.0000000000000000 0.0120275342255247 -0.0000000000000000	0.855876
	  	
