#======================================================================

# CRYSTAL DATA

#----------------------------------------------------------------------

data_VESTA_phase_1


_pd_phase_name                         GeFSIX_3_Fe
_cell_length_a                         14.44567
_cell_length_b                         14.44567
_cell_length_c                         7.76761
_cell_angle_alpha                      90
_cell_angle_beta                       90
_cell_angle_gamma                      90
_symmetry_space_group_name_H-M         P 1
_symmetry_Int_Tables_number            1

loop_
_symmetry_equiv_pos_as_xyz
   x, y, z

loop_
   _atom_site_label
   _atom_site_fract_x
   _atom_site_fract_y
   _atom_site_fract_z
   _atom_site_charge
C	0.2709963004544073 0.4518220159331747 0.6427800963745396	0.063876
C	0.2290036995455928 0.0481779880668256 0.6427800963745396	0.063876
C	0.2290036995455928 0.4518220159331747 0.3572198716254577	0.063876
C	0.2709963004544073 0.0481779880668256 0.3572198716254577	0.063877
C	0.0481779880668256 0.2709963004544073 0.3572198716254577	0.063877
C	0.4518220159331747 0.2290036995455928 0.3572198716254577	0.063876
C	0.4518220159331747 0.2709963004544073 0.6427800963745396	0.063878
C	0.0481779880668256 0.2290036995455928 0.6427800963745396	0.063878
C	0.9518219479331761 0.2290036995455928 0.6427800963745396	0.063897
C	0.5481780520668239 0.2709963004544073 0.6427800963745396	0.063898
C	0.5481780520668239 0.2290036995455928 0.3572198716254577	0.063898
C	0.9518219479331761 0.2709963004544073 0.3572198716254577	0.063898
C	0.7290037165455906 0.0481779880668256 0.3572198716254577	0.063877
C	0.7709962834544094 0.4518220159331747 0.3572198716254577	0.063877
C	0.7709962834544094 0.0481779880668256 0.6427800963745396	0.063878
C	0.7290037165455906 0.4518220159331747 0.6427800963745396	0.063877
C	0.4518220159331747 0.7290037165455906 0.6427800963745396	0.063876
C	0.0481779880668256 0.7709962834544094 0.6427800963745396	0.063876
C	0.0481779880668256 0.7290037165455906 0.3572198716254577	0.063877
C	0.4518220159331747 0.7709962834544094 0.3572198716254577	0.063876
C	0.2290036995455928 0.5481780520668239 0.3572198716254577	0.063899
C	0.2709963004544073 0.9518219479331761 0.3572198716254577	0.063898
C	0.2709963004544073 0.5481780520668239 0.6427800963745396	0.063900
C	0.2290036995455928 0.9518219479331761 0.6427800963745396	0.063899
C	0.7709962834544094 0.9518219479331761 0.6427800963745396	0.063898
C	0.7290037165455906 0.5481780520668239 0.6427800963745396	0.063898
C	0.7290037165455906 0.9518219479331761 0.3572198716254577	0.063898
C	0.7709962834544094 0.5481780520668239 0.3572198716254577	0.063899
C	0.5481780520668239 0.7709962834544094 0.3572198716254577	0.063899
C	0.9518219479331761 0.7290037165455906 0.3572198716254577	0.063898
C	0.9518219479331761 0.7709962834544094 0.6427800963745396	0.063899
C	0.5481780520668239 0.7290037165455906 0.6427800963745396	0.063900
H	0.2878667209383259 0.4137583032365025 0.7599986414791596	0.105587
H	0.2121332450616713 0.0862416967634975 0.7599986414791596	0.105587
H	0.2121332450616713 0.4137583032365025 0.2400013275208414	0.105587
H	0.2878667209383259 0.0862416967634975 0.2400013275208414	0.105587
H	0.0862416967634975 0.2878667209383259 0.2400013275208414	0.105586
H	0.4137583032365025 0.2121332450616713 0.2400013275208414	0.105587
H	0.4137583032365025 0.2878667209383259 0.7599986414791596	0.105586
H	0.0862416967634975 0.2121332450616713 0.7599986414791596	0.105586
H	0.9137583712365082 0.2121332450616713 0.7599986414791596	0.105584
H	0.5862416287634918 0.2878667209383259 0.7599986414791596	0.105583
H	0.5862416287634918 0.2121332450616713 0.2400013275208414	0.105584
H	0.9137583712365082 0.2878667209383259 0.2400013275208414	0.105584
H	0.7121332110616755 0.0862416967634975 0.2400013275208414	0.105587
H	0.7878667889383245 0.4137583032365025 0.2400013275208414	0.105586
H	0.7878667889383245 0.0862416967634975 0.7599986414791596	0.105586
H	0.7121332110616755 0.4137583032365025 0.7599986414791596	0.105586
H	0.4137583032365025 0.7121332110616755 0.7599986414791596	0.105587
H	0.0862416967634975 0.7878667889383245 0.7599986414791596	0.105587
H	0.0862416967634975 0.7121332110616755 0.2400013275208414	0.105587
H	0.4137583032365025 0.7878667889383245 0.2400013275208414	0.105587
H	0.2121332450616713 0.5862416287634918 0.2400013275208414	0.105584
H	0.2878667209383259 0.9137583712365082 0.2400013275208414	0.105583
H	0.2878667209383259 0.5862416287634918 0.7599986414791596	0.105583
H	0.2121332450616713 0.9137583712365082 0.7599986414791596	0.105583
H	0.7878667889383245 0.9137583712365082 0.7599986414791596	0.105583
H	0.7121332110616755 0.5862416287634918 0.7599986414791596	0.105584
H	0.7121332110616755 0.9137583712365082 0.2400013275208414	0.105584
H	0.7878667889383245 0.5862416287634918 0.2400013275208414	0.105584
H	0.5862416287634918 0.7878667889383245 0.2400013275208414	0.105583
H	0.9137583712365082 0.7121332110616755 0.2400013275208414	0.105584
H	0.9137583712365082 0.7878667889383245 0.7599986414791596	0.105583
H	0.5862416287634918 0.7121332110616755 0.7599986414791596	0.105583
Fe	0.2500000000000000 0.2500000000000000 0.5000000000000000	0.791405
Fe	0.7500000340000028 0.2500000000000000 0.5000000000000000	0.791405
Fe	0.2500000000000000 0.7500000340000028 0.5000000000000000	0.791405
Fe	0.7500000340000028 0.7500000340000028 0.5000000000000000	0.791405
Ge	0.2500000000000000 0.2500000000000000 0.0000000000000000	1.751012
Ge	0.7500000340000028 0.2500000000000000 0.0000000000000000	1.751012
Ge	0.2500000000000000 0.7500000340000028 0.0000000000000000	1.751012
Ge	0.7500000340000028 0.7500000340000028 0.0000000000000000	1.751012
F	0.2500000000000000 0.2500000000000000 0.7562796817258388	-0.488090
F	0.2500000000000000 0.2500000000000000 0.2437203182741611	-0.488090
F	0.3384056004383719 0.3384056004383719 0.9985919180671767	-0.520174
F	0.1615943995616280 0.1615943995616280 0.9985919180671767	-0.520173
F	0.1615943995616280 0.3384056004383719 0.0014081029328215	-0.520173
F	0.3384056004383719 0.1615943995616280 0.0014081029328214	-0.520173
F	0.7500000340000028 0.2500000000000000 0.7562796817258388	-0.488091
F	0.7500000340000028 0.2500000000000000 0.2437203182741611	-0.488091
F	0.8384056344383748 0.3384056004383719 0.0014081029328214	-0.520175
F	0.6615943655616252 0.1615943995616280 0.0014081029328215	-0.520173
F	0.6615943655616252 0.3384056004383719 0.9985919180671767	-0.520174
F	0.8384056344383748 0.1615943995616280 0.9985919180671767	-0.520174
F	0.2500000000000000 0.7500000340000028 0.7562796817258388	-0.488091
F	0.2500000000000000 0.7500000340000028 0.2437203182741611	-0.488091
F	0.3384056004383719 0.8384056344383748 0.0014081029328214	-0.520175
F	0.1615943995616280 0.6615943655616252 0.0014081029328214	-0.520173
F	0.1615943995616280 0.8384056344383748 0.9985919180671767	-0.520174
F	0.3384056004383719 0.6615943655616252 0.9985919180671767	-0.520174
F	0.7500000340000028 0.7500000340000028 0.7562796817258388	-0.488091
F	0.7500000340000028 0.7500000340000028 0.2437203182741611	-0.488091
F	0.8384056344383748 0.8384056344383748 0.9985919180671767	-0.520176
F	0.6615943655616252 0.6615943655616252 0.9985919180671767	-0.520174
F	0.6615943655616252 0.8384056344383748 0.0014081029328215	-0.520175
F	0.8384056344383748 0.6615943655616252 0.0014081029328214	-0.520175
N	0.4032998162746035 0.2500000000000000 0.5000000000000000	-0.210328
N	0.0967001837253966 0.2500000000000000 0.5000000000000000	-0.210328
N	0.2500000000000000 0.4032998162746035 0.5000000000000000	-0.210328
N	0.2500000000000000 0.0967001837253966 0.5000000000000000	-0.210327
N	0.9032998162746033 0.2500000000000000 0.5000000000000000	-0.210333
N	0.5967001837253967 0.2500000000000000 0.5000000000000000	-0.210332
N	0.7500000340000028 0.4032998162746035 0.5000000000000000	-0.210328
N	0.7500000340000028 0.0967001837253966 0.5000000000000000	-0.210327
N	0.4032998162746035 0.7500000340000028 0.5000000000000000	-0.210328
N	0.0967001837253966 0.7500000340000028 0.5000000000000000	-0.210327
N	0.2500000000000000 0.9032998162746033 0.5000000000000000	-0.210333
N	0.2500000000000000 0.5967001837253967 0.5000000000000000	-0.210332
N	0.9032998162746033 0.7500000340000028 0.5000000000000000	-0.210333
N	0.5967001837253967 0.7500000340000028 0.5000000000000000	-0.210333
N	0.7500000340000028 0.9032998162746033 0.5000000000000000	-0.210333
N	0.7500000340000028 0.5967001837253967 0.5000000000000000	-0.210332
	  	
