#======================================================================

# CRYSTAL DATA

#----------------------------------------------------------------------

data_VESTA_phase_1


_pd_phase_name                         GeFSIX_7_Fe
_cell_length_a                         18.91371
_cell_length_b                         18.91371
_cell_length_c                         8.11501
_cell_angle_alpha                      90
_cell_angle_beta                       90
_cell_angle_gamma                      90
_symmetry_space_group_name_H-M         P 1
_symmetry_Int_Tables_number            1

loop_
_symmetry_equiv_pos_as_xyz
   x, y, z

loop_
   _atom_site_label
   _atom_site_fract_x
   _atom_site_fract_y
   _atom_site_fract_z
   _atom_site_charge
C	0.6670797786747320 0.8699504355882184 0.6969080634773395	0.099745
C	0.6154011943158817 0.9219347889332904 0.7008919453109301	-0.173153
C	0.5805910546075623 0.8869202913897746 0.4292521106275271	-0.169290
C	0.6325648552228635 0.8354369340723043 0.4340715839455538	0.096065
C	0.8329202213252680 0.6300495644117816 0.6969080634773395	0.099745
C	0.8845988556841153 0.5780652620667103 0.7008919453109301	-0.173153
C	0.9194088443924400 0.6130797596102190 0.4292521106275271	-0.169291
C	0.8674351447771365 0.6645630659276957 0.4340715839455538	0.096065
C	0.6300495644117816 0.6670797786747320 0.6969080634773395	0.099745
C	0.5780652620667103 0.6154011943158817 0.7008919453109301	-0.173152
C	0.6130797596102190 0.5805910546075623 0.4292521106275271	-0.169290
C	0.6645630659276957 0.6325648552228635 0.4340715839455538	0.096065
C	0.8699504355882184 0.8329202213252680 0.6969080634773395	0.099745
C	0.9219347889332904 0.8845988556841153 0.7008919453109301	-0.173152
C	0.8869202913897746 0.9194088443924400 0.4292521106275271	-0.169291
C	0.8354369340723043 0.8674351447771365 0.4340715839455538	0.096065
C	0.3329201963252695 0.3699503855882143 0.3030919665226632	0.099744
C	0.3845988056841185 0.4219347889332903 0.2991080846890722	-0.173152
C	0.4194089453924377 0.3869202403897808 0.5707478893724729	-0.169290
C	0.3674350937771428 0.3354369340723043 0.5659284460544488	0.096065
C	0.1670798036747304 0.1300496014117882 0.3030919665226632	0.099744
C	0.1154011943158815 0.0780652110667098 0.2991080846890722	-0.173152
C	0.0805910356075572 0.1130797596102190 0.5707478893724729	-0.169291
C	0.1325649062228571 0.1645630539276946 0.5659284460544488	0.096065
C	0.3699503855882143 0.1670798036747304 0.3030919665226632	0.099745
C	0.4219347889332903 0.1154011943158815 0.2991080846890722	-0.173152
C	0.3869202403897808 0.0805910356075572 0.5707478893724729	-0.169290
C	0.3354369340723043 0.1325649062228571 0.5659284460544488	0.096065
C	0.1300496014117882 0.3329201963252695 0.3030919665226632	0.099744
C	0.0780652110667098 0.3845988056841185 0.2991080846890722	-0.173152
C	0.1130797596102190 0.4194089453924377 0.5707478893724729	-0.169290
C	0.1645630539276946 0.3674350937771428 0.5659284460544488	0.096065
C	0.4322749966062793 0.0707128920875070 0.4353847997387523	0.138672
C	0.4871485851570617 0.0168600294191506 0.4324961626881287	-0.122892
C	0.0677250033937207 0.4292871009124959 0.4353847997387523	0.138678
C	0.0128513828429358 0.4831399065808512 0.4324961626881287	-0.122899
C	0.4292871009124959 0.4322749966062793 0.4353847997387523	0.138672
C	0.4831399065808512 0.4871485851570617 0.4324961626881287	-0.122892
C	0.0707128920875070 0.0677250033937207 0.4353847997387523	0.138678
C	0.0168600294191506 0.0128513828429358 0.4324961626881287	-0.122899
C	0.5677250033937207 0.5707128990875041 0.5646152002612476	0.138670
C	0.5128514658429323 0.5168600434191450 0.5675038663118706	-0.122870
C	0.9322749466062823 0.9292870509124918 0.5646152002612476	0.138670
C	0.9871485851570613 0.9831400075808556 0.5675038663118706	-0.122868
C	0.5707128990875041 0.9322749466062823 0.5646152002612476	0.138670
C	0.5168600434191450 0.9871485851570613 0.5675038663118706	-0.122870
C	0.9292870509124918 0.5677250033937207 0.5646152002612476	0.138670
C	0.9831400075808556 0.5128514658429323 0.5675038663118706	-0.122868
H	0.7011671162789030 0.8608592764149490 0.8027931222800945	0.098876
H	0.6105052180481281 0.9545941528492871 0.8109714223997030	0.116897
H	0.5472040297374057 0.8902103776673256 0.3202351412848644	0.117492
H	0.6412802531867157 0.8008000849579190 0.3290131845285759	0.099143
H	0.7988328837210970 0.6391407235850510 0.8027931222800945	0.098876
H	0.8894947819518719 0.5454058981507136 0.8109714223997030	0.116897
H	0.9527960212625950 0.6097896733326751 0.3202351412848644	0.117491
H	0.8587197468132843 0.6991999150420810 0.3290131845285759	0.099143
H	0.6391407235850510 0.7011671162789030 0.8027931222800945	0.098876
H	0.5454058981507136 0.6105052180481281 0.8109714223997030	0.116897
H	0.6097896733326751 0.5472040297374057 0.3202351412848644	0.117492
H	0.6991999150420810 0.6412802531867157 0.3290131845285759	0.099143
H	0.8608592764149490 0.7988328837210970 0.8027931222800945	0.098876
H	0.9545941528492871 0.8894947819518719 0.8109714223997030	0.116897
H	0.8902103776673256 0.9527960212625950 0.3202351412848644	0.117492
H	0.8008000849579190 0.8587197468132843 0.3290131845285759	0.099143
H	0.2988329097210991 0.3608592004149494 0.1972068627199077	0.098876
H	0.3894947059518652 0.4545941018492864 0.1890285336002935	0.116897
H	0.4527960212625950 0.3902103776673255 0.6797648287151401	0.117492
H	0.3587197718132895 0.3008001109579211 0.6709868154714242	0.099143
H	0.2011671032788983 0.1391408255850527 0.1972068627199077	0.098876
H	0.1105052690481290 0.0454059141507148 0.1890285336002935	0.116897
H	0.0472039727374044 0.1097896483326767 0.6797648287151401	0.117492
H	0.1412802531867160 0.1991998770420778 0.6709868154714242	0.099143
H	0.3608592004149494 0.2011671032788983 0.1972068627199077	0.098876
H	0.4545941018492864 0.1105052690481290 0.1890285336002935	0.116897
H	0.3902103776673255 0.0472039727374044 0.6797648287151401	0.117492
H	0.3008001109579211 0.1412802531867160 0.6709868154714242	0.099143
H	0.1391408255850527 0.2988329097210991 0.1972068627199077	0.098876
H	0.0454059141507148 0.3894947059518652 0.1890285336002935	0.116897
H	0.1097896483326767 0.4527960212625950 0.6797648287151401	0.117492
H	0.1991998770420778 0.3587197718132895 0.6709868154714242	0.099143
H	0.5064805483510798 0.0019068173234695 0.3101683299564850	0.102610
H	0.9935195026489209 0.4980931546765280 0.3101683299564850	0.102612
H	0.4980931546765280 0.5064805483510798 0.3101683299564850	0.102610
H	0.0019068173234695 0.9935195026489209 0.3101683299564850	0.102612
H	0.4935194516489205 0.5019067953234748 0.6898317000435104	0.102607
H	0.0064805393510824 0.9980931546765281 0.6898317000435104	0.102607
H	0.5019067953234748 0.0064805393510824 0.6898317000435104	0.102607
H	0.9980931546765281 0.4935194516489205 0.6898317000435104	0.102607
Fe	0.2500000000000000 0.2500000000000000 0.4339764395087248	0.860642
Fe	0.7500000000000000 0.7500000000000000 0.5660235604912751	0.860642
Ge	0.2500000000000000 0.2500000000000000 0.9348916773904402	1.766420
Ge	0.7500000000000000 0.7500000000000000 0.0651083076095620	1.766420
F	0.2500000000000000 0.2500000000000000 0.1662248091794847	-0.507896
F	0.2500000000000000 0.2500000000000000 0.7033223861205585	-0.508437
F	0.7500000000000000 0.7500000000000000 0.8337752208205179	-0.507896
F	0.7500000000000000 0.7500000000000000 0.2966776138794416	-0.508437
F	0.3186809190133746 0.3173114289319546 0.9351094857235612	-0.545289
F	0.1813191059866240 0.1826885960680439 0.9351094857235612	-0.545289
F	0.1826885960680439 0.3186809190133746 0.9351094857235612	-0.545289
F	0.3173114289319546 0.1813191059866240 0.9351094857235612	-0.545289
F	0.6813191059866238 0.8173114289319547 0.0648905142764387	-0.545289
F	0.8186808940133762 0.6826885710680453 0.0648905142764387	-0.545289
F	0.8173114289319547 0.8186808940133762 0.0648905142764387	-0.545289
F	0.6826885710680453 0.6813191059866238 0.0648905142764387	-0.545289
N	0.3268021307406290 0.1757459181264825 0.4343858209715377	-0.261568
N	0.1731978942593694 0.3242541068735159 0.4343858209715377	-0.261568
N	0.3242541068735159 0.3268021307406290 0.4343858209715377	-0.261568
N	0.1757459181264825 0.1731978942593694 0.4343858209715377	-0.261568
N	0.6731978692593710 0.6757458931264839 0.5656141790284620	-0.261567
N	0.8268021307406290 0.8242541068735161 0.5656141790284620	-0.261567
N	0.6757458931264839 0.8268021307406290 0.5656141790284620	-0.261567
N	0.8242541068735161 0.6731978692593710 0.5656141790284620	-0.261567
	  	
