#======================================================================

# CRYSTAL DATA

#----------------------------------------------------------------------

data_VESTA_phase_1


_pd_phase_name                         GeFSIX_3_Zn
_cell_length_a                         14.32238
_cell_length_b                         14.32238
_cell_length_c                         7.83073
_cell_angle_alpha                      90
_cell_angle_beta                       90
_cell_angle_gamma                      90
_symmetry_space_group_name_H-M         P 1
_symmetry_Int_Tables_number            1

loop_
_symmetry_equiv_pos_as_xyz
   x, y, z

loop_
   _atom_site_label
   _atom_site_fract_x
   _atom_site_fract_y
   _atom_site_fract_z
   _atom_site_charge
C	0.2707371184260191 0.4513530346133588 0.6422183769000808	0.063548
C	0.2292628815739808 0.0486469693866414 0.6422183769000808	0.063548
C	0.2292628815739808 0.4513530346133588 0.3577815910999165	0.063550
C	0.2707371184260191 0.0486469693866414 0.3577815910999165	0.063551
C	0.0486469693866414 0.2707371184260191 0.3577815910999165	0.063553
C	0.4513530346133588 0.2292628815739808 0.3577815910999165	0.063552
C	0.4513530346133588 0.2707371184260191 0.6422183769000808	0.063556
C	0.0486469693866414 0.2292628815739808 0.6422183769000808	0.063556
C	0.9513529666133607 0.2292628815739808 0.6422183769000808	0.063567
C	0.5486470333866393 0.2707371184260191 0.6422183769000808	0.063568
C	0.5486470333866393 0.2292628815739808 0.3577815910999165	0.063570
C	0.9513529666133607 0.2707371184260191 0.3577815910999165	0.063570
C	0.7292628985739784 0.0486469693866414 0.3577815910999165	0.063553
C	0.7707371014260216 0.4513530346133588 0.3577815910999165	0.063553
C	0.7707371014260216 0.0486469693866414 0.6422183769000808	0.063557
C	0.7292628985739784 0.4513530346133588 0.6422183769000808	0.063556
C	0.4513530346133588 0.7292628985739784 0.6422183769000808	0.063548
C	0.0486469693866414 0.7707371014260216 0.6422183769000808	0.063549
C	0.0486469693866414 0.7292628985739784 0.3577815910999165	0.063552
C	0.4513530346133588 0.7707371014260216 0.3577815910999165	0.063552
C	0.2292628815739808 0.5486470333866393 0.3577815910999165	0.063572
C	0.2707371184260191 0.9513529666133607 0.3577815910999165	0.063572
C	0.2707371184260191 0.5486470333866393 0.6422183769000808	0.063575
C	0.2292628815739808 0.9513529666133607 0.6422183769000808	0.063574
C	0.7707371014260216 0.9513529666133607 0.6422183769000808	0.063567
C	0.7292628985739784 0.5486470333866393 0.6422183769000808	0.063568
C	0.7292628985739784 0.9513529666133607 0.3577815910999165	0.063570
C	0.7707371014260216 0.5486470333866393 0.3577815910999165	0.063571
C	0.5486470333866393 0.7707371014260216 0.3577815910999165	0.063572
C	0.9513529666133607 0.7292628985739784 0.3577815910999165	0.063571
C	0.9513529666133607 0.7707371014260216 0.6422183769000808	0.063574
C	0.5486470333866393 0.7292628985739784 0.6422183769000808	0.063575
H	0.2870316375200613 0.4126812189554118 0.7583511218558250	0.110889
H	0.2129683284799359 0.0873187810445881 0.7583511218558250	0.110889
H	0.2129683284799359 0.4126812189554118 0.2416488471441759	0.110889
H	0.2870316375200613 0.0873187810445881 0.2416488471441759	0.110889
H	0.0873187810445881 0.2870316375200613 0.2416488471441759	0.110887
H	0.4126812189554118 0.2129683284799359 0.2416488471441759	0.110888
H	0.4126812189554118 0.2870316375200613 0.7583511218558250	0.110886
H	0.0873187810445881 0.2129683284799359 0.7583511218558250	0.110886
H	0.9126812869554175 0.2129683284799359 0.7583511218558250	0.110883
H	0.5873187130445825 0.2870316375200613 0.7583511218558250	0.110883
H	0.5873187130445825 0.2129683284799359 0.2416488471441759	0.110883
H	0.9126812869554175 0.2870316375200613 0.2416488471441759	0.110883
H	0.7129682944799399 0.0873187810445881 0.2416488471441759	0.110888
H	0.7870317055200601 0.4126812189554118 0.2416488471441759	0.110887
H	0.7870317055200601 0.0873187810445881 0.7583511218558250	0.110886
H	0.7129682944799399 0.4126812189554118 0.7583511218558250	0.110886
H	0.4126812189554118 0.7129682944799399 0.7583511218558250	0.110889
H	0.0873187810445881 0.7870317055200601 0.7583511218558250	0.110889
H	0.0873187810445881 0.7129682944799399 0.2416488471441759	0.110889
H	0.4126812189554118 0.7870317055200601 0.2416488471441759	0.110889
H	0.2129683284799359 0.5873187130445825 0.2416488471441759	0.110882
H	0.2870316375200613 0.9126812869554175 0.2416488471441759	0.110881
H	0.2870316375200613 0.5873187130445825 0.7583511218558250	0.110880
H	0.2129683284799359 0.9126812869554175 0.7583511218558250	0.110881
H	0.7870317055200601 0.9126812869554175 0.7583511218558250	0.110883
H	0.7129682944799399 0.5873187130445825 0.7583511218558250	0.110883
H	0.7129682944799399 0.9126812869554175 0.2416488471441759	0.110883
H	0.7870317055200601 0.5873187130445825 0.2416488471441759	0.110883
H	0.5873187130445825 0.7870317055200601 0.2416488471441759	0.110881
H	0.9126812869554175 0.7129682944799399 0.2416488471441759	0.110882
H	0.9126812869554175 0.7870317055200601 0.7583511218558250	0.110880
H	0.5873187130445825 0.7129682944799399 0.7583511218558250	0.110881
Zn	0.2500000000000000 0.2500000000000000 0.5000000000000000	0.733935
Zn	0.7500000340000028 0.2500000000000000 0.5000000000000000	0.733936
Zn	0.2500000000000000 0.7500000340000028 0.5000000000000000	0.733936
Zn	0.7500000340000028 0.7500000340000028 0.5000000000000000	0.733937
Ge	0.2500000000000000 0.2500000000000000 0.0000000000000000	1.753576
Ge	0.7500000340000028 0.2500000000000000 0.0000000000000000	1.753576
Ge	0.2500000000000000 0.7500000340000028 0.0000000000000000	1.753576
Ge	0.7500000340000028 0.7500000340000028 0.0000000000000000	1.753576
F	0.2500000000000000 0.2500000000000000 0.7600617391596224	-0.511150
F	0.2500000000000000 0.2500000000000000 0.2399382608403780	-0.511150
F	0.3394809089596523 0.3394809089596523 -0.0032692607082216	-0.526729
F	0.1605190910403478 0.1605190910403478 -0.0032692607082216	-0.526727
F	0.1605190910403478 0.3394809089596523 0.0032692817082197	-0.526728
F	0.3394809089596523 0.1605190910403478 0.0032692817082197	-0.526728
F	0.7500000340000028 0.2500000000000000 0.7600617391596224	-0.511150
F	0.7500000340000028 0.2500000000000000 0.2399382608403780	-0.511150
F	0.8394809429596550 0.3394809089596523 0.0032692817082197	-0.526728
F	0.6605190570403450 0.1605190910403478 0.0032692817082197	-0.526726
F	0.6605190570403450 0.3394809089596523 -0.0032692607082216	-0.526727
F	0.8394809429596550 0.1605190910403478 -0.0032692607082216	-0.526728
F	0.2500000000000000 0.7500000340000028 0.7600617391596224	-0.511150
F	0.2500000000000000 0.7500000340000028 0.2399382608403780	-0.511150
F	0.3394809089596523 0.8394809429596550 0.0032692817082197	-0.526728
F	0.1605190910403478 0.6605190570403450 0.0032692817082197	-0.526726
F	0.1605190910403478 0.8394809429596550 -0.0032692607082216	-0.526728
F	0.3394809089596523 0.6605190570403450 -0.0032692607082216	-0.526727
F	0.7500000340000028 0.7500000340000028 0.7600617391596224	-0.511150
F	0.7500000340000028 0.7500000340000028 0.2399382608403780	-0.511150
F	0.8394809429596550 0.8394809429596550 -0.0032692607082216	-0.526728
F	0.6605190570403450 0.6605190570403450 -0.0032692607082216	-0.526726
F	0.6605190570403450 0.8394809429596550 0.0032692817082197	-0.526727
F	0.8394809429596550 0.6605190570403450 0.0032692817082197	-0.526727
N	0.4027862698513839 0.2500000000000000 0.5000000000000000	-0.188466
N	0.0972137301486162 0.2500000000000000 0.5000000000000000	-0.188466
N	0.2500000000000000 0.4027862698513839 0.5000000000000000	-0.188466
N	0.2500000000000000 0.0972137301486162 0.5000000000000000	-0.188466
N	0.9027862698513839 0.2500000000000000 0.5000000000000000	-0.188470
N	0.5972137301486161 0.2500000000000000 0.5000000000000000	-0.188469
N	0.7500000340000028 0.4027862698513839 0.5000000000000000	-0.188468
N	0.7500000340000028 0.0972137301486162 0.5000000000000000	-0.188467
N	0.4027862698513839 0.7500000340000028 0.5000000000000000	-0.188465
N	0.0972137301486162 0.7500000340000028 0.5000000000000000	-0.188465
N	0.2500000000000000 0.9027862698513839 0.5000000000000000	-0.188472
N	0.2500000000000000 0.5972137301486161 0.5000000000000000	-0.188472
N	0.9027862698513839 0.7500000340000028 0.5000000000000000	-0.188471
N	0.5972137301486161 0.7500000340000028 0.5000000000000000	-0.188470
N	0.7500000340000028 0.9027862698513839 0.5000000000000000	-0.188471
N	0.7500000340000028 0.5972137301486161 0.5000000000000000	-0.188471
	  	
