#======================================================================

# CRYSTAL DATA

#----------------------------------------------------------------------

data_VESTA_phase_1


_pd_phase_name                         GeFSIX_2_Ni_i
_cell_length_a                         13.85788
_cell_length_b                         13.85788
_cell_length_c                         7.94424
_cell_angle_alpha                      90
_cell_angle_beta                       90
_cell_angle_gamma                      90
_symmetry_space_group_name_H-M         P 1
_symmetry_Int_Tables_number            1

loop_
_symmetry_equiv_pos_as_xyz
   x, y, z

loop_
   _atom_site_label
   _atom_site_fract_x
   _atom_site_fract_y
   _atom_site_fract_z
   _atom_site_charge
C	-0.0000000000000000 0.3019057438118884 0.3482392448954171	-0.158252
C	-0.0000000000000000 0.2017957273983714 0.3539428181337408	0.107561
C	0.5000000000000000 0.8019057438118885 0.8482392738954160	-0.158252
C	0.5000000000000000 0.7017957453983730 0.8539428181337411	0.107561
C	-0.0000000000000000 0.6980942561881115 0.3482392448954171	-0.158254
C	-0.0000000000000000 0.7982042546016270 0.3539428181337408	0.107563
C	0.5000000000000000 0.1980942731881094 0.8482392738954160	-0.158254
C	0.5000000000000000 0.2982042546016272 0.8539428181337411	0.107563
C	0.6980942561881115 0.0000000000000000 0.3482392448954171	-0.158252
C	0.7982042546016270 0.0000000000000000 0.3539428181337408	0.107562
C	0.1980942731881094 0.5000000000000000 0.8482392738954160	-0.158252
C	0.2982042546016272 0.5000000000000000 0.8539428181337411	0.107562
C	0.3019057438118884 0.0000000000000000 0.3482392448954171	-0.158254
C	0.2017957273983714 0.0000000000000000 0.3539428181337408	0.107564
C	0.8019057438118885 0.5000000000000000 0.8482392738954160	-0.158254
C	0.7017957453983730 0.5000000000000000 0.8539428181337411	0.107564
C	-0.0000000000000000 0.3019057438118884 0.6517607261045840	-0.158250
C	-0.0000000000000000 0.2017957273983714 0.6460571818662589	0.107561
C	0.5000000000000000 0.8019057438118885 0.1517607551045830	-0.158250
C	0.5000000000000000 0.7017957453983730 0.1460571668662614	0.107561
C	-0.0000000000000000 0.6980942561881115 0.6517607261045840	-0.158253
C	-0.0000000000000000 0.7982042546016270 0.6460571818662589	0.107563
C	0.5000000000000000 0.1980942731881094 0.1517607551045830	-0.158253
C	0.5000000000000000 0.2982042546016272 0.1460571668662614	0.107563
C	0.3019057438118884 0.0000000000000000 0.6517607261045840	-0.158252
C	0.2017957273983714 0.0000000000000000 0.6460571818662589	0.107564
C	0.8019057438118885 0.5000000000000000 0.1517607551045830	-0.158252
C	0.7017957453983730 0.5000000000000000 0.1460571668662614	0.107564
C	0.6980942561881115 0.0000000000000000 0.6517607261045840	-0.158250
C	0.7982042546016270 0.0000000000000000 0.6460571818662589	0.107562
C	0.1980942731881094 0.5000000000000000 0.1517607551045830	-0.158250
C	0.2982042546016272 0.5000000000000000 0.1460571668662614	0.107562
C	-0.0000000000000000 0.4560291974275119 0.5000000000000000	-0.095122
C	-0.0000000000000000 0.3540541755344074 0.5000000000000000	0.161571
C	0.5000000000000000 0.9560292314275143 -0.0000000000000000	-0.095122
C	0.5000000000000000 0.8540541405344082 -0.0000000000000000	0.161571
C	-0.0000000000000000 0.5439708025724885 0.5000000000000000	-0.094860
C	-0.0000000000000000 0.6459458594655918 0.5000000000000000	0.161540
C	0.5000000000000000 0.0439707815724830 -0.0000000000000000	-0.094860
C	0.5000000000000000 0.1459458594655920 -0.0000000000000000	0.161540
C	0.5439708025724885 0.0000000000000000 0.5000000000000000	-0.095121
C	0.6459458594655918 0.0000000000000000 0.5000000000000000	0.161571
C	0.0439707815724830 0.5000000000000000 -0.0000000000000000	-0.095122
C	0.1459458594655920 0.5000000000000000 -0.0000000000000000	0.161571
C	0.4560291974275119 0.0000000000000000 0.5000000000000000	-0.094860
C	0.3540541755344074 0.0000000000000000 0.5000000000000000	0.161540
C	0.9560292314275143 0.5000000000000000 -0.0000000000000000	-0.094860
C	0.8540541405344082 0.5000000000000000 -0.0000000000000000	0.161540
H	-0.0000000000000000 0.3392050349900546 0.2277894501146658	0.119476
H	-0.0000000000000000 0.1598037290589840 0.2383998807448247	0.093067
H	0.5000000000000000 0.8392050349900549 0.7277894501146654	0.119476
H	0.5000000000000000 0.6598036760589832 0.7383999107448270	0.093067
H	-0.0000000000000000 0.6607949650099451 0.2277894501146658	0.119474
H	-0.0000000000000000 0.8401963239410168 0.2383998807448247	0.093067
H	0.5000000000000000 0.1607949650099451 0.7277894501146654	0.119474
H	0.5000000000000000 0.3401962889410104 0.7383999107448270	0.093067
H	0.6607949650099451 0.0000000000000000 0.2277894501146658	0.119476
H	0.8401963239410168 0.0000000000000000 0.2383998807448247	0.093067
H	0.1607949650099451 0.5000000000000000 0.7277894501146654	0.119476
H	0.3401962889410104 0.5000000000000000 0.7383999107448270	0.093067
H	0.3392050349900546 0.0000000000000000 0.2277894501146658	0.119474
H	0.1598037290589840 0.0000000000000000 0.2383998807448247	0.093067
H	0.8392050349900549 0.5000000000000000 0.7277894501146654	0.119474
H	0.6598036760589832 0.5000000000000000 0.7383999107448270	0.093067
H	-0.0000000000000000 0.3392050349900546 0.7722105498853346	0.119474
H	-0.0000000000000000 0.1598037290589840 0.7616000312551753	0.093067
H	0.5000000000000000 0.8392050349900549 0.2722105498853342	0.119474
H	0.5000000000000000 0.6598036760589832 0.2616001192551753	0.093067
H	-0.0000000000000000 0.6607949650099451 0.7722105498853346	0.119473
H	-0.0000000000000000 0.8401963239410168 0.7616000312551753	0.093067
H	0.5000000000000000 0.1607949650099451 0.2722105498853342	0.119473
H	0.5000000000000000 0.3401962889410104 0.2616001192551753	0.093067
H	0.3392050349900546 0.0000000000000000 0.7722105498853346	0.119473
H	0.1598037290589840 0.0000000000000000 0.7616000312551753	0.093067
H	0.8392050349900549 0.5000000000000000 0.2722105498853342	0.119473
H	0.6598036760589832 0.5000000000000000 0.2616001192551753	0.093067
H	0.6607949650099451 0.0000000000000000 0.7722105498853346	0.119474
H	0.8401963239410168 0.0000000000000000 0.7616000312551753	0.093067
H	0.1607949650099451 0.5000000000000000 0.2722105498853342	0.119474
H	0.3401962889410104 0.5000000000000000 0.2616001192551753	0.093067
Ni	-0.0000000000000000 0.0000000000000000 0.5000000000000000	0.764831
Ni	0.5000000000000000 0.5000000000000000 -0.0000000000000000	0.764831
Ge	-0.0000000000000000 0.0000000000000000 -0.0000000000000000	1.754211
Ge	0.5000000000000000 0.5000000000000000 0.5000000000000000	1.754211
N	-0.0000000000000000 0.1519312524613020 0.5000000000000000	-0.237082
N	0.5000000000000000 0.6519312344613009 -0.0000000000000000	-0.237082
N	-0.0000000000000000 0.8480687655386991 0.5000000000000000	-0.237081
N	0.5000000000000000 0.3480687655386995 -0.0000000000000000	-0.237081
N	0.8480687655386991 0.0000000000000000 0.5000000000000000	-0.237083
N	0.3480687655386995 0.5000000000000000 -0.0000000000000000	-0.237083
N	0.1519312524613020 0.0000000000000000 0.5000000000000000	-0.237082
N	0.6519312344613009 0.5000000000000000 -0.0000000000000000	-0.237082
F	-0.0000000000000000 0.0000000000000000 0.7609272099354372	-0.512007
F	0.5000000000000000 0.5000000000000000 0.2609272989354410	-0.512007
F	-0.0000000000000000 0.0000000000000000 0.2390727160645638	-0.512007
F	0.5000000000000000 0.5000000000000000 0.7390727900645628	-0.512007
F	0.5923162931738564 0.5923162931738564 0.5000000000000000	-0.526943
F	0.5923162931738564 0.4076837068261438 0.5000000000000000	-0.526943
F	0.4076837068261438 0.5923162931738564 0.5000000000000000	-0.526943
F	0.4076837068261438 0.4076837068261438 0.5000000000000000	-0.526943
F	0.0923163101738541 0.0923163101738541 -0.0000000000000000	-0.526943
F	0.9076837068261436 0.9076837068261436 -0.0000000000000000	-0.526943
F	0.9076837068261436 0.0923163101738541 -0.0000000000000000	-0.526943
F	0.0923163101738541 0.9076837068261436 -0.0000000000000000	-0.526943
	  	
