#======================================================================

# CRYSTAL DATA

#----------------------------------------------------------------------

data_VESTA_phase_1


_pd_phase_name                         GeFSIX_1_Cu
_cell_length_a                         11.09874
_cell_length_b                         11.09874
_cell_length_c                         8.14998
_cell_angle_alpha                      90
_cell_angle_beta                       90
_cell_angle_gamma                      90
_symmetry_space_group_name_H-M         P 1
_symmetry_Int_Tables_number            1

loop_
_symmetry_equiv_pos_as_xyz
   x, y, z

loop_
   _atom_site_label
   _atom_site_fract_x
   _atom_site_fract_y
   _atom_site_fract_z
   _atom_site_charge
C	0.2565889134700082 0.4579304537045049 0.3690376227192655	0.104921
C	0.1314673333416001 0.4570512618608563 0.3646429293152803	-0.169193
C	0.7434111735299955 0.5420695892954953 0.3690376227192655	0.104921
C	0.8685327106584032 0.5429487381391436 0.3646429293152803	-0.169193
C	0.5420695892954953 0.2565889134700082 0.3690376227192655	0.104921
C	0.5429487381391436 0.1314673333416001 0.3646429293152803	-0.169193
C	0.4579304537045049 0.7434111735299955 0.3690376227192655	0.104921
C	0.4570512618608563 0.8685327106584032 0.3646429293152803	-0.169193
C	0.7434111735299955 0.4579304537045049 0.6309623472807320	0.104921
C	0.8685327106584032 0.4570512618608563 0.6353570416847139	-0.169192
C	0.2565889134700082 0.5420695892954953 0.6309623472807320	0.104921
C	0.1314673333416001 0.5429487381391436 0.6353570416847139	-0.169192
C	0.4579304537045049 0.2565889134700082 0.6309623472807320	0.104921
C	0.4570512618608563 0.1314673333416001 0.6353570416847139	-0.169192
C	0.5420695892954953 0.7434111735299955 0.6309623472807320	0.104921
C	0.5429487381391436 0.8685327106584032 0.6353570416847139	-0.169192
C	0.0665199295379074 0.5000000000000000 0.5000000000000000	0.100016
C	0.9334801464620917 0.5000000000000000 0.5000000000000000	0.100018
C	0.5000000000000000 0.0665199295379074 0.5000000000000000	0.100016
C	0.5000000000000000 0.9334801464620917 0.5000000000000000	0.100018
H	0.3099300233143404 0.4257630549537099 0.2656094428034171	0.105422
H	0.0855888973881734 0.4210436683072179 0.2572171552885409	0.126173
H	0.6900699336856594 0.5742369450462902 0.2656094428034171	0.105422
H	0.9144111186118279 0.5789563316927823 0.2572171552885409	0.126172
H	0.5742369450462902 0.3099300233143404 0.2656094428034171	0.105422
H	0.5789563316927823 0.0855888973881734 0.2572171552885409	0.126173
H	0.4257630549537099 0.6900699336856594 0.2656094428034171	0.105422
H	0.4210436683072179 0.9144111186118279 0.2572171552885409	0.126173
H	0.6900699336856594 0.4257630549537099 0.7343905281965841	0.105422
H	0.9144111186118279 0.4210436683072179 0.7427829037114604	0.126172
H	0.3099300233143404 0.5742369450462902 0.7343905281965841	0.105422
H	0.0855888973881734 0.5789563316927823 0.7427829037114604	0.126171
H	0.4257630549537099 0.3099300233143404 0.7343905281965841	0.105422
H	0.4210436683072179 0.0855888973881734 0.7427829037114604	0.126172
H	0.5742369450462902 0.6900699336856594 0.7343905281965841	0.105422
H	0.5789563316927823 0.9144111186118279 0.7427829037114604	0.126172
Cu	0.5000000000000000 0.5000000000000000 0.5000000000000000	0.713824
Ge	0.5000000000000000 0.5000000000000000 -0.0000000000000000	1.777055
F	0.5000000000000000 0.5000000000000000 0.7721925952285872	-0.544618
F	0.5000000000000000 0.5000000000000000 0.2278074047714126	-0.544618
F	0.3833501044602842 0.3833501044602842 -0.0000000000000000	-0.558777
F	0.6166498955397159 0.6166498955397159 -0.0000000000000000	-0.558777
F	0.6166498955397159 0.3833501044602842 -0.0000000000000000	-0.558777
F	0.3833501044602842 0.6166498955397159 -0.0000000000000000	-0.558777
N	0.3175266705265026 0.5000000000000000 0.5000000000000000	-0.226297
N	0.6824733514734992 0.5000000000000000 0.5000000000000000	-0.226296
N	0.5000000000000000 0.3175266705265026 0.5000000000000000	-0.226297
N	0.5000000000000000 0.6824733514734992 0.5000000000000000	-0.226297
	  	
