#======================================================================

# CRYSTAL DATA

#----------------------------------------------------------------------

data_VESTA_phase_1


_pd_phase_name                         GeFSIX_1_Ni
_cell_length_a                         11.25650
_cell_length_b                         11.25650
_cell_length_c                         7.81139
_cell_angle_alpha                      90
_cell_angle_beta                       90
_cell_angle_gamma                      90
_symmetry_space_group_name_H-M         P 1
_symmetry_Int_Tables_number            1

loop_
_symmetry_equiv_pos_as_xyz
   x, y, z

loop_
   _atom_site_label
   _atom_site_fract_x
   _atom_site_fract_y
   _atom_site_fract_z
   _atom_site_charge
C	0.2530930229631534 0.4568477875550754 0.3652753937650124	0.104597
C	0.1297033372415380 0.4562540786892376 0.3601658455208609	-0.173762
C	0.7469070640368498 0.5431522554449245 0.3652753937650124	0.104597
C	0.8702967067584658 0.5437459213107624 0.3601658455208609	-0.173762
C	0.5431522554449245 0.2530930229631534 0.3652753937650124	0.104597
C	0.5437459213107624 0.1297033372415380 0.3601658455208609	-0.173762
C	0.4568477875550754 0.7469070640368498 0.3652753937650124	0.104597
C	0.4562540786892376 0.8702967067584658 0.3601658455208609	-0.173761
C	0.7469070640368498 0.4568477875550754 0.6347245762349849	0.104597
C	0.8702967067584658 0.4562540786892376 0.6398341254791331	-0.173760
C	0.2530930229631534 0.5431522554449245 0.6347245762349849	0.104597
C	0.1297033372415380 0.5437459213107624 0.6398341254791331	-0.173760
C	0.4568477875550754 0.2530930229631534 0.6347245762349849	0.104597
C	0.4562540786892376 0.1297033372415380 0.6398341254791331	-0.173760
C	0.5431522554449245 0.7469070640368498 0.6347245762349849	0.104597
C	0.5437459213107624 0.8702967067584658 0.6398341254791331	-0.173760
C	0.0654192333431341 0.5000000000000000 0.5000000000000000	0.100874
C	0.9345808426568648 0.5000000000000000 0.5000000000000000	0.100872
C	0.5000000000000000 0.0654192333431341 0.5000000000000000	0.100874
C	0.5000000000000000 0.9345808426568648 0.5000000000000000	0.100872
H	0.3046169245797480 0.4227946121371816 0.2577185702218131	0.098970
H	0.0844348996735526 0.4198602606525470 0.2486430099153996	0.121521
H	0.6953830324202523 0.5772053878628184 0.2577185702218131	0.098970
H	0.9155651163264484 0.5801397393474530 0.2486430099153996	0.121521
H	0.5772053878628184 0.3046169245797480 0.2577185702218131	0.098969
H	0.5801397393474530 0.0844348996735526 0.2486430099153996	0.121522
H	0.4227946121371816 0.6953830324202523 0.2577185702218131	0.098970
H	0.4198602606525470 0.9155651163264484 0.2486430099153996	0.121521
H	0.6953830324202523 0.4227946121371816 0.7422814007781880	0.098970
H	0.9155651163264484 0.4198602606525470 0.7513570490846022	0.121520
H	0.3046169245797480 0.5772053878628184 0.7422814007781880	0.098969
H	0.0844348996735526 0.5801397393474530 0.7513570490846022	0.121520
H	0.4227946121371816 0.3046169245797480 0.7422814007781880	0.098969
H	0.4198602606525470 0.0844348996735526 0.7513570490846022	0.121521
H	0.5772053878628184 0.6953830324202523 0.7422814007781880	0.098970
H	0.5801397393474530 0.9155651163264484 0.7513570490846022	0.121520
Ni	0.5000000000000000 0.5000000000000000 0.5000000000000000	0.758120
Ge	0.5000000000000000 0.5000000000000000 0.0000000000000000	1.776094
F	0.5000000000000000 0.5000000000000000 0.7600481863426584	-0.517147
F	0.5000000000000000 0.5000000000000000 0.2399518136573415	-0.517147
F	0.3858550579326593 0.3858550579326593 0.0000000000000000	-0.538302
F	0.6141449420673403 0.6141449420673403 0.0000000000000000	-0.538302
F	0.6141449420673403 0.3858550579326593 0.0000000000000000	-0.538302
F	0.3858550579326593 0.6141449420673403 0.0000000000000000	-0.538302
N	0.3141428212582242 0.5000000000000000 0.5000000000000000	-0.240204
N	0.6858572007417778 0.5000000000000000 0.5000000000000000	-0.240204
N	0.5000000000000000 0.3141428212582242 0.5000000000000000	-0.240204
N	0.5000000000000000 0.6858572007417778 0.5000000000000000	-0.240204
	  	
