#======================================================================

# CRYSTAL DATA

#----------------------------------------------------------------------

data_VESTA_phase_1


_pd_phase_name                         GeFSIX_15_Zn_i
_cell_length_a                         29.88432
_cell_length_b                         29.07541
_cell_length_c                         7.97744
_cell_angle_alpha                      90
_cell_angle_beta                       90
_cell_angle_gamma                      90
_symmetry_space_group_name_H-M         P 1
_symmetry_Int_Tables_number            1

loop_
_symmetry_equiv_pos_as_xyz
   x, y, z

loop_
   _atom_site_label
   _atom_site_fract_x
   _atom_site_fract_y
   _atom_site_fract_z
   _atom_site_charge
C	0.9330092319376211 0.1022728371742810 0.8956814584064052	0.105574
C	0.9010440195253197 0.0676649640238461 0.9014463921587871	-0.164971
C	0.7699064701779814 0.9363174276823033 0.9029436888451882	-0.115047
C	0.7357531613492545 0.9041248756306093 0.9027002263778203	-0.116230
C	0.5685362856849584 0.7419586363989634 0.8955492798007713	0.102619
C	0.6021740651329838 0.7748252346643001 0.9010812856824598	-0.168274
C	0.4330092639376164 0.6022728531742821 0.8956814584064052	0.105573
C	0.4010440515253226 0.5676649270238465 0.9014463921587871	-0.164971
C	0.2699064061779834 0.4363174606823029 0.9029436888451882	-0.115047
C	0.2357531293492517 0.4041249416306144 0.9027002263778203	-0.116230
C	0.0685363096849607 0.2419586193989655 0.8955492798007713	0.102618
C	0.1021740411329816 0.2748252676642988 0.9010812856824598	-0.168274
C	0.0669907360623837 0.8977271468257179 0.3956814894064042	0.105573
C	0.0989559564746781 0.9323350729761535 0.4014464241587827	-0.164972
C	0.2300935458220199 0.0636825353176969 0.4029437508451862	-0.115046
C	0.2642468546507469 0.0958750743693867 0.4027002263778203	-0.116231
C	0.4314636823150385 0.2580414136010338 0.3955493108007710	0.102619
C	0.3978259348670165 0.2251747323357012 0.4010812856824593	-0.168273
C	0.5669907680623789 0.3977271798257168 0.3956814894064042	0.105573
C	0.5989559804746803 0.4323350729761536 0.4014464241587827	-0.164972
C	0.7300935298220186 0.5636825723176967 0.4029437508451862	-0.115046
C	0.7642468386507455 0.5958751243693907 0.4027002263778203	-0.116231
C	0.9314637143150416 0.7580413636010366 0.3955493108007710	0.102619
C	0.8978259348670162 0.7251747653356999 0.4010812856824593	-0.168273
C	0.0669907360623837 0.1022728371742810 0.6043185105935959	0.105574
C	0.0989559564746781 0.0676649640238461 0.5985535138412122	-0.164970
C	0.2300935458220199 0.9363174276823033 0.5970562801548128	-0.115047
C	0.2642468546507469 0.9041248756306093 0.5972998046221787	-0.116230
C	0.4314636823150385 0.7419586363989634 0.6044506261992281	0.102619
C	0.3978259348670165 0.7748252346643001 0.5989186833175412	-0.168274
C	0.5669907680623789 0.6022728531742821 0.6043185105935958	0.105573
C	0.5989559804746803 0.5676649270238465 0.5985535138412122	-0.164971
C	0.7300935298220186 0.4363174606823029 0.5970562801548128	-0.115047
C	0.7642468386507455 0.4041249416306144 0.5972998046221787	-0.116230
C	0.9314637143150416 0.2419586193989655 0.6044506261992281	0.102619
C	0.8978259348670162 0.2748252676642988 0.5989186833175412	-0.168274
C	0.9330092319376211 0.8977271468257179 0.1043185265935971	0.105573
C	0.9010440195253197 0.9323350729761535 0.0985535528412118	-0.164971
C	0.7699064701779814 0.0636825353176969 0.0970562801548127	-0.115046
C	0.7357531613492545 0.0958750743693867 0.0972997896221739	-0.116230
C	0.5685362856849584 0.2580414136010338 0.1044506811992287	0.102619
C	0.6021740651329838 0.2251747323357012 0.0989187293175382	-0.168273
C	0.4330092639376164 0.3977271798257168 0.1043185265935971	0.105572
C	0.4010440515253226 0.4323350729761536 0.0985535528412118	-0.164971
C	0.2699064061779834 0.5636825723176967 0.0970562801548127	-0.115046
C	0.2357531293492517 0.5958751243693907 0.0972997896221739	-0.116231
C	0.0685363096849607 0.7580413636010366 0.1044506811992287	0.102619
C	0.1021740411329816 0.7251747653356999 0.0989187293175382	-0.168273
C	0.0669907360623837 0.8977271468257179 0.1043185265935971	0.105573
C	0.0989559564746781 0.9323350729761535 0.0985535528412118	-0.164971
C	0.2300935458220199 0.0636825353176969 0.0970562801548127	-0.115046
C	0.2642468546507469 0.0958750743693867 0.0972997896221739	-0.116231
C	0.4314636823150385 0.2580414136010338 0.1044506811992287	0.102619
C	0.3978259348670165 0.2251747323357012 0.0989187293175382	-0.168273
C	0.5669907680623789 0.3977271798257168 0.1043185265935971	0.105573
C	0.5989559804746803 0.4323350729761536 0.0985535528412118	-0.164972
C	0.7300935298220186 0.5636825723176967 0.0970562801548127	-0.115046
C	0.7642468386507455 0.5958751243693907 0.0972997896221739	-0.116231
C	0.9314637143150416 0.7580413636010366 0.1044506811992287	0.102619
C	0.8978259348670162 0.7251747653356999 0.0989187293175382	-0.168273
C	0.9330092319376211 0.1022728371742810 0.6043185105935958	0.105574
C	0.9010440195253197 0.0676649640238461 0.5985535138412122	-0.164971
C	0.7699064701779814 0.9363174276823033 0.5970562801548128	-0.115047
C	0.7357531613492545 0.9041248756306093 0.5972998046221787	-0.116230
C	0.5685362856849584 0.7419586363989634 0.6044506261992281	0.102620
C	0.6021740651329838 0.7748252346643001 0.5989186833175412	-0.168273
C	0.4330092639376164 0.6022728531742821 0.6043185105935958	0.105573
C	0.4010440515253226 0.5676649270238465 0.5985535138412122	-0.164971
C	0.2699064061779834 0.4363174606823029 0.5970562801548128	-0.115047
C	0.2357531293492517 0.4041249416306144 0.5972998046221787	-0.116230
C	0.0685363096849607 0.2419586193989655 0.6044506261992281	0.102619
C	0.1021740411329816 0.2748252676642988 0.5989186833175412	-0.168274
C	0.9330092319376211 0.8977271468257179 0.3956814894064042	0.105573
C	0.9010440195253197 0.9323350729761535 0.4014464241587827	-0.164972
C	0.7699064701779814 0.0636825353176969 0.4029437508451862	-0.115046
C	0.7357531613492545 0.0958750743693867 0.4027002263778203	-0.116231
C	0.5685362856849584 0.2580414136010338 0.3955493108007710	0.102619
C	0.6021740651329838 0.2251747323357012 0.4010812856824593	-0.168273
C	0.4330092639376164 0.3977271798257168 0.3956814894064042	0.105573
C	0.4010440515253226 0.4323350729761536 0.4014464241587827	-0.164972
C	0.2699064061779834 0.5636825723176967 0.4029437508451862	-0.115046
C	0.2357531293492517 0.5958751243693907 0.4027002263778203	-0.116231
C	0.0685363096849607 0.7580413636010366 0.3955493108007710	0.102619
C	0.1021740411329816 0.7251747653356999 0.4010812856824593	-0.168273
C	0.0669907360623837 0.1022728371742810 0.8956814584064052	0.105574
C	0.0989559564746781 0.0676649640238461 0.9014463921587871	-0.164970
C	0.2300935458220199 0.9363174276823033 0.9029436888451882	-0.115047
C	0.2642468546507469 0.9041248756306093 0.9027002263778203	-0.116230
C	0.4314636823150385 0.7419586363989634 0.8955492798007713	0.102620
C	0.3978259348670165 0.7748252346643001 0.9010812856824598	-0.168273
C	0.5669907680623789 0.6022728531742821 0.8956814584064052	0.105573
C	0.5989559804746803 0.5676649270238465 0.9014463921587871	-0.164971
C	0.7300935298220186 0.4363174606823029 0.9029436888451882	-0.115047
C	0.7642468386507455 0.4041249416306144 0.9027002263778203	-0.116230
C	0.9314637143150416 0.2419586193989655 0.8955492798007713	0.102619
C	0.8978259348670162 0.2748252676642988 0.9010812856824598	-0.168274
C	0.6540310398031958 0.8255286705901665 0.7500000160000013	-0.104336
C	0.8843107754098636 0.0497553478075341 0.7500000160000013	0.162677
C	0.8218648439228106 0.9859730310827167 0.7500000160000013	-0.099396
C	0.6198058019813230 0.7920779629944910 0.7500000160000013	0.169621
C	0.7874195921721486 0.9528383221385469 0.7500000160000013	0.127120
C	0.7181767977685231 0.8874821636828121 0.7500000160000013	0.138757
C	0.6836640954988989 0.8543834757689763 0.7500000160000013	-0.101316
C	0.8511869418813008 0.0151834530783347 0.7500000160000013	-0.105469
C	0.1540310238031943 0.3255286705901668 0.7500000160000013	-0.104337
C	0.3843106794098625 0.5497553598075352 0.7500000160000013	0.162677
C	0.3218648439228106 0.4859730310827166 0.7500000160000013	-0.099396
C	0.1198057939813223 0.2920779629944905 0.7500000160000013	0.169621
C	0.2874195601721531 0.4528383221385469 0.7500000160000013	0.127120
C	0.2181767817685215 0.3874821966828116 0.7500000160000013	0.138757
C	0.1836640624989002 0.3543834427689772 0.7500000160000013	-0.101315
C	0.3511869098812981 0.5151834480783308 0.7500000160000013	-0.105469
C	0.3459689921968071 0.1744713294098332 0.2500000000000000	-0.104337
C	0.1156892965901426 0.9502446401924648 0.2500000000000000	0.162676
C	0.1781351560771894 0.0140269649172832 0.2500000000000000	-0.099395
C	0.3801941980186770 0.2079220210055081 0.2500000000000000	0.169620
C	0.2125804238278525 0.0471616698614525 0.2500000000000000	0.127120
C	0.2818232022314772 0.1125177953171878 0.2500000000000000	0.138758
C	0.3163359375010999 0.1456165242310239 0.2500000000000000	-0.101315
C	0.1488130901187020 0.9848165189216700 0.2500000000000000	-0.105470
C	0.8459689601968042 0.6744713294098335 0.2500000000000000	-0.104336
C	0.6156892245901364 0.4502446731924642 0.2500000000000000	0.162676
C	0.6781351560771894 0.5140269689172833 0.2500000000000000	-0.099395
C	0.8801941980186770 0.7079220370055090 0.2500000000000000	0.169620
C	0.7125804078278514 0.5471617108614523 0.2500000000000000	0.127120
C	0.7818232022314769 0.6125178363171879 0.2500000000000000	0.138758
C	0.8163359045011011 0.6456165242310237 0.2500000000000000	-0.101316
C	0.6488130581186992 0.4848165189216702 0.2500000000000000	-0.105470
C	0.3459689921968071 0.8255286705901665 0.7500000160000013	-0.104337
C	0.1156892965901426 0.0497553478075341 0.7500000160000013	0.162677
C	0.1781351560771894 0.9859730310827167 0.7500000160000013	-0.099396
C	0.3801941980186770 0.7920779629944910 0.7500000160000013	0.169621
C	0.2125804238278525 0.9528383221385469 0.7500000160000013	0.127120
C	0.2818232022314772 0.8874821636828121 0.7500000160000013	0.138757
C	0.3163359375010999 0.8543834757689763 0.7500000160000013	-0.101315
C	0.1488130901187020 0.0151834530783347 0.7500000160000013	-0.105469
C	0.8459689601968042 0.3255286705901668 0.7500000160000013	-0.104337
C	0.6156892245901364 0.5497553598075352 0.7500000160000013	0.162677
C	0.6781351560771894 0.4859730310827166 0.7500000160000013	-0.099396
C	0.8801941980186770 0.2920779629944905 0.7500000160000013	0.169621
C	0.7125804078278514 0.4528383221385469 0.7500000160000013	0.127120
C	0.7818232022314769 0.3874821966828116 0.7500000160000013	0.138757
C	0.8163359045011011 0.3543834427689772 0.7500000160000013	-0.101315
C	0.6488130581186992 0.5151834480783308 0.7500000160000013	-0.105469
C	0.6540310398031958 0.1744713294098332 0.2500000000000000	-0.104336
C	0.8843107754098636 0.9502446401924648 0.2500000000000000	0.162676
C	0.8218648439228106 0.0140269649172832 0.2500000000000000	-0.099395
C	0.6198058019813230 0.2079220210055081 0.2500000000000000	0.169620
C	0.7874195921721486 0.0471616698614525 0.2500000000000000	0.127120
C	0.7181767977685231 0.1125177953171878 0.2500000000000000	0.138758
C	0.6836640954988989 0.1456165242310239 0.2500000000000000	-0.101315
C	0.8511869418813008 0.9848165189216700 0.2500000000000000	-0.105470
C	0.1540310238031943 0.6744713294098335 0.2500000000000000	-0.104337
C	0.3843106794098625 0.4502446731924642 0.2500000000000000	0.162676
C	0.3218648439228106 0.5140269689172833 0.2500000000000000	-0.099395
C	0.1198057939813223 0.7079220370055090 0.2500000000000000	0.169621
C	0.2874195601721531 0.5471617108614523 0.2500000000000000	0.127120
C	0.2181767817685215 0.6125178363171879 0.2500000000000000	0.138758
C	0.1836640624989002 0.6456165242310237 0.2500000000000000	-0.101315
C	0.3511869098812981 0.4848165189216702 0.2500000000000000	-0.105470
H	0.9464978344600176 0.1168727190776237 0.0107029275294147	0.095197
H	0.8890876091701825 0.0546240052578668 0.0213404576937350	0.120385
H	0.7836696003326833 0.9492164706423715 0.0204510465155541	0.106521
H	0.7220800520338529 0.8911941486506587 0.0201230596110492	0.115690
H	0.5543512827934256 0.7280948386552912 0.0106329935416548	0.094570
H	0.6147649444156159 0.7870419138151777 0.0210953024308298	0.125746
H	0.4464979304600188 0.6168727350776251 0.0107029275294147	0.095202
H	0.3890875451701841 0.5546240342578730 0.0213404576937350	0.120385
H	0.2836696003326834 0.4492164706423710 0.0204510465155541	0.106521
H	0.2220800680338543 0.3911942476506636 0.0201230596110492	0.115690
H	0.0543512907934266 0.2280948876552918 0.0106329935416548	0.094574
H	0.1147649604156102 0.2870418478151795 0.0210953024308298	0.125746
H	0.0535021055399773 0.8831272649223749 0.5107029565294137	0.095202
H	0.1109124388298145 0.9453759657421270 0.5213404926937344	0.120385
H	0.2163304316673192 0.0507835463576339 0.5204510785155564	0.106521
H	0.2779199479661470 0.1088057773493420 0.5201230556110488	0.115690
H	0.4456487172065741 0.2719050953447104 0.5106329935416548	0.094570
H	0.3852350555843840 0.2129581031848201 0.5210953334308286	0.125746
H	0.5535021655399824 0.3831272649223751 0.5107029565294137	0.095202
H	0.6109123908298175 0.4453759987421336 0.5213404926937344	0.120385
H	0.7163303996673167 0.5507835293576285 0.5204510785155564	0.106521
H	0.7779199479661471 0.6088058513493413 0.5201230556110488	0.115690
H	0.9456487172065744 0.7719051613447088 0.5106329935416548	0.094570
H	0.8852350555843841 0.7129580861848223 0.5210953334308286	0.125746
H	0.0535021055399773 0.1168727190776237 0.4892970744705856	0.095198
H	0.1109124388298145 0.0546240052578668 0.4786595073062586	0.120385
H	0.2163304316673192 0.9492164706423715 0.4795489534844459	0.106521
H	0.2779199479661470 0.8911941486506587 0.4798769443889512	0.115690
H	0.4456487172065741 0.7280948386552912 0.4893670384583477	0.094570
H	0.3852350555843840 0.7870419138151777 0.4789046975691700	0.125746
H	0.5535021655399824 0.6168727350776251 0.4892970744705856	0.095202
H	0.6109123908298175 0.5546240342578730 0.4786595073062586	0.120385
H	0.7163303996673167 0.4492164706423710 0.4795489534844459	0.106521
H	0.7779199479661471 0.3911942476506636 0.4798769443889512	0.115690
H	0.9456487172065744 0.2280948876552918 0.4893670384583477	0.094574
H	0.8852350555843841 0.2870418478151795 0.4789046975691700	0.125746
H	0.9464978344600176 0.8831272649223749 0.9892970744705853	0.095202
H	0.8890876091701825 0.9453759657421270 0.9786594763062595	0.120386
H	0.7836696003326833 0.0507835463576339 0.9795489534844463	0.106521
H	0.7220800520338529 0.1088057773493420 0.9798769133889451	0.115690
H	0.5543512827934256 0.2719050953447104 0.9893670064583452	0.094570
H	0.6147649444156159 0.2129581031848201 0.9789046975691704	0.125746
H	0.4464979304600188 0.3831272649223751 0.9892970744705853	0.095202
H	0.3890875451701841 0.4453759987421336 0.9786594763062595	0.120386
H	0.2836696003326834 0.5507835293576285 0.9795489534844463	0.106521
H	0.2220800680338543 0.6088058513493413 0.9798769133889451	0.115690
H	0.0543512907934266 0.7719051613447088 0.9893670064583452	0.094570
H	0.1147649604156102 0.7129580861848223 0.9789046975691704	0.125746
H	0.0535021055399773 0.8831272649223749 0.9892970744705853	0.095202
H	0.1109124388298145 0.9453759657421270 0.9786594763062595	0.120386
H	0.2163304316673192 0.0507835463576339 0.9795489534844463	0.106521
H	0.2779199479661470 0.1088057773493420 0.9798769133889451	0.115690
H	0.4456487172065741 0.2719050953447104 0.9893670064583452	0.094570
H	0.3852350555843840 0.2129581031848201 0.9789046975691704	0.125746
H	0.5535021655399824 0.3831272649223751 0.9892970744705853	0.095202
H	0.6109123908298175 0.4453759987421336 0.9786594763062595	0.120386
H	0.7163303996673167 0.5507835293576285 0.9795489534844463	0.106521
H	0.7779199479661471 0.6088058513493413 0.9798769133889451	0.115690
H	0.9456487172065744 0.7719051613447088 0.9893670064583452	0.094570
H	0.8852350555843841 0.7129580861848223 0.9789046975691704	0.125747
H	0.9464978344600176 0.1168727190776237 0.4892970744705856	0.095197
H	0.8890876091701825 0.0546240052578668 0.4786595073062586	0.120385
H	0.7836696003326833 0.9492164706423715 0.4795489534844459	0.106521
H	0.7220800520338529 0.8911941486506587 0.4798769443889512	0.115690
H	0.5543512827934256 0.7280948386552912 0.4893670384583477	0.094570
H	0.6147649444156159 0.7870419138151777 0.4789046975691700	0.125747
H	0.4464979304600188 0.6168727350776251 0.4892970744705856	0.095202
H	0.3890875451701841 0.5546240342578730 0.4786595073062586	0.120385
H	0.2836696003326834 0.4492164706423710 0.4795489534844459	0.106521
H	0.2220800680338543 0.3911942476506636 0.4798769443889512	0.115690
H	0.0543512907934266 0.2280948876552918 0.4893670384583477	0.094574
H	0.1147649604156102 0.2870418478151795 0.4789046975691700	0.125747
H	0.9464978344600176 0.8831272649223749 0.5107029565294137	0.095202
H	0.8890876091701825 0.9453759657421270 0.5213404926937344	0.120385
H	0.7836696003326833 0.0507835463576339 0.5204510785155564	0.106521
H	0.7220800520338529 0.1088057773493420 0.5201230556110488	0.115690
H	0.5543512827934256 0.2719050953447104 0.5106329935416548	0.094570
H	0.6147649444156159 0.2129581031848201 0.5210953334308286	0.125746
H	0.4464979304600188 0.3831272649223751 0.5107029565294137	0.095202
H	0.3890875451701841 0.4453759987421336 0.5213404926937344	0.120385
H	0.2836696003326834 0.5507835293576285 0.5204510785155564	0.106521
H	0.2220800680338543 0.6088058513493413 0.5201230556110488	0.115690
H	0.0543512907934266 0.7719051613447088 0.5106329935416548	0.094570
H	0.1147649604156102 0.7129580861848223 0.5210953334308286	0.125746
H	0.0535021055399773 0.1168727190776237 0.0107029275294147	0.095197
H	0.1109124388298145 0.0546240052578668 0.0213404576937350	0.120385
H	0.2163304316673192 0.9492164706423715 0.0204510465155541	0.106521
H	0.2779199479661470 0.8911941486506587 0.0201230596110492	0.115690
H	0.4456487172065741 0.7280948386552912 0.0106329935416548	0.094570
H	0.3852350555843840 0.7870419138151777 0.0210953024308298	0.125747
H	0.5535021655399824 0.6168727350776251 0.0107029275294147	0.095202
H	0.6109123908298175 0.5546240342578730 0.0213404576937350	0.120385
H	0.7163303996673167 0.4492164706423710 0.0204510465155541	0.106521
H	0.7779199479661471 0.3911942476506636 0.0201230596110492	0.115690
H	0.9456487172065744 0.2280948876552918 0.0106329935416548	0.094574
H	0.8852350555843841 0.2870418478151795 0.0210953024308298	0.125746
Zn	0.5000000000000000 0.6729054539571823 0.7500000160000013	0.739188
Zn	0.0000000000000000 0.1729054709571800 0.7500000160000013	0.739220
Zn	0.5000000000000000 0.3270945460428180 0.2500000000000000	0.739188
Zn	0.0000000000000000 0.8270945460428177 0.2500000000000000	0.739188
Ge	0.5000000000000000 0.6730069497757590 0.2500000000000000	1.759268
Ge	0.0000000000000000 0.1730069497757595 0.2500000000000000	1.759263
Ge	0.5000000000000000 0.3269930822242429 0.7500000160000013	1.759268
Ge	0.0000000000000000 0.8269930502242410 0.7500000160000013	1.759268
F	0.5000000000000000 0.7354383166463219 0.2500000000000000	-0.539210
F	0.5000000000000000 0.6105774382285778 0.2500000000000000	-0.536998
F	0.0000000000000000 0.2354382676463216 0.2500000000000000	-0.539199
F	0.0000000000000000 0.1105774222285763 0.2500000000000000	-0.537001
F	0.5000000000000000 0.2645617323536784 0.7500000160000013	-0.539209
F	0.5000000000000000 0.3894225287714232 0.7500000160000013	-0.536999
F	0.0000000000000000 0.7645616833536781 0.7500000160000013	-0.539209
F	0.0000000000000000 0.8894225617714222 0.7500000160000013	-0.536999
F	0.5607564309265062 0.6730358022109754 0.2500000000000000	-0.538940
F	0.0607564509265078 0.1730358352109743 0.2500000000000000	-0.538937
F	0.4392435370734912 0.3269641317890263 0.7500000160000013	-0.538940
F	0.9392435690734938 0.8269641977890246 0.7500000160000013	-0.538940
F	0.4392435370734912 0.6730358022109754 0.2500000000000000	-0.538940
F	0.9392435690734938 0.1730358352109743 0.2500000000000000	-0.538937
F	0.5607564309265062 0.3269641317890263 0.7500000160000013	-0.538940
F	0.0607564509265078 0.8269641977890246 0.7500000160000013	-0.538940
F	0.5000000000000000 0.6729274831477257 0.4860170119102082	-0.505137
F	0.0000000000000000 0.1729275001477235 0.4860170119102082	-0.505152
F	0.5000000000000000 0.3270725498522735 0.9860170119102082	-0.505137
F	0.0000000000000000 0.8270725168522743 0.9860170119102082	-0.505137
F	0.5000000000000000 0.6729274831477257 0.0139829840897915	-0.505137
F	0.0000000000000000 0.1729275001477235 0.0139829840897915	-0.505152
F	0.5000000000000000 0.3270725498522735 0.5139829560897963	-0.505137
F	0.0000000000000000 0.8270725168522743 0.5139829560897963	-0.505137
N	0.5518069782734100 0.7255621301163616 0.7500000160000013	-0.229859
N	0.9488424321886382 0.1194872564995738 0.7500000160000013	-0.228420
N	0.0518069422734070 0.2255621141163608 0.7500000160000013	-0.229860
N	0.4488424321886386 0.6194872404995724 0.7500000160000013	-0.228416
N	0.4481930857265880 0.2744378698836379 0.2500000000000000	-0.229859
N	0.0511575758113622 0.8805127595004276 0.2500000000000000	-0.228416
N	0.9481930217265900 0.7744378698836384 0.2500000000000000	-0.229858
N	0.5511575678113618 0.3805127595004275 0.2500000000000000	-0.228416
N	0.4481930857265880 0.7255621301163616 0.7500000160000013	-0.229859
N	0.0511575758113622 0.1194872564995738 0.7500000160000013	-0.228420
N	0.9481930217265900 0.2255621141163608 0.7500000160000013	-0.229860
N	0.5511575678113618 0.6194872404995724 0.7500000160000013	-0.228416
N	0.5518069782734100 0.2744378698836379 0.2500000000000000	-0.229859
N	0.9488424321886382 0.8805127595004276 0.2500000000000000	-0.228416
N	0.0518069422734070 0.7744378698836384 0.2500000000000000	-0.229858
N	0.4488424321886386 0.3805127595004275 0.2500000000000000	-0.228416
	  	
