#======================================================================

# CRYSTAL DATA

#----------------------------------------------------------------------

data_VESTA_phase_1


_pd_phase_name                         GeFSIX_5_Fe_i
_cell_length_a                         19.66824
_cell_length_b                         19.66824
_cell_length_c                         15.35784
_cell_angle_alpha                      90
_cell_angle_beta                       90
_cell_angle_gamma                      90
_symmetry_space_group_name_H-M         P 1
_symmetry_Int_Tables_number            1

loop_
_symmetry_equiv_pos_as_xyz
   x, y, z

loop_
   _atom_site_label
   _atom_site_fract_x
   _atom_site_fract_y
   _atom_site_fract_z
   _atom_site_charge
F	0.3221657419149684 0.1924746889709029 0.3514460920690856	-0.539217
F	0.1778342460850308 0.3075253110290971 0.3514460920690856	-0.539221
F	0.3075253110290971 0.3221657419149684 0.3514460920690856	-0.539220
F	0.1924746889709029 0.1778342460850308 0.3514460920690856	-0.539218
F	0.6778342820850267 0.6924747129709049 0.1485539079309144	-0.539218
F	0.8221657179149733 0.8075252870290951 0.1485539079309144	-0.539219
F	0.6924747129709049 0.8221657179149733 0.1485539079309144	-0.539220
F	0.8075252870290951 0.6778342820850267 0.1485539079309144	-0.539218
F	0.6778342820850267 0.8075252870290951 0.6485539399309169	-0.539221
F	0.8221657179149733 0.6924747129709049 0.6485539399309169	-0.539217
F	0.6924747129709049 0.6778342820850267 0.6485539399309169	-0.539218
F	0.8075252870290951 0.8221657179149733 0.6485539399309169	-0.539220
F	0.3221657419149684 0.3075253110290971 0.8514460600690831	-0.539220
F	0.1778342460850308 0.1924746889709029 0.8514460600690831	-0.539218
F	0.3075253110290971 0.1778342460850308 0.8514460600690831	-0.539218
F	0.1924746889709029 0.3221657419149684 0.8514460600690831	-0.539220
F	0.2500000000000000 0.2500000000000000 0.4723740733240900	-0.486653
F	0.2500000000000000 0.2500000000000000 0.2301323114505677	-0.488723
F	0.7500000000000000 0.7500000000000000 0.0276259536759086	-0.486653
F	0.7500000000000000 0.7500000000000000 0.2698676725494310	-0.488724
F	0.7500000000000000 0.7500000000000000 0.5276259576759085	-0.486651
F	0.7500000000000000 0.7500000000000000 0.7698676725494309	-0.488725
F	0.2500000000000000 0.2500000000000000 0.9723740423240915	-0.486651
F	0.2500000000000000 0.2500000000000000 0.7301323274505691	-0.488725
N	0.3517348892745921 0.2478133815112881 0.6014084432562080	-0.214308
N	0.1482651107254080 0.2521866184887119 0.6014084432562080	-0.214308
N	0.2521866184887119 0.3517348892745921 0.6014084432562080	-0.214308
N	0.2478133815112881 0.1482651107254080 0.6014084432562080	-0.214307
N	0.6482651347254100 0.7478133575112860 0.8985915567437920	-0.214308
N	0.8517348652745900 0.7521866424887140 0.8985915567437920	-0.214308
N	0.7478133575112860 0.8517348652745900 0.8985915567437920	-0.214308
N	0.7521866424887140 0.6482651347254100 0.8985915567437920	-0.214307
N	0.6482651347254100 0.7521866424887140 0.3985915877437911	-0.214306
N	0.8517348652745900 0.7478133575112860 0.3985915877437911	-0.214306
N	0.7478133575112860 0.6482651347254100 0.3985915877437911	-0.214305
N	0.7521866424887140 0.8517348652745900 0.3985915877437911	-0.214306
N	0.3517348892745921 0.2521866184887119 0.1014084432562078	-0.214306
N	0.1482651107254080 0.2478133815112881 0.1014084432562078	-0.214306
N	0.2521866184887119 0.1482651107254080 0.1014084432562078	-0.214305
N	0.2478133815112881 0.3517348892745921 0.1014084432562078	-0.214306
C	0.3857445457018576 0.2175555270346221 0.6672406348525410	0.092535
C	0.4561942155538116 0.2159854318476212 0.6708524272203769	-0.175422
C	0.4946466397777277 0.2471397033949230 0.6050262701622614	0.102151
C	0.4585699971063095 0.2781393960948991 0.5368525506023106	-0.178327
C	0.3880113098870762 0.2772554735259944 0.5369288721571462	0.094544
C	0.5694596724781147 0.2477996523908245 0.6081833061546618	0.049263
C	0.6058637476130041 0.1907516424948530 0.6379544978217472	-0.132869
C	0.6764722775567453 0.1916045554349665 0.6405955367559588	-0.124588
C	0.7127407089616706 0.2498179013123617 0.6153031500974793	0.066821
C	0.6764876235556027 0.3071011153835804 0.5867475453277639	-0.118279
C	0.6059325002182675 0.3059019324114838 0.5823189487944695	-0.129696
C	0.1142554302981476 0.2824444969653800 0.6672406348525410	0.092535
C	0.0438057244461905 0.2840145921523808 0.6708524272203769	-0.175425
C	0.0053533392222743 0.2528602966050769 0.6050262701622614	0.102148
C	0.0414300298936891 0.2218606039051009 0.5368525506023106	-0.178322
C	0.1119886541129208 0.2227445504740076 0.5369288721571462	0.094542
C	0.9305402795218884 0.2522003236091735 0.6081833061546618	0.049284
C	0.8941363003869928 0.3092483925051464 0.6379544978217472	-0.132871
C	0.8235277224432547 0.3083954565650274 0.6405955367559588	-0.124594
C	0.7872592910383294 0.2501820746876363 0.6153031500974793	0.066886
C	0.8235124234443977 0.1928988846164195 0.5867475453277639	-0.118328
C	0.8940675957817333 0.1940981025885156 0.5823189487944695	-0.129700
C	0.2824444969653800 0.3857445457018576 0.6672406348525410	0.092537
C	0.2840145921523808 0.4561942155538116 0.6708524272203769	-0.175425
C	0.2528602966050769 0.4946466397777277 0.6050262701622614	0.102150
C	0.2218606039051009 0.4585699971063095 0.5368525506023106	-0.178325
C	0.2227445504740076 0.3880113098870762 0.5369288721571462	0.094546
C	0.2522003236091735 0.5694596724781147 0.6081833061546618	0.049262
C	0.3092483925051464 0.6058637476130041 0.6379544978217472	-0.132870
C	0.3083954565650274 0.6764722775567453 0.6405955367559588	-0.124589
C	0.2501820746876363 0.7127407089616706 0.6153031500974793	0.066819
C	0.1928988846164195 0.6764876235556027 0.5867475453277639	-0.118279
C	0.1940981025885156 0.6059325002182675 0.5823189487944695	-0.129697
C	0.2175555270346221 0.1142554302981476 0.6672406348525410	0.092534
C	0.2159854318476212 0.0438057244461905 0.6708524272203769	-0.175423
C	0.2471397033949230 0.0053533392222743 0.6050262701622614	0.102149
C	0.2781393960948991 0.0414300298936891 0.5368525506023106	-0.178325
C	0.2772554735259944 0.1119886541129208 0.5369288721571462	0.094542
C	0.2477996523908245 0.9305402795218884 0.6081833061546618	0.049284
C	0.1907516424948530 0.8941363003869928 0.6379544978217472	-0.132871
C	0.1916045554349665 0.8235277224432547 0.6405955367559588	-0.124593
C	0.2498179013123617 0.7872592910383294 0.6153031500974793	0.066888
C	0.3071011153835804 0.8235124234443977 0.5867475453277639	-0.118329
C	0.3059019324114838 0.8940675957817333 0.5823189487944695	-0.129699
C	0.6142554302981478 0.7175555750346189 0.8327593651474590	0.092534
C	0.5438057364461915 0.7159854558476161 0.8291475727796231	-0.175421
C	0.5053533602222727 0.7471397513949201 0.8949737298377386	0.102148
C	0.5414300988936913 0.7781393480948949 0.9631474493976894	-0.178326
C	0.6119887141129187 0.7772554975259892 0.9630711278428538	0.094543
C	0.4305403275218854 0.7477997243908234 0.8918166938453382	0.049284
C	0.3941362523869956 0.6907516074948538 0.8620455021782528	-0.132873
C	0.3235276504432488 0.6916045194349704 0.8594044632440412	-0.124587
C	0.2872593390383333 0.7498179253123635 0.8846968499025207	0.066828
C	0.3235123284443935 0.8071011153835802 0.9132524546722361	-0.118322
C	0.3940675237817273 0.8059018614114815 0.9176810512055305	-0.129699
C	0.8857445697018522 0.7824444249653811 0.8327593651474590	0.092536
C	0.9561942635538085 0.7840145441523839 0.8291475727796231	-0.175426
C	0.9946466877777241 0.7528602486050799 0.8949737298377386	0.102150
C	0.9585699491063127 0.7218606519051051 0.9631474493976894	-0.178323
C	0.8880112858870813 0.7227445024740108 0.9630711278428538	0.094543
C	0.0694597084781104 0.7522002756091766 0.8918166938453382	0.049283
C	0.1058637356130034 0.8092483925051462 0.8620455021782528	-0.132873
C	0.1764723255567493 0.8083954325650328 0.8594044632440412	-0.124594
C	0.2127406609616667 0.7501820746876365 0.8846968499025207	0.066887
C	0.1764876475556045 0.6928988846164198 0.9132524546722361	-0.118329
C	0.1059324762182727 0.6940980915885182 0.9176810512055305	-0.129701
C	0.7175555750346189 0.8857445697018522 0.8327593651474590	0.092538
C	0.7159854558476161 0.9561942635538085 0.8291475727796231	-0.175423
C	0.7471397513949201 0.9946466877777241 0.8949737298377386	0.102149
C	0.7781393480948949 0.9585699491063127 0.9631474493976894	-0.178326
C	0.7772554975259892 0.8880112858870813 0.9630711278428538	0.094544
C	0.7477997243908234 0.0694597084781104 0.8918166938453382	0.049284
C	0.6907516074948538 0.1058637356130034 0.8620455021782528	-0.132876
C	0.6916045194349704 0.1764723255567493 0.8594044632440412	-0.124586
C	0.7498179253123635 0.2127406609616667 0.8846968499025207	0.066828
C	0.8071011153835802 0.1764876475556045 0.9132524546722361	-0.118323
C	0.8059018614114815 0.1059324762182727 0.9176810512055305	-0.129702
C	0.7824444249653811 0.6142554302981478 0.8327593651474590	0.092533
C	0.7840145441523839 0.5438057364461915 0.8291475727796231	-0.175424
C	0.7528602486050799 0.5053533602222727 0.8949737298377386	0.102149
C	0.7218606519051051 0.5414300988936913 0.9631474493976894	-0.178323
C	0.7227445024740108 0.6119887141129187 0.9630711278428538	0.094542
C	0.7522002756091766 0.4305403275218854 0.8918166938453382	0.049284
C	0.8092483925051462 0.3941362523869956 0.8620455021782528	-0.132871
C	0.8083954325650328 0.3235276504432488 0.8594044632440412	-0.124594
C	0.7501820746876365 0.2872593390383333 0.8846968499025207	0.066887
C	0.6928988846164198 0.3235123284443935 0.9132524546722361	-0.118329
C	0.6940980915885182 0.3940675237817273 0.9176810512055305	-0.129699
C	0.6142554302981478 0.7824444249653811 0.3327593961474579	0.092535
C	0.5438057364461915 0.7840145441523839 0.3291475727796231	-0.175423
C	0.5053533602222727 0.7528602486050799 0.3949737298377388	0.102148
C	0.5414300988936913 0.7218606519051051 0.4631474803976955	-0.178321
C	0.6119887141129187 0.7227445024740108 0.4630711278428537	0.094541
C	0.4305403275218854 0.7522002756091766 0.3918166938453382	0.049282
C	0.3941362523869956 0.8092483925051462 0.3620454711782538	-0.132863
C	0.3235276504432488 0.8083954325650328 0.3594044942440405	-0.124589
C	0.2872593390383333 0.7501820746876365 0.3846967559025199	0.066829
C	0.3235123284443935 0.6928988846164198 0.4132524856722354	-0.118320
C	0.3940675237817273 0.6940980915885182 0.4176810512055304	-0.129699
C	0.8857445697018522 0.7175555750346189 0.3327593961474579	0.092535
C	0.9561942635538085 0.7159854558476161 0.3291475727796231	-0.175421
C	0.9946466877777241 0.7471397513949201 0.3949737298377388	0.102151
C	0.9585699491063127 0.7781393480948949 0.4631474803976955	-0.178325
C	0.8880112858870813 0.7772554975259892 0.4630711278428537	0.094544
C	0.0694597084781104 0.7477997243908234 0.3918166938453382	0.049282
C	0.1058637356130034 0.6907516074948538 0.3620454711782538	-0.132865
C	0.1764723255567493 0.6916045194349704 0.3594044942440405	-0.124595
C	0.2127406609616667 0.7498179253123635 0.3846967559025199	0.066888
C	0.1764876475556045 0.8071011153835802 0.4132524856722354	-0.118330
C	0.1059324762182727 0.8059018614114815 0.4176810512055304	-0.129699
C	0.7175555750346189 0.6142554302981478 0.3327593961474579	0.092534
C	0.7159854558476161 0.5438057364461915 0.3291475727796231	-0.175421
C	0.7471397513949201 0.5053533602222727 0.3949737298377388	0.102149
C	0.7781393480948949 0.5414300988936913 0.4631474803976955	-0.178323
C	0.7772554975259892 0.6119887141129187 0.4630711278428537	0.094541
C	0.7477997243908234 0.4305403275218854 0.3918166938453382	0.049283
C	0.6907516074948538 0.3941362523869956 0.3620454711782538	-0.132863
C	0.6916045194349704 0.3235276504432488 0.3594044942440405	-0.124588
C	0.7498179253123635 0.2872593390383333 0.3846967559025199	0.066831
C	0.8071011153835802 0.3235123284443935 0.4132524856722354	-0.118321
C	0.8059018614114815 0.3940675237817273 0.4176810512055304	-0.129699
C	0.7824444249653811 0.8857445697018522 0.3327593961474579	0.092537
C	0.7840145441523839 0.9561942635538085 0.3291475727796231	-0.175423
C	0.7528602486050799 0.9946466877777241 0.3949737298377388	0.102149
C	0.7218606519051051 0.9585699491063127 0.4631474803976955	-0.178323
C	0.7227445024740108 0.8880112858870813 0.4630711278428537	0.094545
C	0.7522002756091766 0.0694597084781104 0.3918166938453382	0.049282
C	0.8092483925051462 0.1058637356130034 0.3620454711782538	-0.132865
C	0.8083954325650328 0.1764723255567493 0.3594044942440405	-0.124596
C	0.7501820746876365 0.2127406609616667 0.3846967559025199	0.066886
C	0.6928988846164198 0.1764876475556045 0.4132524856722354	-0.118328
C	0.6940980915885182 0.1059324762182727 0.4176810512055304	-0.129700
C	0.3857445457018576 0.2824444969653800 0.1672406198525433	0.092536
C	0.4561942155538116 0.2840145921523808 0.1708523962203779	-0.175424
C	0.4946466397777277 0.2528602966050769 0.1050262701622612	0.102151
C	0.4585699971063095 0.2218606039051009 0.0368525156023114	-0.178322
C	0.3880113098870762 0.2227445504740076 0.0369288641571456	0.094543
C	0.5694596724781147 0.2522003236091735 0.1081832981546610	0.049259
C	0.6058637476130041 0.3092483925051464 0.1379544978217471	-0.132856
C	0.6764722775567453 0.3083954565650274 0.1405954897559582	-0.124584
C	0.7127407089616706 0.2501820746876363 0.1153032210974817	0.066817
C	0.6764876235556027 0.1928988846164195 0.0867475293277623	-0.118271
C	0.6059325002182675 0.1940981025885156 0.0823189637944673	-0.129696
C	0.1142554302981476 0.2175555270346221 0.1672406198525433	0.092534
C	0.0438057244461905 0.2159854318476212 0.1708523962203779	-0.175420
C	0.0053533392222743 0.2471397033949230 0.1050262701622612	0.102148
C	0.0414300298936891 0.2781393960948991 0.0368525156023114	-0.178325
C	0.1119886541129208 0.2772554735259944 0.0369288641571456	0.094542
C	0.9305402795218884 0.2477996523908245 0.1081832981546610	0.049281
C	0.8941363003869928 0.1907516424948530 0.1379544978217471	-0.132860
C	0.8235277224432547 0.1916045554349665 0.1405954897559582	-0.124589
C	0.7872592910383294 0.2498179013123617 0.1153032210974817	0.066882
C	0.8235124234443977 0.3071011153835804 0.0867475293277623	-0.118322
C	0.8940675957817333 0.3059019324114838 0.0823189637944673	-0.129697
C	0.2824444969653800 0.1142554302981476 0.1672406198525433	0.092533
C	0.2840145921523808 0.0438057244461905 0.1708523962203779	-0.175423
C	0.2528602966050769 0.0053533392222743 0.1050262701622612	0.102149
C	0.2218606039051009 0.0414300298936891 0.0368525156023114	-0.178322
C	0.2227445504740076 0.1119886541129208 0.0369288641571456	0.094542
C	0.2522003236091735 0.9305402795218884 0.1081832981546610	0.049281
C	0.3092483925051464 0.8941363003869928 0.1379544978217471	-0.132860
C	0.3083954565650274 0.8235277224432547 0.1405954897559582	-0.124585
C	0.2501820746876363 0.7872592910383294 0.1153032210974817	0.066826
C	0.1928988846164195 0.8235124234443977 0.0867475293277623	-0.118316
C	0.1940981025885156 0.8940675957817333 0.0823189637944673	-0.129700
C	0.2175555270346221 0.3857445457018576 0.1672406198525433	0.092538
C	0.2159854318476212 0.4561942155538116 0.1708523962203779	-0.175421
C	0.2471397033949230 0.4946466397777277 0.1050262701622612	0.102150
C	0.2781393960948991 0.4585699971063095 0.0368525156023114	-0.178325
C	0.2772554735259944 0.3880113098870762 0.0369288641571456	0.094544
C	0.2477996523908245 0.5694596724781147 0.1081832981546610	0.049259
C	0.1907516424948530 0.6058637476130041 0.1379544978217471	-0.132856
C	0.1916045554349665 0.6764722775567453 0.1405954897559582	-0.124588
C	0.2498179013123617 0.7127407089616706 0.1153032210974817	0.066873
C	0.3071011153835804 0.6764876235556027 0.0867475293277623	-0.118276
C	0.3059019324114838 0.6059325002182675 0.0823189637944673	-0.129694
H	0.3551411090097907 0.1954486772319300 0.7191073506989902	0.100084
H	0.4808708138004490 0.1922437077078648 0.7266356964714343	0.116196
H	0.4852597132334335 0.3018372261580758 0.4825411784644638	0.116696
H	0.3590727762050588 0.2997768917273376 0.4837655406442479	0.098879
H	0.5782978458998583 0.1450311360377062 0.6576041211273173	0.098135
H	0.7044260983536157 0.1472511997492444 0.6637379769025616	0.099887
H	0.7043791260963196 0.3519735728623917 0.5650709605206092	0.100761
H	0.5784852773217233 0.3507966823941539 0.5596401224927972	0.101766
H	0.1448588549902062 0.3045513467680719 0.7191073506989902	0.100082
H	0.0191291921995443 0.3077563162921373 0.7266356964714343	0.116198
H	0.0147402757665691 0.1981627858419251 0.4825411784644638	0.116695
H	0.1409272477949431 0.2002230962726615 0.4837655406442479	0.098879
H	0.9217022011001420 0.3549688639622938 0.6576041211273173	0.098136
H	0.7955739016463843 0.3527487882507547 0.6637379769025616	0.099887
H	0.7956208739036804 0.1480264391376093 0.5650709605206092	0.100771
H	0.9215147226782767 0.1492033056058524 0.5596401224927972	0.101793
H	0.3045513467680719 0.3551411090097907 0.7191073506989902	0.100083
H	0.3077563162921373 0.4808708138004490 0.7266356964714343	0.116199
H	0.1981627858419251 0.4852597132334335 0.4825411784644638	0.116695
H	0.2002230962726615 0.3590727762050588 0.4837655406442479	0.098879
H	0.3549688639622938 0.5782978458998583 0.6576041211273173	0.098135
H	0.3527487882507547 0.7044260983536157 0.6637379769025616	0.099885
H	0.1480264391376093 0.7043791260963196 0.5650709605206092	0.100763
H	0.1492033056058524 0.5784852773217233 0.5596401224927972	0.101770
H	0.1954486772319300 0.1448588549902062 0.7191073506989902	0.100082
H	0.1922437077078648 0.0191291921995443 0.7266356964714343	0.116196
H	0.3018372261580758 0.0147402757665691 0.4825411784644638	0.116696
H	0.2997768917273376 0.1409272477949431 0.4837655406442479	0.098880
H	0.1450311360377062 0.9217022011001420 0.6576041211273173	0.098138
H	0.1472511997492444 0.7955739016463843 0.6637379769025616	0.099888
H	0.3519735728623917 0.7956208739036804 0.5650709605206092	0.100769
H	0.3507966823941539 0.9215147226782767 0.5596401224927972	0.101791
H	0.6448588429902053 0.6954486772319302 0.7808926493010098	0.100082
H	0.5191291381995469 0.6922436837078629 0.7733643035285657	0.116195
H	0.5147402867665666 0.8018372261580762 0.0174588065355313	0.116695
H	0.6409272237949407 0.7997768677273358 0.0162344873557544	0.098878
H	0.4217021541001420 0.6450311360377062 0.8423958788726827	0.098137
H	0.2955739256463861 0.6472512117492453 0.8362620230974384	0.099886
H	0.2956208739036805 0.8519735728623915 0.9349290394793908	0.100768
H	0.4215147706782737 0.8507967063941485 0.9403598775072028	0.101792
H	0.8551412050097915 0.8045513707680738 0.7808926493010098	0.100083
H	0.9808707658004523 0.8077563162921371 0.7733643035285657	0.116196
H	0.9852596652334366 0.6981627738419238 0.0174588065355313	0.116697
H	0.8590726802050584 0.7002231322726642 0.0162344873557544	0.098881
H	0.0782978458998581 0.8549688639622938 0.8423958788726827	0.098135
H	0.2044260743536138 0.8527487882507547 0.8362620230974384	0.099885
H	0.2043791260963195 0.6480264751376054 0.9349290394793908	0.100770
H	0.0784852713217227 0.6492032936058515 0.9403598775072028	0.101791
H	0.6954486772319302 0.8551412050097915 0.7808926493010098	0.100083
H	0.6922436837078629 0.9808707658004523 0.7733643035285657	0.116196
H	0.8018372261580762 0.9852596652334366 0.0174588065355313	0.116698
H	0.7997768677273358 0.8590726802050584 0.0162344873557544	0.098881
H	0.6450311360377062 0.0782978458998581 0.8423958788726827	0.098138
H	0.6472512117492453 0.2044260743536138 0.8362620230974384	0.099885
H	0.8519735728623915 0.2043791260963195 0.9349290394793908	0.100767
H	0.8507967063941485 0.0784852713217227 0.9403598775072028	0.101792
H	0.8045513707680738 0.6448588429902053 0.7808926493010098	0.100083
H	0.8077563162921371 0.5191291381995469 0.7733643035285657	0.116196
H	0.6981627738419238 0.5147402867665666 0.0174588065355313	0.116694
H	0.7002231322726642 0.6409272237949407 0.0162344873557544	0.098878
H	0.8549688639622938 0.4217021541001420 0.8423958788726827	0.098135
H	0.8527487882507547 0.2955739256463861 0.8362620230974384	0.099886
H	0.6480264751376054 0.2956208739036805 0.9349290394793908	0.100771
H	0.6492032936058515 0.4215147706782737 0.9403598775072028	0.101793
H	0.6448588429902053 0.8045513707680738 0.2808926813010054	0.100081
H	0.5191291381995469 0.8077563162921371 0.2733643345285643	0.116194
H	0.5147402867665666 0.6981627738419238 0.5174587905355371	0.116690
H	0.6409272237949407 0.7002231322726642 0.5162344593557520	0.098879
H	0.4217021541001420 0.8549688639622938 0.3423958478726840	0.098127
H	0.2955739256463861 0.8527487882507547 0.3362619910974359	0.099885
H	0.2956208739036805 0.6480264751376054 0.4349290704793895	0.100771
H	0.4215147706782737 0.6492032936058515 0.4403599395072006	0.101792
H	0.8551412050097915 0.6954486772319302 0.2808926813010054	0.100083
H	0.9808707658004523 0.6922436837078629 0.2733643345285643	0.116192
H	0.9852596652334366 0.8018372261580762 0.5174587905355371	0.116692
H	0.8590726802050584 0.7997768677273358 0.5162344593557520	0.098879
H	0.0782978458998581 0.6450311360377062 0.3423958478726840	0.098126
H	0.2044260743536138 0.6472512117492453 0.3362619910974359	0.099886
H	0.2043791260963195 0.8519735728623915 0.4349290704793895	0.100766
H	0.0784852713217227 0.8507967063941485 0.4403599395072006	0.101790
H	0.6954486772319302 0.6448588429902053 0.2808926813010054	0.100082
H	0.6922436837078629 0.5191291381995469 0.2733643345285643	0.116192
H	0.8018372261580762 0.5147402867665666 0.5174587905355371	0.116690
H	0.7997768677273358 0.6409272237949407 0.5162344593557520	0.098880
H	0.6450311360377062 0.4217021541001420 0.3423958478726840	0.098128
H	0.6472512117492453 0.2955739256463861 0.3362619910974359	0.099886
H	0.8519735728623915 0.2956208739036805 0.4349290704793895	0.100768
H	0.8507967063941485 0.4215147706782737 0.4403599395072006	0.101790
H	0.8045513707680738 0.8551412050097915 0.2808926813010054	0.100083
H	0.8077563162921371 0.9808707658004523 0.2733643345285643	0.116195
H	0.6981627738419238 0.9852596652334366 0.5174587905355371	0.116691
H	0.7002231322726642 0.8590726802050584 0.5162344593557520	0.098879
H	0.8549688639622938 0.0782978458998581 0.3423958478726840	0.098126
H	0.8527487882507547 0.2044260743536138 0.3362619910974359	0.099885
H	0.6480264751376054 0.2043791260963195 0.4349290704793895	0.100769
H	0.6492032936058515 0.0784852713217227 0.4403599395072006	0.101793
H	0.3551411090097907 0.3045513467680719 0.2191073506989901	0.100083
H	0.4808708138004490 0.3077563162921373 0.2266357114714393	0.116193
H	0.4852597132334335 0.1981627858419251 0.9825412404644690	0.116691
H	0.3590727762050588 0.2002230962726615 0.9837655096442490	0.098881
H	0.5782978458998583 0.3549688639622938 0.1576041361273148	0.098130
H	0.7044260983536157 0.3527487882507547 0.1637380239025618	0.099878
H	0.7043791260963196 0.1480264391376093 0.0650709215206098	0.100762
H	0.5784852773217233 0.1492033056058524 0.0596400834927977	0.101766
H	0.1448588549902062 0.1954486772319300 0.2191073506989901	0.100082
H	0.0191291921995443 0.1922437077078648 0.2266357114714393	0.116191
H	0.0147402757665691 0.3018372261580758 0.9825412404644690	0.116690
H	0.1409272477949431 0.2997768917273376 0.9837655096442490	0.098878
H	0.9217022011001420 0.1450311360377062 0.1576041361273148	0.098133
H	0.7955739016463843 0.1472511997492444 0.1637380239025618	0.099881
H	0.7956208739036804 0.3519735728623917 0.0650709215206098	0.100768
H	0.9215147226782767 0.3507966823941539 0.0596400834927977	0.101791
H	0.3045513467680719 0.1448588549902062 0.2191073506989901	0.100083
H	0.3077563162921373 0.0191291921995443 0.2266357114714393	0.116192
H	0.1981627858419251 0.0147402757665691 0.9825412404644690	0.116688
H	0.2002230962726615 0.1409272477949431 0.9837655096442490	0.098878
H	0.3549688639622938 0.9217022011001420 0.1576041361273148	0.098131
H	0.3527487882507547 0.7955739016463843 0.1637380239025618	0.099879
H	0.1480264391376093 0.7956208739036804 0.0650709215206098	0.100769
H	0.1492033056058524 0.9215147226782767 0.0596400834927977	0.101792
H	0.1954486772319300 0.3551411090097907 0.2191073506989901	0.100082
H	0.1922437077078648 0.4808708138004490 0.2266357114714393	0.116192
H	0.3018372261580758 0.4852597132334335 0.9825412404644690	0.116692
H	0.2997768917273376 0.3590727762050588 0.9837655096442490	0.098880
H	0.1450311360377062 0.5782978458998583 0.1576041361273148	0.098133
H	0.1472511997492444 0.7044260983536157 0.1637380239025618	0.099880
H	0.3519735728623917 0.7043791260963196 0.0650709215206098	0.100761
H	0.3507966823941539 0.5784852773217233 0.0596400834927977	0.101767
Fe	0.2500000000000000 0.2500000000000000 0.6009915511415352	0.709940
Fe	0.7500000000000000 0.7500000000000000 0.8990084488584648	0.709940
Fe	0.7500000000000000 0.7500000000000000 0.3990083868584670	0.709936
Fe	0.2500000000000000 0.2500000000000000 0.1009915741415335	0.709935
Ge	0.2500000000000000 0.2500000000000000 0.3513446330387783	1.765282
Ge	0.7500000000000000 0.7500000000000000 0.1486553819612196	1.765282
Ge	0.7500000000000000 0.7500000000000000 0.6486554599612189	1.765282
Ge	0.2500000000000000 0.2500000000000000 0.8513445400387811	1.765282
	  	
