#======================================================================

# CRYSTAL DATA

#----------------------------------------------------------------------

data_VESTA_phase_1


_pd_phase_name                         GeFSIX_1_Cd
_cell_length_a                         11.72785
_cell_length_b                         11.72785
_cell_length_c                         8.18760
_cell_angle_alpha                      90
_cell_angle_beta                       90
_cell_angle_gamma                      90
_symmetry_space_group_name_H-M         P 1
_symmetry_Int_Tables_number            1

loop_
_symmetry_equiv_pos_as_xyz
   x, y, z

loop_
   _atom_site_label
   _atom_site_fract_x
   _atom_site_fract_y
   _atom_site_fract_z
   _atom_site_charge
C	0.2434296374420832 0.4589989040951051 0.3707442543589720	0.105799
C	0.1248234328460619 0.4580535090323590 0.3661242371205809	-0.173304
C	0.7565704495579205 0.5410011389048953 0.3707442543589720	0.105799
C	0.8751766111539416 0.5419464909676411 0.3661242371205809	-0.173304
C	0.5410011389048953 0.2434296374420832 0.3707442543589720	0.105800
C	0.5419464909676411 0.1248234328460619 0.3661242371205809	-0.173304
C	0.4589989040951051 0.7565704495579205 0.3707442543589720	0.105800
C	0.4580535090323590 0.8751766111539416 0.3661242371205809	-0.173304
C	0.7565704495579205 0.4589989040951051 0.6292557156410257	0.105800
C	0.8751766111539416 0.4580535090323590 0.6338757338794133	-0.173302
C	0.2434296374420832 0.5410011389048953 0.6292557156410257	0.105800
C	0.1248234328460619 0.5419464909676411 0.6338757338794133	-0.173302
C	0.4589989040951051 0.2434296374420832 0.6292557156410257	0.105801
C	0.4580535090323590 0.1248234328460619 0.6338757338794133	-0.173302
C	0.5410011389048953 0.7565704495579205 0.6292557156410257	0.105801
C	0.5419464909676411 0.8751766111539416 0.6338757338794133	-0.173302
C	0.0630829484688596 0.5000000000000000 0.5000000000000000	0.101381
C	0.9369171275311396 0.5000000000000000 0.5000000000000000	0.101382
C	0.5000000000000000 0.0630829484688596 0.5000000000000000	0.101382
C	0.5000000000000000 0.9369171275311396 0.5000000000000000	0.101382
H	0.2939989984080614 0.4270813355908531 0.2683395594213167	0.102683
H	0.0812780552511777 0.4229419071527104 0.2599174449743937	0.122965
H	0.7060009585919386 0.5729186644091467 0.2683395594213167	0.102683
H	0.9187219607488238 0.5770580928472895 0.2599174449743937	0.122965
H	0.5729186644091467 0.2939989984080614 0.2683395594213167	0.102683
H	0.5770580928472895 0.0812780552511777 0.2599174449743937	0.122966
H	0.4270813355908531 0.7060009585919386 0.2683395594213167	0.102683
H	0.4229419071527104 0.9187219607488238 0.2599174449743937	0.122965
H	0.7060009585919386 0.4270813355908531 0.7316604115786848	0.102683
H	0.9187219607488238 0.4229419071527104 0.7400826140256075	0.122964
H	0.2939989984080614 0.5729186644091467 0.7316604115786848	0.102683
H	0.0812780552511777 0.5770580928472895 0.7400826140256075	0.122963
H	0.4270813355908531 0.2939989984080614 0.7316604115786848	0.102683
H	0.4229419071527104 0.0812780552511777 0.7400826140256075	0.122964
H	0.5729186644091467 0.7060009585919386 0.7316604115786848	0.102683
H	0.5770580928472895 0.9187219607488238 0.7400826140256075	0.122963
Cd	0.5000000000000000 0.5000000000000000 0.5000000000000000	0.824640
Ge	0.5000000000000000 0.5000000000000000 -0.0000000000000000	1.792536
F	0.5000000000000000 0.5000000000000000 0.7728226161003661	-0.526358
F	0.5000000000000000 0.5000000000000000 0.2271773838996342	-0.526358
F	0.3898516150169453 0.3898516150169453 -0.0000000000000000	-0.566577
F	0.6101483849830548 0.6101483849830548 -0.0000000000000000	-0.566577
F	0.6101483849830548 0.3898516150169453 -0.0000000000000000	-0.566577
F	0.3898516150169453 0.6101483849830548 -0.0000000000000000	-0.566577
N	0.3013282654423453 0.5000000000000000 0.5000000000000000	-0.242209
N	0.6986717565576567 0.5000000000000000 0.5000000000000000	-0.242209
N	0.5000000000000000 0.3013282654423453 0.5000000000000000	-0.242209
N	0.5000000000000000 0.6986717565576567 0.5000000000000000	-0.242209
	  	
