#======================================================================

# CRYSTAL DATA

#----------------------------------------------------------------------

data_VESTA_phase_1


_pd_phase_name                         GeFSIX_16_Ni_i
_cell_length_a                         25.04724
_cell_length_b                         25.04724
_cell_length_c                         7.67637
_cell_angle_alpha                      90
_cell_angle_beta                       90
_cell_angle_gamma                      90
_symmetry_space_group_name_H-M         P 1
_symmetry_Int_Tables_number            1

loop_
_symmetry_equiv_pos_as_xyz
   x, y, z

loop_
   _atom_site_label
   _atom_site_fract_x
   _atom_site_fract_y
   _atom_site_fract_z
   _atom_site_charge
C	0.4777769394126108 0.3885730672396007 0.3674258089078232	0.101105
C	0.4768168536362964 0.3331371572225265 0.3625493928548191	-0.170597
C	0.9547661043609463 0.6133773892955451 0.9430412528805676	-0.125071
C	0.9549275559892029 0.5579542615792750 0.9438810258220396	-0.123928
C	0.5222230985873854 0.6114269707603951 0.3674258089078232	0.101105
C	0.5231831463637038 0.6668628807774695 0.3625493928548191	-0.170597
C	0.0452338196390544 0.3866225717044554 0.9430412528805676	-0.125071
C	0.0450724630107952 0.4420457764207287 0.9438810258220396	-0.123928
C	0.6114269707603951 0.4777769394126108 0.3674258089078232	0.101105
C	0.6668628807774695 0.4768168536362964 0.3625493928548191	-0.170597
C	0.3866225717044554 0.9547661043609463 0.9430412528805676	-0.125070
C	0.4420457764207287 0.9549275559892029 0.9438810258220396	-0.123928
C	0.3885730672396007 0.5222230985873854 0.3674258089078232	0.101105
C	0.3331371572225265 0.5231831463637038 0.3625493928548191	-0.170597
C	0.6133773892955451 0.0452338196390544 0.9430412528805676	-0.125071
C	0.5579542615792750 0.0450724630107952 0.9438810258220396	-0.123928
C	0.5222230985873854 0.3885730672396007 0.6325741910921772	0.101105
C	0.5231831463637038 0.3331371572225265 0.6374505751451782	-0.170597
C	0.0452338196390544 0.6133773892955451 0.0569587591194333	-0.125071
C	0.0450724630107952 0.5579542615792750 0.0561189501779585	-0.123928
C	0.4777769394126108 0.6114269707603951 0.6325741910921772	0.101105
C	0.4768168536362964 0.6668628807774695 0.6374505751451782	-0.170598
C	0.9547661043609463 0.3866225717044554 0.0569587591194333	-0.125070
C	0.9549275559892029 0.4420457764207287 0.0561189501779585	-0.123928
C	0.3885730672396007 0.4777769394126108 0.6325741910921772	0.101105
C	0.3331371572225265 0.4768168536362964 0.6374505751451782	-0.170597
C	0.6133773892955451 0.9547661043609463 0.0569587591194333	-0.125071
C	0.5579542615792750 0.9549275559892029 0.0561189501779585	-0.123928
C	0.6114269707603951 0.5222230985873854 0.6325741910921772	0.101105
C	0.6668628807774695 0.5231831463637038 0.6374505751451782	-0.170598
C	0.3866225717044554 0.0452338196390544 0.0569587591194333	-0.125070
C	0.4420457764207287 0.0450724630107952 0.0561189501779585	-0.123928
C	0.5452338576390576 0.8866225337044592 0.5569587791194279	-0.125070
C	0.5450724440107971 0.9420457764207282 0.5561189421779578	-0.123928
C	0.0222230525873886 0.1114269137604011 0.1325741910921771	0.101105
C	0.0231831443637035 0.1668628427774733 0.1374505911451795	-0.170597
C	0.4547661803609457 0.1133774372955418 0.5569587791194279	-0.125070
C	0.4549275179892068 0.0579542085792737 0.5561189421779578	-0.123928
C	0.9777769014126146 0.8885730292396049 0.1325741910921771	0.101105
C	0.9768168536362962 0.8331371572225266 0.1374505911451795	-0.170597
C	0.1133774372955418 0.5452338576390576 0.5569587791194279	-0.125070
C	0.0579542085792737 0.5450724440107971 0.5561189421779578	-0.123928
C	0.8885730292396049 0.0222230525873886 0.1325741910921771	0.101105
C	0.8331371572225266 0.0231831443637035 0.1374505911451795	-0.170597
C	0.8866225337044592 0.4547661803609457 0.5569587791194279	-0.125070
C	0.9420457764207282 0.4549275179892068 0.5561189421779578	-0.123928
C	0.1114269137604011 0.9777769014126146 0.1325741910921771	0.101105
C	0.1668628427774733 0.9768168536362962 0.1374505911451795	-0.170597
C	0.4547661803609457 0.8866225337044592 0.4430412528805678	-0.125070
C	0.4549275179892068 0.9420457764207282 0.4438810578220422	-0.123928
C	0.9777769014126146 0.1114269137604011 0.8674258409078184	0.101105
C	0.9768168536362962 0.1668628427774733 0.8625493928548191	-0.170597
C	0.5452338576390576 0.1133774372955418 0.4430412528805678	-0.125070
C	0.5450724440107971 0.0579542085792737 0.4438810578220422	-0.123928
C	0.0222230525873886 0.8885730292396049 0.8674258409078184	0.101105
C	0.0231831443637035 0.8331371572225266 0.8625493928548191	-0.170597
C	0.8866225337044592 0.5452338576390576 0.4430412528805678	-0.125070
C	0.9420457764207282 0.5450724440107971 0.4438810578220422	-0.123928
C	0.1114269137604011 0.0222230525873886 0.8674258409078184	0.101105
C	0.1668628427774733 0.0231831443637035 0.8625493928548191	-0.170597
C	0.1133774372955418 0.4547661803609457 0.4430412528805678	-0.125070
C	0.0579542085792737 0.4549275179892068 0.4438810578220422	-0.123928
C	0.8885730292396049 0.9777769014126146 0.8674258409078184	0.101105
C	0.8331371572225266 0.9768168536362962 0.8625493928548191	-0.170598
C	0.5000000000000000 0.3040139141258812 0.5000000000000000	0.173307
C	0.5000000000000000 0.2473646614309933 0.5000000000000000	-0.113467
C	0.5000000000000000 0.1986711136265756 0.5000000000000000	-0.098186
C	0.5000000000000000 0.1420467299804788 0.5000000000000000	0.123260
C	0.5000000000000000 0.0293496064032907 0.5000000000000000	0.065555
C	0.0000000000000000 0.8040138951258758 0.0000000000000000	0.173307
C	0.0000000000000000 0.7473646414309917 0.0000000000000000	-0.113467
C	0.0000000000000000 0.6986710756265800 0.0000000000000000	-0.098186
C	0.0000000000000000 0.6420466919804758 0.0000000000000000	0.123261
C	0.0000000000000000 0.5293496204032917 0.0000000000000000	0.065555
C	0.5000000000000000 0.6959860668741210 0.5000000000000000	0.173307
C	0.5000000000000000 0.7526353965690044 0.5000000000000000	-0.113467
C	0.5000000000000000 0.8013288863734239 0.5000000000000000	-0.098186
C	0.5000000000000000 0.8579532700195210 0.5000000000000000	0.123260
C	0.5000000000000000 0.9706503795967083 0.5000000000000000	0.065555
C	0.0000000000000000 0.1959860858741188 0.0000000000000000	0.173307
C	0.0000000000000000 0.2526353385690069 0.0000000000000000	-0.113467
C	0.0000000000000000 0.3013288663734227 0.0000000000000000	-0.098186
C	0.0000000000000000 0.3579532700195213 0.0000000000000000	0.123261
C	0.0000000000000000 0.4706504175967112 0.0000000000000000	0.065555
C	0.6959860668741210 0.5000000000000000 0.5000000000000000	0.173307
C	0.7526353965690044 0.5000000000000000 0.5000000000000000	-0.113467
C	0.8013288863734239 0.5000000000000000 0.5000000000000000	-0.098186
C	0.8579532700195210 0.5000000000000000 0.5000000000000000	0.123260
C	0.9706503795967083 0.5000000000000000 0.5000000000000000	0.065555
C	0.1959860858741188 -0.0000000000000000 0.0000000000000000	0.173307
C	0.2526353385690069 -0.0000000000000000 0.0000000000000000	-0.113467
C	0.3013288663734227 -0.0000000000000000 0.0000000000000000	-0.098186
C	0.3579532700195213 -0.0000000000000000 0.0000000000000000	0.123261
C	0.4706504175967112 -0.0000000000000000 0.0000000000000000	0.065555
C	0.3040139141258812 0.5000000000000000 0.5000000000000000	0.173307
C	0.2473646614309933 0.5000000000000000 0.5000000000000000	-0.113467
C	0.1986711136265756 0.5000000000000000 0.5000000000000000	-0.098186
C	0.1420467299804788 0.5000000000000000 0.5000000000000000	0.123260
C	0.0293496064032907 0.5000000000000000 0.5000000000000000	0.065555
C	0.8040138951258758 -0.0000000000000000 0.0000000000000000	0.173307
C	0.7473646414309917 -0.0000000000000000 0.0000000000000000	-0.113467
C	0.6986710756265800 -0.0000000000000000 0.0000000000000000	-0.098186
C	0.6420466919804758 -0.0000000000000000 0.0000000000000000	0.123261
C	0.5293496204032917 -0.0000000000000000 0.0000000000000000	0.065556
H	0.4609186944400465 0.4120767961294282 0.2611783973459866	0.100041
H	0.4585199746104766 0.3127186416014858 0.2525218808085977	0.125903
H	0.9198587651005081 0.6351911339143296 0.8971986231407031	0.111455
H	0.9201256313804870 0.5362835803043320 0.8960473849155186	0.106352
H	0.5390813055599535 0.5879232038705720 0.2611783973459866	0.100041
H	0.5414800633895268 0.6872814343985135 0.2525218808085977	0.125903
H	0.0801412158994938 0.3648088660856702 0.8971986231407031	0.111455
H	0.0798743976195117 0.4637164586956672 0.8960473849155186	0.106351
H	0.5879232038705720 0.4609186944400465 0.2611783973459866	0.100041
H	0.6872814343985135 0.4585199746104766 0.2525218808085977	0.125903
H	0.3648088660856702 0.9198587651005081 0.8971986231407031	0.111455
H	0.4637164586956672 0.9201256313804870 0.8960473849155186	0.106351
H	0.4120767961294282 0.5390813055599535 0.2611783973459866	0.100041
H	0.3127186416014858 0.5414800633895268 0.2525218808085977	0.125903
H	0.6351911339143296 0.0801412158994938 0.8971986231407031	0.111455
H	0.5362835803043320 0.0798743976195117 0.8960473849155186	0.106352
H	0.5390813055599535 0.4120767961294282 0.7388215866540123	0.100041
H	0.5414800633895268 0.3127186416014858 0.7474781191914023	0.125903
H	0.0801412158994938 0.6351911339143296 0.1028013528592948	0.111455
H	0.0798743976195117 0.5362835803043320 0.1039526150844812	0.106352
H	0.4609186944400465 0.5879232038705720 0.7388215866540123	0.100041
H	0.4585199746104766 0.6872814343985135 0.7474781191914023	0.125903
H	0.9198587651005081 0.3648088660856702 0.1028013528592948	0.111454
H	0.9201256313804870 0.4637164586956672 0.1039526150844812	0.106352
H	0.4120767961294282 0.4609186944400465 0.7388215866540123	0.100041
H	0.3127186416014858 0.4585199746104766 0.7474781191914023	0.125903
H	0.6351911339143296 0.9198587651005081 0.1028013528592948	0.111454
H	0.5362835803043320 0.9201256313804870 0.1039526150844812	0.106352
H	0.5879232038705720 0.5390813055599535 0.7388215866540123	0.100041
H	0.6872814343985135 0.5414800633895268 0.7474781191914023	0.125903
H	0.3648088660856702 0.0801412158994938 0.1028013528592948	0.111454
H	0.4637164586956672 0.0798743976195117 0.1039526150844812	0.106352
H	0.5801412348994919 0.8648088660856704 0.6028013448592943	0.111453
H	0.5798743686195130 0.9637164586956677 0.6039526470844840	0.106351
H	0.0390813155599543 0.0879231748705730 0.2388216026540137	0.100041
H	0.0414800683895234 0.1872813773985121 0.2474781511913977	0.125903
H	0.4198588031005114 0.1351911629143286 0.6028013448592943	0.111453
H	0.4201255923804875 0.0362835653043276 0.6039526470844840	0.106351
H	0.9609186944400465 0.9120768731294238 0.2388216026540137	0.100041
H	0.9585199366104732 0.8127186796014888 0.2474781511913977	0.125903
H	0.1351911629143286 0.5801412348994919 0.6028013448592943	0.111453
H	0.0362835653043276 0.5798743686195130 0.6039526470844840	0.106351
H	0.9120768731294238 0.0390813155599543 0.2388216026540137	0.100041
H	0.8127186796014888 0.0414800683895234 0.2474781511913977	0.125903
H	0.8648088660856704 0.4198588031005114 0.6028013448592943	0.111453
H	0.9637164586956677 0.4201255923804875 0.6039526470844840	0.106351
H	0.0879231748705730 0.9609186944400465 0.2388216026540137	0.100041
H	0.1872813773985121 0.9585199366104732 0.2474781511913977	0.125903
H	0.4198588031005114 0.8648088660856704 0.3971986231407032	0.111453
H	0.4201255923804875 0.9637164586956677 0.3960474169155145	0.106352
H	0.9609186944400465 0.0879231748705730 0.7611783813459850	0.100041
H	0.9585199366104732 0.1872813773985121 0.7525218488086022	0.125903
H	0.5801412348994919 0.1351911629143286 0.3971986231407032	0.111453
H	0.5798743686195130 0.0362835653043276 0.3960474169155145	0.106352
H	0.0390813155599543 0.9120768731294238 0.7611783813459850	0.100041
H	0.0414800683895234 0.8127186796014888 0.7525218488086022	0.125903
H	0.8648088660856704 0.5801412348994919 0.3971986231407032	0.111453
H	0.9637164586956677 0.5798743686195130 0.3960474169155145	0.106352
H	0.0879231748705730 0.0390813155599543 0.7611783813459850	0.100041
H	0.1872813773985121 0.0414800683895234 0.7525218488086022	0.125903
H	0.1351911629143286 0.4198588031005114 0.3971986231407032	0.111453
H	0.0362835653043276 0.4201255923804875 0.3960474169155145	0.106352
H	0.9120768731294238 0.9609186944400465 0.7611783813459850	0.100041
H	0.8127186796014888 0.9585199366104732 0.7525218488086022	0.125903
Ni	0.5000000000000000 0.5000000000000000 0.5000000000000000	0.757379
Ni	0.0000000000000000 -0.0000000000000000 0.0000000000000000	0.757379
Ge	0.5000000000000000 0.5000000000000000 0.0000000000000000	1.777647
Ge	0.0000000000000000 -0.0000000000000000 0.5000000000000000	1.777648
F	0.5000000000000000 0.5000000000000000 0.2414205178854201	-0.509250
F	0.0000000000000000 -0.0000000000000000 0.7414204858854242	-0.509251
F	0.5000000000000000 0.5000000000000000 0.7585794181145821	-0.509250
F	0.0000000000000000 -0.0000000000000000 0.2585794821145800	-0.509250
F	0.5513837222585983 0.5513837222585983 0.0000000000000000	-0.539298
F	0.0513836752585983 0.0513836752585983 0.5000000000000000	-0.539298
F	0.4486163537414076 0.4486163537414076 0.0000000000000000	-0.539298
F	0.9486163157414048 0.9486163157414048 0.5000000000000000	-0.539298
F	0.4486163537414076 0.5513837222585983 0.0000000000000000	-0.539298
F	0.9486163157414048 0.0513836752585983 0.5000000000000000	-0.539298
F	0.5513837222585983 0.4486163537414076 0.0000000000000000	-0.539298
F	0.0513836752585983 0.9486163157414048 0.5000000000000000	-0.539298
N	0.5000000000000000 0.4160272856714130 0.5000000000000000	-0.240821
N	0.0000000000000000 0.9160273236714161 0.0000000000000000	-0.240821
N	0.5000000000000000 0.5839727143285870 0.5000000000000000	-0.240821
N	0.0000000000000000 0.0839727233285842 0.0000000000000000	-0.240821
N	0.5839727143285870 0.5000000000000000 0.5000000000000000	-0.240821
N	0.0839727233285842 -0.0000000000000000 0.0000000000000000	-0.240821
N	0.4160272856714130 0.5000000000000000 0.5000000000000000	-0.240821
N	0.9160273236714161 -0.0000000000000000 0.0000000000000000	-0.240821
	  	
