#======================================================================

# CRYSTAL DATA

#----------------------------------------------------------------------

data_VESTA_phase_1


_pd_phase_name                         GeFSIX_4_Co_i
_cell_length_a                         23.22698
_cell_length_b                         20.17611
_cell_length_c                         9.55706
_cell_angle_alpha                      90
_cell_angle_beta                       90
_cell_angle_gamma                      90
_symmetry_space_group_name_H-M         P 1
_symmetry_Int_Tables_number            1

loop_
_symmetry_equiv_pos_as_xyz
   x, y, z

loop_
   _atom_site_label
   _atom_site_fract_x
   _atom_site_fract_y
   _atom_site_fract_z
   _atom_site_charge
C	0.4189099054473932 0.5983889215895621 0.6294922804861426	0.092873
C	0.3747847531061937 0.5521822682397246 0.6278542675736002	-0.163399
C	0.2777168064439681 0.4485057838863714 0.6271089761790966	-0.115369
C	0.2310081967794562 0.4056130293623194 0.6259561035699797	-0.114610
C	0.1282471396345890 0.3182853484173775 0.6248174726840666	-0.162321
C	0.0813804869037624 0.2757453367188667 0.6278345742640669	0.085878
C	0.9189099884473892 0.0983889325895664 0.6294922804861426	0.092873
C	0.8747847111061980 0.0521822102397267 0.6278542675736002	-0.163399
C	0.7777168274439733 0.9485058308863715 0.6271089761790966	-0.115369
C	0.7310081767794550 0.9056130753623161 0.6259561035699797	-0.114610
C	0.6282471396345886 0.8182853954173775 0.6248174726840666	-0.162321
C	0.5813804719037576 0.7757454297188637 0.6278345742640667	0.085878
C	0.5810900945526070 0.4016110324104342 0.1294922884861430	0.092874
C	0.6252152888938020 0.4478177777602794 0.1278542825735973	-0.163400
C	0.7222831725560267 0.5514941691136285 0.1271089841790976	-0.115369
C	0.7689918232205450 0.5943869706376806 0.1259561115699802	-0.114606
C	0.8717528603654114 0.6817146515826228 0.1248174796840710	-0.162295
C	0.9186195280962424 0.7242546172811366 0.1278345892640641	0.085875
C	0.0810901055526113 0.9016111254104382 0.1294922884861430	0.092873
C	0.1252152468938061 0.9478176857602787 0.1278542825735973	-0.163400
C	0.2222832145560301 0.0514942161136287 0.1271089841790976	-0.115368
C	0.2689917822205457 0.0943869476376821 0.1259561115699802	-0.114610
C	0.3717529023654145 0.1817146625826201 0.1248174796840710	-0.162324
C	0.4186195280962425 0.2242546872811352 0.1278345892640641	0.085878
C	0.5810900945526070 0.5983889215895621 0.8705076885138584	0.092873
C	0.6252152888938020 0.5521822682397246 0.8721457014264008	-0.163399
C	0.7222831725560267 0.4485057838863714 0.8728910548209025	-0.115370
C	0.7689918232205450 0.4056130293623194 0.8740439274300194	-0.114606
C	0.8717528603654114 0.3182853484173775 0.8751825583159324	-0.162292
C	0.9186195280962424 0.2757453367188667 0.8721654567359323	0.085874
C	0.0810901055526113 0.0983889325895664 0.8705076885138584	0.092873
C	0.1252152468938061 0.0521822102397267 0.8721457014264008	-0.163399
C	0.2222832145560301 0.9485058308863715 0.8728910548209025	-0.115369
C	0.2689917822205457 0.9056130753623161 0.8740439274300194	-0.114610
C	0.3717529023654145 0.8182853954173775 0.8751825583159324	-0.162322
C	0.4186195280962425 0.7757454297188637 0.8721654567359322	0.085878
C	0.4189099054473932 0.4016110324104342 0.3705077195138579	0.092874
C	0.3747847531061937 0.4478177777602794 0.3721457014264015	-0.163400
C	0.2777168064439681 0.5514941691136285 0.3728910238209031	-0.115368
C	0.2310081967794562 0.5943869706376806 0.3740438654300212	-0.114610
C	0.1282471396345890 0.6817146515826228 0.3751824963159271	-0.162329
C	0.0813804869037624 0.7242546172811366 0.3721653947359347	0.085882
C	0.9189099884473892 0.9016111254104382 0.3705077195138579	0.092873
C	0.8747847111061980 0.9478176857602787 0.3721457014264015	-0.163400
C	0.7777168274439733 0.0514942161136287 0.3728910238209031	-0.115368
C	0.7310081767794550 0.0943869476376821 0.3740438654300212	-0.114610
C	0.6282471396345886 0.1817146625826201 0.3751824963159271	-0.162329
C	0.5813804719037576 0.2242546872811352 0.3721653947359347	0.085882
C	0.5810900945526070 0.4016110324104342 0.3705077195138579	0.092874
C	0.6252152888938020 0.4478177777602794 0.3721457014264015	-0.163400
C	0.7222831725560267 0.5514941691136285 0.3728910238209031	-0.115369
C	0.7689918232205450 0.5943869706376806 0.3740438654300212	-0.114605
C	0.8717528603654114 0.6817146515826228 0.3751824963159271	-0.162300
C	0.9186195280962424 0.7242546172811366 0.3721653947359347	0.085879
C	0.0810901055526113 0.9016111254104382 0.3705077195138579	0.092874
C	0.1252152468938061 0.9478176857602787 0.3721457014264015	-0.163400
C	0.2222832145560301 0.0514942161136287 0.3728910238209031	-0.115368
C	0.2689917822205457 0.0943869476376821 0.3740438654300212	-0.114610
C	0.3717529023654145 0.1817146625826201 0.3751824963159271	-0.162329
C	0.4186195280962425 0.2242546872811352 0.3721653947359347	0.085883
C	0.4189099054473932 0.5983889215895621 0.8705076885138584	0.092874
C	0.3747847531061937 0.5521822682397246 0.8721457014264008	-0.163400
C	0.2777168064439681 0.4485057838863714 0.8728910548209025	-0.115369
C	0.2310081967794562 0.4056130293623194 0.8740439274300194	-0.114610
C	0.1282471396345890 0.3182853484173775 0.8751825583159324	-0.162322
C	0.0813804869037624 0.2757453367188667 0.8721654567359322	0.085879
C	0.9189099884473892 0.0983889325895664 0.8705076885138584	0.092874
C	0.8747847111061980 0.0521822102397267 0.8721457014264008	-0.163399
C	0.7777168274439733 0.9485058308863715 0.8728910548209025	-0.115369
C	0.7310081767794550 0.9056130753623161 0.8740439274300194	-0.114610
C	0.6282471396345886 0.8182853954173775 0.8751825583159324	-0.162322
C	0.5813804719037576 0.7757454297188637 0.8721654567359323	0.085878
C	0.4189099054473932 0.4016110324104342 0.1294922884861430	0.092874
C	0.3747847531061937 0.4478177777602794 0.1278542825735973	-0.163400
C	0.2777168064439681 0.5514941691136285 0.1271089841790976	-0.115368
C	0.2310081967794562 0.5943869706376806 0.1259561115699802	-0.114610
C	0.1282471396345890 0.6817146515826228 0.1248174796840710	-0.162325
C	0.0813804869037624 0.7242546172811366 0.1278345892640641	0.085879
C	0.9189099884473892 0.9016111254104382 0.1294922884861430	0.092874
C	0.8747847111061980 0.9478176857602787 0.1278542825735973	-0.163400
C	0.7777168274439733 0.0514942161136287 0.1271089841790976	-0.115368
C	0.7310081767794550 0.0943869476376821 0.1259561115699802	-0.114610
C	0.6282471396345886 0.1817146625826201 0.1248174796840710	-0.162325
C	0.5813804719037576 0.2242546872811352 0.1278345892640641	0.085879
C	0.5810900945526070 0.5983889215895621 0.6294922804861426	0.092874
C	0.6252152888938020 0.5521822682397246 0.6278542675736002	-0.163399
C	0.7222831725560267 0.4485057838863714 0.6271089761790966	-0.115370
C	0.7689918232205450 0.4056130293623194 0.6259561035699797	-0.114606
C	0.8717528603654114 0.3182853484173775 0.6248174726840666	-0.162293
C	0.9186195280962424 0.2757453367188667 0.6278345742640667	0.085875
C	0.0810901055526113 0.0983889325895664 0.6294922804861426	0.092874
C	0.1252152468938061 0.0521822102397267 0.6278542675736002	-0.163399
C	0.2222832145560301 0.9485058308863715 0.6271089761790966	-0.115369
C	0.2689917822205457 0.9056130753623161 0.6259561035699797	-0.114610
C	0.3717529023654145 0.8182853954173775 0.6248174726840666	-0.162323
C	0.4186195280962425 0.7757454297188637 0.6278345742640669	0.085878
C	0.3502891940833638 0.5250056953396007 0.7500000149999977	0.116457
C	0.3026896682711987 0.4744393659877155 0.7500000149999977	0.072467
C	0.2049582120207920 0.3837701506594320 0.7500000149999977	0.067252
C	0.1539205400649277 0.3401673071566406 0.7500000149999977	0.100956
C	0.8502891520833673 0.0250056783396027 0.7500000149999977	0.116457
C	0.8026897302711966 0.9744393189877154 0.7500000149999977	0.072466
C	0.7049582120207919 0.8837701736594294 0.7500000149999977	0.067252
C	0.6539205400649277 0.8401672381566386 0.7500000149999977	0.100956
C	0.6497108059166363 0.4749943506603961 0.2500000000000000	0.116457
C	0.6973102697288034 0.5255606340122843 0.2500000000000000	0.072466
C	0.7950417879792081 0.6162298733405709 0.2500000000000000	0.067231
C	0.8460795009350792 0.6598326698433609 0.2500000000000000	0.100941
C	0.1497108169166335 0.9749943976603963 0.2500000000000000	0.116457
C	0.1973103527287993 0.0255606370122813 0.2500000000000000	0.072466
C	0.2950417879792082 0.1162298263405699 0.2500000000000000	0.067250
C	0.3460794599350719 0.1598327038433640 0.2500000000000000	0.100969
C	0.6497108059166363 0.5250056953396007 0.7500000149999977	0.116457
C	0.6973102697288034 0.4744393659877155 0.7500000149999977	0.072467
C	0.7950417879792081 0.3837701506594320 0.7500000149999977	0.067233
C	0.8460795009350792 0.3401673071566406 0.7500000149999977	0.100928
C	0.1497108169166335 0.0250056783396027 0.7500000149999977	0.116457
C	0.1973103527287993 0.9744393189877154 0.7500000149999977	0.072467
C	0.2950417879792082 0.8837701736594294 0.7500000149999977	0.067252
C	0.3460794599350719 0.8401672381566386 0.7500000149999977	0.100956
C	0.3502891940833638 0.4749943506603961 0.2500000000000000	0.116457
C	0.3026896682711987 0.5255606340122843 0.2500000000000000	0.072466
C	0.2049582120207920 0.6162298733405709 0.2500000000000000	0.067250
C	0.1539205400649277 0.6598326698433609 0.2500000000000000	0.100969
C	0.8502891520833673 0.9749943976603963 0.2500000000000000	0.116457
C	0.8026897302711966 0.0255606370122813 0.2500000000000000	0.072466
C	0.7049582120207919 0.1162298263405699 0.2500000000000000	0.067250
C	0.6539205400649277 0.1598327038433640 0.2500000000000000	0.100969
H	0.4370241689818942 0.6178314121220487 0.5322143640394197	0.113134
H	0.3611733514068546 0.5392876347232883 0.5240276954207570	0.106078
H	0.2940583205622039 0.4606386104429266 0.5251188423740921	0.086423
H	0.2151170091948255 0.3894054152540294 0.5243750972238201	0.104947
H	0.1442621995737000 0.3330848940196184 0.5224765350900821	0.123638
H	0.0613641235687733 0.2573891145938432 0.5315358707375527	0.113053
H	0.9370241269818907 0.1178314471220481 0.5322143640394197	0.113134
H	0.8611733104068546 0.0392875707232832 0.5240276954207570	0.106078
H	0.7940582995622056 0.9606386104429265 0.5251188423740921	0.086423
H	0.7151169671948218 0.8894053462540343 0.5243750972238201	0.104947
H	0.6442621895736993 0.8330848940196185 0.5224765350900821	0.123638
H	0.5613641545687725 0.7573890915938443 0.5315358707375527	0.113053
H	0.5629758310181058 0.3821685878779513 0.0322144260394177	0.113134
H	0.6388266485931455 0.4607124122767119 0.0240276954207572	0.106078
H	0.7059417004377944 0.5393613435570697 0.0251189043740900	0.086423
H	0.7848830328051782 0.6105945617459652 0.0243750362238182	0.104946
H	0.8557378104263008 0.6669150599803777 0.0224765350900824	0.123633
H	0.9386358044312276 0.7426109084061557 0.0315358397375538	0.113052
H	0.0629758370181061 0.8821685878779513 0.0322144260394177	0.113134
H	0.1388266895931453 0.9607124122767120 0.0240276954207572	0.106078
H	0.2059417004377942 0.0393613865570696 0.0251189043740900	0.086423
H	0.2848829908051745 0.1105945957459679 0.0243750362238182	0.104947
H	0.3557378104263008 0.1669150829803763 0.0224765350900824	0.123638
H	0.4386358454312279 0.2426108854061569 0.0315358397375538	0.113053
H	0.5629758310181058 0.6178314121220487 -0.0322143830394177	0.113133
H	0.6388266485931455 0.5392876347232883 -0.0240277224207629	0.106078
H	0.7059417004377944 0.4606386104429266 -0.0251188603740865	0.086423
H	0.7848830328051782 0.3894054152540294 -0.0243750902238157	0.104946
H	0.8557378104263008 0.3330848940196184 -0.0224765350900823	0.123633
H	0.9386358044312276 0.2573891145938432 -0.0315358777375571	0.113053
H	0.0629758370181061 0.1178314471220481 -0.0322143830394177	0.113133
H	0.1388266895931453 0.0392875707232832 -0.0240277224207629	0.106078
H	0.2059417004377942 0.9606386104429265 -0.0251188603740865	0.086423
H	0.2848829908051745 0.8894053462540343 -0.0243750902238157	0.104947
H	0.3557378104263008 0.8330848940196185 -0.0224765350900823	0.123638
H	0.4386358454312279 0.7573890915938443 -0.0315358777375571	0.113053
H	0.4370241689818942 0.3821685878779513 0.4677856049605812	0.113133
H	0.3611733514068546 0.4607124122767119 0.4759723355792417	0.106078
H	0.2940583205622039 0.5393613435570697 0.4748811266259090	0.086423
H	0.2151170091948255 0.6105945617459652 0.4756248717761815	0.104947
H	0.1442621995737000 0.6669150599803777 0.4775234339099184	0.123632
H	0.0613641235687733 0.7426109084061557 0.4684641292624468	0.113051
H	0.9370241269818907 0.8821685878779513 0.4677856049605812	0.113134
H	0.8611733104068546 0.9607124122767120 0.4759723355792418	0.106078
H	0.7940582995622056 0.0393613865570696 0.4748811266259090	0.086423
H	0.7151169671948218 0.1105945957459679 0.4756248717761815	0.104947
H	0.6442621895736992 0.1669150829803763 0.4775234339099184	0.123632
H	0.5613641545687725 0.2426108854061569 0.4684641292624467	0.113051
H	0.5629758310181058 0.3821685878779513 0.4677856049605812	0.113134
H	0.6388266485931455 0.4607124122767119 0.4759723355792418	0.106078
H	0.7059417004377944 0.5393613435570697 0.4748811266259090	0.086423
H	0.7848830328051782 0.6105945617459652 0.4756248717761815	0.104946
H	0.8557378104263008 0.6669150599803777 0.4775234339099184	0.123627
H	0.9386358044312276 0.7426109084061557 0.4684641292624468	0.113052
H	0.0629758370181061 0.8821685878779513 0.4677856049605812	0.113134
H	0.1388266895931453 0.9607124122767120 0.4759723355792417	0.106078
H	0.2059417004377942 0.0393613865570696 0.4748811266259090	0.086423
H	0.2848829908051745 0.1105945957459679 0.4756248717761815	0.104947
H	0.3557378104263008 0.1669150829803763 0.4775234339099184	0.123632
H	0.4386358454312279 0.2426108854061569 0.4684641292624468	0.113052
H	0.4370241689818942 0.6178314121220487 -0.0322143830394177	0.113134
H	0.3611733514068546 0.5392876347232883 -0.0240277224207629	0.106078
H	0.2940583205622039 0.4606386104429266 -0.0251188603740865	0.086423
H	0.2151170091948255 0.3894054152540294 -0.0243750902238157	0.104947
H	0.1442621995737000 0.3330848940196184 -0.0224765350900823	0.123638
H	0.0613641235687733 0.2573891145938432 -0.0315358777375571	0.113053
H	0.9370241269818907 0.1178314471220481 -0.0322143830394177	0.113134
H	0.8611733104068546 0.0392875707232832 -0.0240277224207629	0.106078
H	0.7940582995622056 0.9606386104429265 -0.0251188603740865	0.086423
H	0.7151169671948218 0.8894053462540343 -0.0243750902238157	0.104947
H	0.6442621895736992 0.8330848940196185 -0.0224765350900823	0.123638
H	0.5613641545687725 0.7573890915938443 -0.0315358777375571	0.113053
H	0.4370241689818942 0.3821685878779513 0.0322144260394177	0.113134
H	0.3611733514068546 0.4607124122767119 0.0240276954207572	0.106078
H	0.2940583205622039 0.5393613435570697 0.0251189043740900	0.086423
H	0.2151170091948255 0.6105945617459652 0.0243750362238182	0.104947
H	0.1442621995737000 0.6669150599803777 0.0224765350900826	0.123638
H	0.0613641235687733 0.7426109084061557 0.0315358397375538	0.113053
H	0.9370241269818907 0.8821685878779513 0.0322144260394177	0.113134
H	0.8611733104068546 0.9607124122767120 0.0240276954207572	0.106078
H	0.7940582995622056 0.0393613865570696 0.0251189043740900	0.086423
H	0.7151169671948218 0.1105945957459679 0.0243750362238182	0.104947
H	0.6442621895736992 0.1669150829803763 0.0224765350900826	0.123638
H	0.5613641545687725 0.2426108854061569 0.0315358397375538	0.113053
H	0.5629758310181058 0.6178314121220487 0.5322143640394197	0.113134
H	0.6388266485931455 0.5392876347232883 0.5240276954207569	0.106078
H	0.7059417004377944 0.4606386104429266 0.5251188423740921	0.086423
H	0.7848830328051782 0.3894054152540294 0.5243750972238201	0.104946
H	0.8557378104263008 0.3330848940196184 0.5224765350900821	0.123633
H	0.9386358044312276 0.2573891145938432 0.5315358707375528	0.113053
H	0.0629758370181061 0.1178314471220481 0.5322143640394197	0.113134
H	0.1388266895931453 0.0392875707232832 0.5240276954207569	0.106078
H	0.2059417004377942 0.9606386104429265 0.5251188423740921	0.086423
H	0.2848829908051745 0.8894053462540343 0.5243750972238201	0.104947
H	0.3557378104263008 0.8330848940196185 0.5224765350900821	0.123638
H	0.4386358454312279 0.7573890915938443 0.5315358707375527	0.113053
Co	0.5000000000000000 0.6878813211168926 0.7500000149999977	0.581206
Co	-0.0000000000000000 0.1878813791168905 0.7500000149999977	0.581206
Co	0.5000000000000000 0.3121186088831086 0.2500000000000000	0.581205
Co	-0.0000000000000000 0.8121186788831074 0.2500000000000000	0.581205
F	0.5000000000000000 0.6849267288727270 0.4506777867767742	-0.559532
F	-0.0000000000000000 0.1849267638727266 0.4506777867767742	-0.559532
F	0.5000000000000000 0.3150732481272675 0.9506777867767744	-0.559532
F	-0.0000000000000000 0.8150732711272730 0.9506777867767745	-0.559532
F	0.5000000000000000 0.6849267288727270 0.0493221992232245	-0.559532
F	-0.0000000000000000 0.1849267638727266 0.0493221992232246	-0.559532
F	0.5000000000000000 0.3150732481272675 0.5493221832232230	-0.559531
F	-0.0000000000000000 0.8150732711272730 0.5493221832232230	-0.559531
F	0.4443244070352094 0.7476219185960293 0.2500000000000000	-0.571539
F	0.5552665711695665 0.6199357599543818 0.2500000000000000	-0.563260
F	0.9443244070352091 0.2476219185960295 0.2500000000000000	-0.571539
F	0.0552665921695719 0.1199357599543817 0.2500000000000000	-0.563259
F	0.5556755519647910 0.2523780584039723 0.7500000149999977	-0.571539
F	0.4447334288304333 0.3800642400456182 0.7500000149999977	-0.563259
F	0.0556756039647952 0.7523780814039707 0.7500000149999977	-0.571539
F	0.9447334288304335 0.8800642400456182 0.7500000149999977	-0.563259
F	0.5556755519647910 0.7476219185960293 0.2500000000000000	-0.571539
F	0.4447334288304333 0.6199357599543818 0.2500000000000000	-0.563260
F	0.0556756039647952 0.2476219185960295 0.2500000000000000	-0.571539
F	0.9447334288304335 0.1199357599543817 0.2500000000000000	-0.563259
F	0.4443244070352094 0.2523780584039723 0.7500000149999977	-0.571539
F	0.5552665711695665 0.3800642400456182 0.7500000149999977	-0.563259
F	0.9443244070352091 0.7523780814039707 0.7500000149999977	-0.571539
F	0.0552665921695719 0.8800642400456182 0.7500000149999977	-0.563259
N	0.4412569410404722 0.6212777814698369 0.7500000149999977	-0.187796
N	0.5589524916561394 0.7541378136166283 0.7500000149999977	-0.194973
N	0.9412569000404654 0.1212777694698359 0.7500000149999977	-0.187796
N	0.0589524656561370 0.2541377906166224 0.7500000149999977	-0.194974
N	0.5587430589595277 0.3787222185301632 0.2500000000000000	-0.187796
N	0.4410475083438608 0.2458622093833774 0.2500000000000000	-0.194972
N	0.0587430589595277 0.8787222185301631 0.2500000000000000	-0.187796
N	0.9410475493438605 0.7458621863833717 0.2500000000000000	-0.194970
N	0.5587430589595277 0.6212777814698369 0.7500000149999977	-0.187796
N	0.4410475083438608 0.7541378136166283 0.7500000149999977	-0.194973
N	0.0587430589595277 0.1212777694698359 0.7500000149999977	-0.187796
N	0.9410475493438605 0.2541377906166224 0.7500000149999977	-0.194973
N	0.4412569410404722 0.3787222185301632 0.2500000000000000	-0.187796
N	0.5589524916561394 0.2458622093833774 0.2500000000000000	-0.194972
N	0.9412569000404654 0.8787222185301631 0.2500000000000000	-0.187796
N	0.0589524656561370 0.7458621863833717 0.2500000000000000	-0.194971
Ge	0.5000000000000000 0.6840808634571882 0.2500000000000000	1.777434
Ge	-0.0000000000000000 0.1840808874571903 0.2500000000000000	1.777434
Ge	0.5000000000000000 0.3159190895428117 0.7500000149999977	1.777434
Ge	-0.0000000000000000 0.8159191365428118 0.7500000149999977	1.777434
	  	
