#======================================================================

# CRYSTAL DATA

#----------------------------------------------------------------------

data_VESTA_phase_1


_pd_phase_name                         GeFSIX_3_Co
_cell_length_a                         14.25465
_cell_length_b                         14.25465
_cell_length_c                         7.78692
_cell_angle_alpha                      90
_cell_angle_beta                       90
_cell_angle_gamma                      90
_symmetry_space_group_name_H-M         P 1
_symmetry_Int_Tables_number            1

loop_
_symmetry_equiv_pos_as_xyz
   x, y, z

loop_
   _atom_site_label
   _atom_site_fract_x
   _atom_site_fract_y
   _atom_site_fract_z
   _atom_site_charge
C	0.2710877727160582 0.4511476057488443 0.6422604571849959	0.065740
C	0.2289122272839419 0.0488523982511560 0.6422604571849959	0.065741
C	0.2289122272839419 0.4511476057488443 0.3577395108150017	0.065745
C	0.2710877727160582 0.0488523982511560 0.3577395108150017	0.065746
C	0.0488523982511560 0.2710877727160582 0.3577395108150017	0.065750
C	0.4511476057488443 0.2289122272839419 0.3577395108150017	0.065749
C	0.4511476057488443 0.2710877727160582 0.6422604571849959	0.065754
C	0.0488523982511560 0.2289122272839419 0.6422604571849959	0.065755
C	0.9511475377488459 0.2289122272839419 0.6422604571849959	0.065772
C	0.5488524622511541 0.2710877727160582 0.6422604571849959	0.065773
C	0.5488524622511541 0.2289122272839419 0.3577395108150017	0.065777
C	0.9511475377488459 0.2710877727160582 0.3577395108150017	0.065776
C	0.7289122442839397 0.0488523982511560 0.3577395108150017	0.065750
C	0.7710877557160603 0.4511476057488443 0.3577395108150017	0.065750
C	0.7710877557160603 0.0488523982511560 0.6422604571849959	0.065756
C	0.7289122442839397 0.4511476057488443 0.6422604571849959	0.065754
C	0.4511476057488443 0.7289122442839397 0.6422604571849959	0.065742
C	0.0488523982511560 0.7710877557160603 0.6422604571849959	0.065743
C	0.0488523982511560 0.7289122442839397 0.3577395108150017	0.065747
C	0.4511476057488443 0.7710877557160603 0.3577395108150017	0.065747
C	0.2289122272839419 0.5488524622511541 0.3577395108150017	0.065781
C	0.2710877727160582 0.9511475377488459 0.3577395108150017	0.065781
C	0.2710877727160582 0.5488524622511541 0.6422604571849959	0.065786
C	0.2289122272839419 0.9511475377488459 0.6422604571849959	0.065785
C	0.7710877557160603 0.9511475377488459 0.6422604571849959	0.065773
C	0.7289122442839397 0.5488524622511541 0.6422604571849959	0.065774
C	0.7289122442839397 0.9511475377488459 0.3577395108150017	0.065777
C	0.7710877557160603 0.5488524622511541 0.3577395108150017	0.065778
C	0.5488524622511541 0.7710877557160603 0.3577395108150017	0.065782
C	0.9511475377488459 0.7289122442839397 0.3577395108150017	0.065781
C	0.9511475377488459 0.7710877557160603 0.6422604571849959	0.065785
C	0.5488524622511541 0.7289122442839397 0.6422604571849959	0.065786
H	0.2877254929013534 0.4128217258288356 0.7593953840775484	0.106904
H	0.2122744730986438 0.0871782741711644 0.7593953840775484	0.106905
H	0.2122744730986438 0.4128217258288356 0.2406045849224526	0.106904
H	0.2877254929013534 0.0871782741711644 0.2406045849224526	0.106904
H	0.0871782741711644 0.2877254929013534 0.2406045849224526	0.106903
H	0.4128217258288356 0.2122744730986438 0.2406045849224526	0.106903
H	0.4128217258288356 0.2877254929013534 0.7593953840775484	0.106901
H	0.0871782741711644 0.2122744730986438 0.7593953840775484	0.106903
H	0.9128217938288411 0.2122744730986438 0.7593953840775484	0.106903
H	0.5871782061711589 0.2877254929013534 0.7593953840775484	0.106902
H	0.5871782061711589 0.2122744730986438 0.2406045849224526	0.106903
H	0.9128217938288411 0.2877254929013534 0.2406045849224526	0.106902
H	0.7122744390986480 0.0871782741711644 0.2406045849224526	0.106901
H	0.7877255609013520 0.4128217258288356 0.2406045849224526	0.106900
H	0.7877255609013520 0.0871782741711644 0.7593953840775484	0.106899
H	0.7122744390986480 0.4128217258288356 0.7593953840775484	0.106899
H	0.4128217258288356 0.7122744390986480 0.7593953840775484	0.106902
H	0.0871782741711644 0.7877255609013520 0.7593953840775484	0.106902
H	0.0871782741711644 0.7122744390986480 0.2406045849224526	0.106902
H	0.4128217258288356 0.7877255609013520 0.2406045849224526	0.106901
H	0.2122744730986438 0.5871782061711589 0.2406045849224526	0.106902
H	0.2877254929013534 0.9128217938288411 0.2406045849224526	0.106901
H	0.2877254929013534 0.5871782061711589 0.7593953840775484	0.106900
H	0.2122744730986438 0.9128217938288411 0.7593953840775484	0.106900
H	0.7877255609013520 0.9128217938288411 0.7593953840775484	0.106900
H	0.7122744390986480 0.5871782061711589 0.7593953840775484	0.106900
H	0.7122744390986480 0.9128217938288411 0.2406045849224526	0.106900
H	0.7877255609013520 0.5871782061711589 0.2406045849224526	0.106900
H	0.5871782061711589 0.7877255609013520 0.2406045849224526	0.106899
H	0.9128217938288411 0.7122744390986480 0.2406045849224526	0.106899
H	0.9128217938288411 0.7877255609013520 0.7593953840775484	0.106897
H	0.5871782061711589 0.7122744390986480 0.7593953840775484	0.106898
Co	0.2500000000000000 0.2500000000000000 0.5000000000000000	0.811443
Co	0.7500000340000028 0.2500000000000000 0.5000000000000000	0.811444
Co	0.2500000000000000 0.7500000340000028 0.5000000000000000	0.811444
Co	0.7500000340000028 0.7500000340000028 0.5000000000000000	0.811444
Ge	0.2500000000000000 0.2500000000000000 0.0000000000000000	1.753712
Ge	0.7500000340000028 0.2500000000000000 0.0000000000000000	1.753690
Ge	0.2500000000000000 0.7500000340000028 0.0000000000000000	1.753690
Ge	0.7500000340000028 0.7500000340000028 0.0000000000000000	1.753619
F	0.2500000000000000 0.2500000000000000 0.7558700385204180	-0.509888
F	0.2500000000000000 0.2500000000000000 0.2441299614795820	-0.509888
F	0.3394654869236349 0.3394654869236349 -0.0023123729415899	-0.515784
F	0.1605345130763651 0.1605345130763651 -0.0023123729415899	-0.515781
F	0.1605345130763651 0.3394654869236349 0.0023123939415881	-0.515782
F	0.3394654869236349 0.1605345130763651 0.0023123939415881	-0.515782
F	0.7500000340000028 0.2500000000000000 0.7558700385204180	-0.509889
F	0.7500000340000028 0.2500000000000000 0.2441299614795820	-0.509889
F	0.8394655209236377 0.3394654869236349 0.0023123939415881	-0.515778
F	0.6605344790763623 0.1605345130763651 0.0023123939415881	-0.515776
F	0.6605344790763623 0.3394654869236349 -0.0023123729415899	-0.515777
F	0.8394655209236377 0.1605345130763651 -0.0023123729415899	-0.515777
F	0.2500000000000000 0.7500000340000028 0.7558700385204180	-0.509889
F	0.2500000000000000 0.7500000340000028 0.2441299614795820	-0.509889
F	0.3394654869236349 0.8394655209236377 0.0023123939415881	-0.515778
F	0.1605345130763651 0.6605344790763623 0.0023123939415881	-0.515776
F	0.1605345130763651 0.8394655209236377 -0.0023123729415899	-0.515777
F	0.3394654869236349 0.6605344790763623 -0.0023123729415899	-0.515777
F	0.7500000340000028 0.7500000340000028 0.7558700385204180	-0.509886
F	0.7500000340000028 0.7500000340000028 0.2441299614795820	-0.509887
F	0.8394655209236377 0.8394655209236377 -0.0023123729415899	-0.515764
F	0.6605344790763623 0.6605344790763623 -0.0023123729415899	-0.515761
F	0.6605344790763623 0.8394655209236377 0.0023123939415881	-0.515762
F	0.8394655209236377 0.6605344790763623 0.0023123939415881	-0.515762
N	0.4017705009006309 0.2500000000000000 0.5000000000000000	-0.215889
N	0.0982294990993690 0.2500000000000000 0.5000000000000000	-0.215888
N	0.2500000000000000 0.4017705009006309 0.5000000000000000	-0.215887
N	0.2500000000000000 0.0982294990993690 0.5000000000000000	-0.215886
N	0.9017705009006310 0.2500000000000000 0.5000000000000000	-0.215895
N	0.5982294990993690 0.2500000000000000 0.5000000000000000	-0.215894
N	0.7500000340000028 0.4017705009006309 0.5000000000000000	-0.215889
N	0.7500000340000028 0.0982294990993690 0.5000000000000000	-0.215889
N	0.4017705009006309 0.7500000340000028 0.5000000000000000	-0.215887
N	0.0982294990993690 0.7500000340000028 0.5000000000000000	-0.215887
N	0.2500000000000000 0.9017705009006310 0.5000000000000000	-0.215897
N	0.2500000000000000 0.5982294990993690 0.5000000000000000	-0.215896
N	0.9017705009006310 0.7500000340000028 0.5000000000000000	-0.215897
N	0.5982294990993690 0.7500000340000028 0.5000000000000000	-0.215896
N	0.7500000340000028 0.9017705009006310 0.5000000000000000	-0.215895
N	0.7500000340000028 0.5982294990993690 0.5000000000000000	-0.215895
	  	
