#======================================================================

# CRYSTAL DATA

#----------------------------------------------------------------------

data_VESTA_phase_1


_pd_phase_name                         GeFSIX_7_Zn
_cell_length_a                         19.27498
_cell_length_b                         19.27498
_cell_length_c                         8.04799
_cell_angle_alpha                      90
_cell_angle_beta                       90
_cell_angle_gamma                      90
_symmetry_space_group_name_H-M         P 1
_symmetry_Int_Tables_number            1

loop_
_symmetry_equiv_pos_as_xyz
   x, y, z

loop_
   _atom_site_label
   _atom_site_fract_x
   _atom_site_fract_y
   _atom_site_fract_z
   _atom_site_charge
C	0.6646734320844296 0.8722900779297015 0.6969653363448743	0.102648
C	0.6139356876901926 0.9235067561127416 0.7011707989491225	-0.175075
C	0.5791748462600446 0.8883746949103827 0.4279868642476425	-0.171132
C	0.6303945380032661 0.8378607566668166 0.4333610656345100	0.099239
C	0.8353265679155704 0.6277099220702985 0.6969653363448743	0.102649
C	0.8860643623098045 0.5764932948872591 0.7011707989491225	-0.175075
C	0.9208250527399577 0.6116253560896109 0.4279868642476425	-0.171132
C	0.8696054619967339 0.6621392433331834 0.4333610656345100	0.099239
C	0.6277099220702985 0.6646734320844296 0.6969653363448743	0.102649
C	0.5764932948872591 0.6139356876901926 0.7011707989491225	-0.175075
C	0.6116253560896109 0.5791748462600446 0.4279868642476425	-0.171132
C	0.6621392433331834 0.6303945380032661 0.4333610656345100	0.099239
C	0.8722900779297015 0.8353265679155704 0.6969653363448743	0.102649
C	0.9235067561127416 0.8860643623098045 0.7011707989491225	-0.175075
C	0.8883746949103827 0.9208250527399577 0.4279868642476425	-0.171132
C	0.8378607566668166 0.8696054619967339 0.4333610656345100	0.099239
C	0.3353265429155718 0.3722900279296972 0.3030346936551281	0.102648
C	0.3860643123098074 0.4235067561127420 0.2988292310508798	-0.175074
C	0.4208251537399555 0.3883746439103890 0.5720131357523576	-0.171132
C	0.3696054109967404 0.3378607566668166 0.5666389643654925	0.099239
C	0.1646734570844282 0.1277099590703052 0.3030346936551281	0.102649
C	0.1139356876901926 0.0764932438872580 0.2988292310508798	-0.175075
C	0.0791748272600394 0.1116253560896109 0.5720131357523576	-0.171137
C	0.1303945890032595 0.1621392313331824 0.5666389643654925	0.099246
C	0.3722900279296972 0.1646734570844282 0.3030346936551281	0.102649
C	0.4235067561127420 0.1139356876901926 0.2988292310508798	-0.175074
C	0.3883746439103890 0.0791748272600394 0.5720131357523576	-0.171132
C	0.3378607566668166 0.1303945890032595 0.5666389643654925	0.099239
C	0.1277099590703052 0.3353265429155718 0.3030346936551281	0.102649
C	0.0764932438872580 0.3860643123098074 0.2988292310508798	-0.175074
C	0.1116253560896109 0.4208251537399555 0.5720131357523576	-0.171136
C	0.1621392313331824 0.3696054109967404 0.5666389643654925	0.099246
C	0.4332834679220086 0.0698775262877113 0.4360364163456534	0.140247
C	0.4872834053461549 0.0167762072038369 0.4325155421821207	-0.121951
C	0.0667165320779915 0.4301224667122918 0.4360364163456534	0.140248
C	0.0127165626538425 0.4832237287961648 0.4325155421821207	-0.121951
C	0.4301224667122918 0.4332834679220086 0.4360364163456534	0.140247
C	0.4832237287961648 0.4872834053461549 0.4325155421821207	-0.121951
C	0.0698775262877113 0.0667165320779915 0.4360364163456534	0.140248
C	0.0167762072038369 0.0127165626538425 0.4325155421821207	-0.121951
C	0.5667165320779914 0.5698775332877083 0.5639635836543464	0.140245
C	0.5127166456538387 0.5167762212038310 0.5674844868178780	-0.121930
C	0.9332834179220115 0.9301224167122876 0.5639635836543464	0.140245
C	0.9872834053461549 0.9832238297961696 0.5674844868178780	-0.121930
C	0.5698775332877083 0.9332834179220115 0.5639635836543464	0.140245
C	0.5167762212038310 0.9872834053461549 0.5674844868178780	-0.121930
C	0.9301224167122876 0.5667165320779914 0.5639635836543464	0.140245
C	0.9832238297961696 0.5127166456538387 0.5674844868178780	-0.121930
H	0.6987227756482597 0.8634668656135792 0.8029432410292255	0.101649
H	0.6091827190503386 0.9558450077679036 0.8116969372319336	0.116535
H	0.5459139643392775 0.8913668315449115 0.3187289611521386	0.116912
H	0.6388576061682496 0.8031414675601584 0.3286207066753124	0.101417
H	0.8012772243517403 0.6365331343864208 0.8029432410292255	0.101649
H	0.8908172809496614 0.5441550432320971 0.8116969372319336	0.116535
H	0.9540860866607231 0.6086332194550892 0.3187289611521386	0.116912
H	0.8611423938317504 0.6968585324398416 0.3286207066753124	0.101417
H	0.6365331343864208 0.6987227756482597 0.8029432410292255	0.101649
H	0.5441550432320971 0.6091827190503386 0.8116969372319336	0.116534
H	0.6086332194550892 0.5459139643392775 0.3187289611521386	0.116912
H	0.6968585324398416 0.6388576061682496 0.3286207066753124	0.101417
H	0.8634668656135792 0.8012772243517403 0.8029432410292255	0.101649
H	0.9558450077679036 0.8908172809496614 0.8116969372319336	0.116534
H	0.8913668315449115 0.9540860866607231 0.3187289611521386	0.116912
H	0.8031414675601584 0.8611423938317504 0.3286207066753124	0.101417
H	0.3012772503517427 0.3634667896135798 0.1970567439707764	0.101649
H	0.3908172049496551 0.4558449567679030 0.1883030187680628	0.116534
H	0.4540860866607233 0.3913668315449115 0.6812710088478662	0.116912
H	0.3611424188317557 0.3031414935601605 0.6713792933246876	0.101417
H	0.1987227626482548 0.1365332363864224 0.1970567439707764	0.101649
H	0.1091827700503392 0.0441550592320982 0.1883030187680628	0.116534
H	0.0459139073392762 0.1086331944550905 0.6812710088478662	0.116913
H	0.1388576061682498 0.1968584944398385 0.6713792933246876	0.101418
H	0.3634667896135798 0.1987227626482548 0.1970567439707764	0.101649
H	0.4558449567679030 0.1091827700503392 0.1883030187680628	0.116534
H	0.3913668315449115 0.0459139073392762 0.6812710088478662	0.116912
H	0.3031414935601605 0.1388576061682498 0.6713792933246876	0.101417
H	0.1365332363864224 0.3012772503517427 0.1970567439707764	0.101649
H	0.0441550592320982 0.3908172049496551 0.1883030187680628	0.116534
H	0.1086331944550905 0.4540860866607233 0.6812710088478662	0.116912
H	0.1968584944398385 0.3611424188317557 0.6713792933246876	0.101418
H	0.5057943743770337 0.0022374529772176 0.3087234873469334	0.102981
H	0.9942056766229670 0.4977625190227800 0.3087234873469334	0.102981
H	0.4977625190227800 0.5057943743770337 0.3087234873469334	0.102981
H	0.0022374529772176 0.9942056766229670 0.3087234873469334	0.102981
H	0.4942056256229666 0.5022374309772228 0.6912765426530620	0.102979
H	0.0057943653770362 0.9977625190227801 0.6912765426530620	0.102979
H	0.5022374309772228 0.0057943653770362 0.6912765426530620	0.102979
H	0.9977625190227801 0.4942056256229666 0.6912765426530620	0.102979
Zn	0.2500000000000000 0.2500000000000000 0.4341736543915121	0.732275
Zn	0.7500000000000000 0.7500000000000000 0.5658263456084879	0.732273
Ge	0.2500000000000000 0.2500000000000000 0.9350919790961451	1.772785
Ge	0.7500000000000000 0.7500000000000000 0.0649080059038574	1.772786
F	0.2500000000000000 0.2500000000000000 0.1693149072721437	-0.515794
F	0.2500000000000000 0.2500000000000000 0.7007725934225230	-0.515705
F	0.7500000000000000 0.7500000000000000 0.8306851227278589	-0.515794
F	0.7500000000000000 0.7500000000000000 0.2992274065774770	-0.515703
F	0.3175011308988305 0.3158929128869453 0.9352826926335254	-0.551203
F	0.1824988941011680 0.1841071121130532 0.9352826926335254	-0.551202
F	0.1841071121130532 0.3175011308988305 0.9352826926335254	-0.551202
F	0.3158929128869453 0.1824988941011680 0.9352826926335254	-0.551203
F	0.6824988941011677 0.8158929128869453 0.0647173073664744	-0.551203
F	0.8175011058988323 0.6841070871130547 0.0647173073664744	-0.551203
F	0.8158929128869453 0.8175011058988323 0.0647173073664744	-0.551203
F	0.6841070871130547 0.6824988941011677 0.0647173073664744	-0.551203
N	0.3299562898222347 0.1727734133277370 0.4347009411041543	-0.230667
N	0.1700437351777637 0.3272266116722613 0.4347009411041543	-0.230672
N	0.3272266116722613 0.3299562898222347 0.4347009411041543	-0.230667
N	0.1727734133277370 0.1700437351777637 0.4347009411041543	-0.230672
N	0.6700437101777654 0.6727733883277388 0.5652990588958459	-0.230667
N	0.8299562898222346 0.8272266116722612 0.5652990588958459	-0.230667
N	0.6727733883277388 0.8299562898222346 0.5652990588958459	-0.230667
N	0.8272266116722612 0.6700437101777654 0.5652990588958459	-0.230666
	  	
