#======================================================================

# CRYSTAL DATA

#----------------------------------------------------------------------

data_VESTA_phase_1


_pd_phase_name                         GeFSIX_2_Cu_i
_cell_length_a                         13.73137
_cell_length_b                         13.73137
_cell_length_c                         8.14460
_cell_angle_alpha                      90
_cell_angle_beta                       90
_cell_angle_gamma                      90
_symmetry_space_group_name_H-M         P 1
_symmetry_Int_Tables_number            1

loop_
_symmetry_equiv_pos_as_xyz
   x, y, z

loop_
   _atom_site_label
   _atom_site_fract_x
   _atom_site_fract_y
   _atom_site_fract_z
   _atom_site_charge
C	0.0000000000000000 0.3000358638588601 0.3515719505595593	-0.152228
C	0.0000000000000000 0.1990958737897870 0.3569910458925712	0.104099
C	0.5000000000000000 0.8000358638588601 0.8515719795595582	-0.152228
C	0.5000000000000000 0.6990958917897885 0.8569910458925711	0.104099
C	0.0000000000000000 0.6999641361411399 0.3515719505595593	-0.152230
C	0.0000000000000000 0.8009041082102115 0.3569910458925712	0.104101
C	0.5000000000000000 0.1999641531411378 0.8515719795595582	-0.152230
C	0.5000000000000000 0.3009041082102115 0.8569910458925711	0.104101
C	0.6999641361411399 -0.0000000000000000 0.3515719505595593	-0.152227
C	0.8009041082102115 -0.0000000000000000 0.3569910458925712	0.104102
C	0.1999641531411378 0.5000000000000000 0.8515719795595582	-0.152227
C	0.3009041082102115 0.5000000000000000 0.8569910458925711	0.104102
C	0.3000358638588601 -0.0000000000000000 0.3515719505595593	-0.152230
C	0.1990958737897870 -0.0000000000000000 0.3569910458925712	0.104104
C	0.8000358638588601 0.5000000000000000 0.8515719795595582	-0.152230
C	0.6990958917897885 0.5000000000000000 0.8569910458925711	0.104104
C	0.0000000000000000 0.3000358638588601 0.6484280204404418	-0.152224
C	0.0000000000000000 0.1990958737897870 0.6430089541074289	0.104100
C	0.5000000000000000 0.8000358638588601 0.1484280494404407	-0.152224
C	0.5000000000000000 0.6990958917897885 0.1430089391074313	0.104100
C	0.0000000000000000 0.6999641361411399 0.6484280204404418	-0.152227
C	0.0000000000000000 0.8009041082102115 0.6430089541074289	0.104102
C	0.5000000000000000 0.1999641531411378 0.1484280494404407	-0.152227
C	0.5000000000000000 0.3009041082102115 0.1430089391074313	0.104102
C	0.3000358638588601 -0.0000000000000000 0.6484280204404418	-0.152226
C	0.1990958737897870 -0.0000000000000000 0.6430089541074289	0.104104
C	0.8000358638588601 0.5000000000000000 0.1484280494404407	-0.152226
C	0.6990958917897885 0.5000000000000000 0.1430089391074313	0.104104
C	0.6999641361411399 -0.0000000000000000 0.6484280204404418	-0.152224
C	0.8009041082102115 -0.0000000000000000 0.6430089541074289	0.104102
C	0.1999641531411378 0.5000000000000000 0.1484280494404407	-0.152224
C	0.3009041082102115 0.5000000000000000 0.1430089391074313	0.104102
C	0.0000000000000000 0.4555830258531970 0.5000000000000000	-0.093511
C	0.0000000000000000 0.3526238794453970 0.5000000000000000	0.159017
C	0.5000000000000000 0.9555830598531998 -0.0000000000000000	-0.093511
C	0.5000000000000000 0.8526238444453975 -0.0000000000000000	0.159017
C	0.0000000000000000 0.5444169741468030 0.5000000000000000	-0.093271
C	0.0000000000000000 0.6473761555546025 0.5000000000000000	0.158988
C	0.5000000000000000 0.0444169531467977 -0.0000000000000000	-0.093271
C	0.5000000000000000 0.1473761555546023 -0.0000000000000000	0.158988
C	0.5444169741468030 -0.0000000000000000 0.5000000000000000	-0.093511
C	0.6473761555546025 -0.0000000000000000 0.5000000000000000	0.159017
C	0.0444169531467977 0.5000000000000000 -0.0000000000000000	-0.093512
C	0.1473761555546023 0.5000000000000000 -0.0000000000000000	0.159017
C	0.4555830258531970 -0.0000000000000000 0.5000000000000000	-0.093271
C	0.3526238794453970 -0.0000000000000000 0.5000000000000000	0.158988
C	0.9555830598531998 0.5000000000000000 -0.0000000000000000	-0.093271
C	0.8526238444453975 0.5000000000000000 -0.0000000000000000	0.158988
H	0.0000000000000000 0.3371426816868722 0.2333753248030106	0.122127
H	0.0000000000000000 0.1564282962570422 0.2444949152531920	0.101181
H	0.5000000000000000 0.8371426816868720 0.7333753248030107	0.122127
H	0.5000000000000000 0.6564282432570412 0.7444949452531943	0.101182
H	0.0000000000000000 0.6628573183131280 0.2333753248030106	0.122126
H	0.0000000000000000 0.8435717567429588 0.2444949152531920	0.101181
H	0.5000000000000000 0.1628573183131279 0.7333753248030107	0.122126
H	0.5000000000000000 0.3435717217429523 0.7444949452531943	0.101182
H	0.6628573183131280 -0.0000000000000000 0.2333753248030106	0.122127
H	0.8435717567429588 -0.0000000000000000 0.2444949152531920	0.101181
H	0.1628573183131279 0.5000000000000000 0.7333753248030107	0.122127
H	0.3435717217429523 0.5000000000000000 0.7444949452531943	0.101181
H	0.3371426816868721 -0.0000000000000000 0.2333753248030106	0.122126
H	0.1564282962570422 -0.0000000000000000 0.2444949152531920	0.101181
H	0.8371426816868720 0.5000000000000000 0.7333753248030107	0.122126
H	0.6564282432570412 0.5000000000000000 0.7444949452531943	0.101181
H	0.0000000000000000 0.3371426816868722 0.7666246751969893	0.122125
H	0.0000000000000000 0.1564282962570422 0.7555049967468080	0.101182
H	0.5000000000000000 0.8371426816868720 0.2666246751969894	0.122125
H	0.5000000000000000 0.6564282432570412 0.2555050847468081	0.101181
H	0.0000000000000000 0.6628573183131280 0.7666246751969893	0.122124
H	0.0000000000000000 0.8435717567429588 0.7555049967468080	0.101182
H	0.5000000000000000 0.1628573183131279 0.2666246751969894	0.122124
H	0.5000000000000000 0.3435717217429523 0.2555050847468081	0.101181
H	0.3371426816868721 -0.0000000000000000 0.7666246751969893	0.122124
H	0.1564282962570422 -0.0000000000000000 0.7555049967468080	0.101181
H	0.8371426816868720 0.5000000000000000 0.2666246751969894	0.122124
H	0.6564282432570412 0.5000000000000000 0.2555050847468081	0.101181
H	0.6628573183131280 -0.0000000000000000 0.7666246751969893	0.122125
H	0.8435717567429588 -0.0000000000000000 0.7555049967468080	0.101181
H	0.1628573183131279 0.5000000000000000 0.2666246751969894	0.122125
H	0.3435717217429523 0.5000000000000000 0.2555050847468081	0.101181
Cu	0.0000000000000000 -0.0000000000000000 0.5000000000000000	0.711744
Cu	0.5000000000000000 0.5000000000000000 -0.0000000000000000	0.711744
Ge	0.0000000000000000 -0.0000000000000000 -0.0000000000000000	1.757771
Ge	0.5000000000000000 0.5000000000000000 0.5000000000000000	1.757771
N	0.0000000000000000 0.1494001908546031 0.5000000000000000	-0.220427
N	0.5000000000000000 0.6494001728546016 -0.0000000000000000	-0.220427
N	0.0000000000000000 0.8505998271453984 0.5000000000000000	-0.220427
N	0.5000000000000000 0.3505998271453984 -0.0000000000000000	-0.220427
N	0.8505998271453984 -0.0000000000000000 0.5000000000000000	-0.220428
N	0.3505998271453984 0.5000000000000000 -0.0000000000000000	-0.220428
N	0.1494001908546031 -0.0000000000000000 0.5000000000000000	-0.220427
N	0.6494001728546016 0.5000000000000000 -0.0000000000000000	-0.220427
F	0.0000000000000000 -0.0000000000000000 0.7723404848208603	-0.532152
F	0.5000000000000000 0.5000000000000000 0.2723405738208638	-0.532195
F	0.0000000000000000 -0.0000000000000000 0.2276594411791409	-0.532195
F	0.5000000000000000 0.5000000000000000 0.7276595151791397	-0.532152
F	0.5939320844351917 0.5939320844351917 0.5000000000000000	-0.546839
F	0.5939320844351917 0.4060679155648083 0.5000000000000000	-0.546839
F	0.4060679155648083 0.5939320844351917 0.5000000000000000	-0.546839
F	0.4060679155648083 0.4060679155648083 0.5000000000000000	-0.546839
F	0.0939321014351896 0.0939321014351896 -0.0000000000000000	-0.546839
F	0.9060679155648083 0.9060679155648083 -0.0000000000000000	-0.546839
F	0.9060679155648083 0.0939321014351896 -0.0000000000000000	-0.546839
F	0.0939321014351896 0.9060679155648083 -0.0000000000000000	-0.546839
	  	
