#======================================================================

# CRYSTAL DATA

#----------------------------------------------------------------------

data_VESTA_phase_1


_pd_phase_name                         GeFSIX_6_Cu_i
_cell_length_a                         17.81930
_cell_length_b                         17.81930
_cell_length_c                         15.06605
_cell_angle_alpha                      90
_cell_angle_beta                       90
_cell_angle_gamma                      90
_symmetry_space_group_name_H-M         P 1
_symmetry_Int_Tables_number            1

loop_
_symmetry_equiv_pos_as_xyz
   x, y, z

loop_
   _atom_site_label
   _atom_site_fract_x
   _atom_site_fract_y
   _atom_site_fract_z
   _atom_site_charge
N	0.2440268439730326 0.1293625122565689 0.1281823772396492	-0.272101
N	0.2559731560269673 0.3706375017434321 0.1281823772396492	-0.272161
N	0.3706375017434321 0.2440268439730326 0.1281823772396492	-0.272163
N	0.1293625122565689 0.2559731560269673 0.1281823772396492	-0.272099
N	0.7559731290269686 0.6293625252565733 0.3718176077603531	-0.272107
N	0.7440268709730314 0.8706374747434267 0.3718176077603531	-0.272106
N	0.6293625252565733 0.7440268709730314 0.3718176077603531	-0.272106
N	0.8706374747434267 0.7559731290269686 0.3718176077603531	-0.272106
N	0.7559731290269686 0.8706374747434267 0.8718176077603531	-0.272105
N	0.7440268709730314 0.6293625252565733 0.8718176077603531	-0.272106
N	0.6293625252565733 0.7559731290269686 0.8718176077603531	-0.272106
N	0.8706374747434267 0.7440268709730314 0.8718176077603531	-0.272106
N	0.2440268439730326 0.3706375017434321 0.6281823922396469	-0.272162
N	0.2559731560269673 0.1293625122565689 0.6281823922396469	-0.272099
N	0.3706375017434321 0.2559731560269673 0.6281823922396469	-0.272162
N	0.1293625122565689 0.2440268439730326 0.6281823922396469	-0.272100
C	0.1996638165373353 0.0935723848124931 0.1865278565768572	0.107711
C	0.1914555947300615 0.0160118776699340 0.1860122278993672	-0.180301
C	0.2326369716291506 0.9730536534905604 0.1250815741968403	0.109090
C	0.2797873859508960 0.0112491925392700 0.0657682811314192	-0.177867
C	0.2829363781786537 0.0891668435351534 0.0684387401144508	0.109065
C	0.2267606724564536 0.8906167108052897 0.1238505756106296	0.061740
C	0.2907914294611785 0.8466520808947733 0.1208879418908177	-0.172943
C	0.2862530143845933 0.7674732156725689 0.1220419134949829	0.087074
C	0.1487296000923882 0.7786039744114764 0.1246209492465726	-0.124680
C	0.1551228796385085 0.8555177994160155 0.1268663112541190	-0.136744
C	0.3003361434626685 0.4064276281875044 0.1865278565768572	0.107748
C	0.3085443652699352 0.4839881033300680 0.1860122278993672	-0.180301
C	0.2673630283708494 0.5269463465094396 0.1250815741968403	0.109094
C	0.2202126270491016 0.4887508044607262 0.0657682811314192	-0.177872
C	0.2170636358213474 0.4108331634648507 0.0684387401144508	0.109111
C	0.2732393275435464 0.6093832891947103 0.1238505756106296	0.061739
C	0.2092086115388213 0.6533479191052267 0.1208879418908177	-0.172941
C	0.2137469586154081 0.7325267843274311 0.1220419134949829	0.087068
C	0.3512703859076107 0.7213960255885236 0.1246209492465726	-0.124684
C	0.3448771203614915 0.6444822005839845 0.1268663112541190	-0.136743
C	0.4064276281875044 0.1996638165373353 0.1865278565768572	0.107750
C	0.4839881033300680 0.1914555947300615 0.1860122278993672	-0.180302
C	0.5269463465094396 0.2326369716291506 0.1250815741968403	0.109093
C	0.4887508044607262 0.2797873859508960 0.0657682811314192	-0.177871
C	0.4108331634648507 0.2829363781786537 0.0684387401144508	0.109112
C	0.6093832891947103 0.2267606724564536 0.1238505756106296	0.061740
C	0.6533479191052267 0.2907914294611785 0.1208879418908177	-0.172942
C	0.7325267843274311 0.2862530143845933 0.1220419134949829	0.087074
C	0.7213960255885236 0.1487296000923882 0.1246209492465726	-0.124680
C	0.6444822005839845 0.1551228796385085 0.1268663112541190	-0.136743
C	0.0935723848124931 0.3003361434626685 0.1865278565768572	0.107711
C	0.0160118776699340 0.3085443652699352 0.1860122278993672	-0.180300
C	0.9730536534905604 0.2673630283708494 0.1250815741968403	0.109091
C	0.0112491925392700 0.2202126270491016 0.0657682811314192	-0.177869
C	0.0891668435351534 0.2170636358213474 0.0684387401144508	0.109065
C	0.8906167108052897 0.2732393275435464 0.1238505756106296	0.061739
C	0.8466520808947733 0.2092086115388213 0.1208879418908177	-0.172942
C	0.7674732156725689 0.2137469586154081 0.1220419134949829	0.087068
C	0.7786039744114764 0.3512703859076107 0.1246209492465726	-0.124684
C	0.8555177994160155 0.3448771203614915 0.1268663112541190	-0.136744
C	0.8003361964626622 0.5935723718124957 0.3134721594231443	0.107713
C	0.8085444182699361 0.5160118426699276 0.3139877411006338	-0.180300
C	0.7673630283708495 0.4730536534905603 0.3749183938031571	0.109090
C	0.7202125870491054 0.5112492495392714 0.4342317228685810	-0.177868
C	0.7170635958213440 0.5891668905351537 0.4315612998855454	0.109065
C	0.7732394075435459 0.3906167638052905 0.3761494163893696	0.061739
C	0.7092085975388203 0.3466520278947726 0.3791120501091817	-0.172942
C	0.7137469856154068 0.2674731356725694 0.3779580865050171	0.087073
C	0.8512704129076164 0.2786039474114779 0.3753790347534260	-0.124681
C	0.8448770673614906 0.3555177734160135 0.3731337207458835	-0.136745
C	0.6996638035373378 0.9064276281875043 0.3134721594231443	0.107710
C	0.6914555817300639 0.9839881033300679 0.3139877411006338	-0.180301
C	0.7326369716291505 0.0269463525094402 0.3749183938031571	0.109092
C	0.7797874129508946 0.9887508044607259 0.4342317228685810	-0.177868
C	0.7829364041786560 0.9108332164648516 0.4315612998855454	0.109064
C	0.7267605924564541 0.1093832631947081 0.3761494163893696	0.061739
C	0.7907914024611797 0.1533479591052228 0.3791120501091817	-0.172941
C	0.7862530143845932 0.2325268373274319 0.3779580865050171	0.087067
C	0.6487295870923836 0.2213960395885246 0.3753790347534260	-0.124684
C	0.6551229326385094 0.1444822005839843 0.3731337207458835	-0.136743
C	0.5935723718124957 0.6996638035373378 0.3134721594231443	0.107713
C	0.5160118426699276 0.6914555817300639 0.3139877411006338	-0.180301
C	0.4730536534905603 0.7326369716291505 0.3749183938031571	0.109092
C	0.5112492495392714 0.7797874129508946 0.4342317228685810	-0.177867
C	0.5891668905351537 0.7829364041786560 0.4315612998855454	0.109064
C	0.3906167638052905 0.7267605924564541 0.3761494163893696	0.061739
C	0.3466520278947726 0.7907914024611797 0.3791120501091817	-0.172943
C	0.2674731356725694 0.7862530143845932 0.3779580865050171	0.087073
C	0.2786039474114779 0.6487295870923836 0.3753790347534260	-0.124681
C	0.3555177734160135 0.6551229326385094 0.3731337207458835	-0.136745
C	0.9064276281875043 0.8003361964626622 0.3134721594231443	0.107711
C	0.9839881033300679 0.8085444182699361 0.3139877411006338	-0.180299
C	0.0269463525094402 0.7673630283708495 0.3749183938031571	0.109090
C	0.9887508044607259 0.7202125870491054 0.4342317228685810	-0.177869
C	0.9108332164648516 0.7170635958213440 0.4315612998855454	0.109065
C	0.1093832631947081 0.7732394075435459 0.3761494163893696	0.061739
C	0.1533479591052228 0.7092085975388203 0.3791120501091817	-0.172941
C	0.2325268373274319 0.7137469856154068 0.3779580865050171	0.087068
C	0.2213960395885246 0.8512704129076164 0.3753790347534260	-0.124684
C	0.1444822005839843 0.8448770673614906 0.3731337207458835	-0.136743
C	0.8003361964626622 0.9064276281875043 0.8134721274231415	0.107711
C	0.8085444182699361 0.9839881033300679 0.8139878041006355	-0.180299
C	0.7673630283708495 0.0269463525094402 0.8749184578031552	0.109091
C	0.7202125870491054 0.9887508044607259 0.9342316918685821	-0.177869
C	0.7170635958213440 0.9108332164648516 0.9315612678855428	0.109064
C	0.7732394075435459 0.1093832631947081 0.8761494163893697	0.061739
C	0.7092085975388203 0.1533479591052228 0.8791120821091842	-0.172940
C	0.7137469856154068 0.2325268373274319 0.8779581185050126	0.087073
C	0.8512704129076164 0.2213960395885246 0.8753790977534277	-0.124681
C	0.8448770673614906 0.1444822005839843 0.8731337527458791	-0.136744
C	0.6996638035373378 0.5935723718124957 0.8134721274231415	0.107712
C	0.6914555817300639 0.5160118426699276 0.8139878041006355	-0.180300
C	0.7326369716291505 0.4730536534905603 0.8749184578031552	0.109090
C	0.7797874129508946 0.5112492495392714 0.9342316918685821	-0.177867
C	0.7829364041786560 0.5891668905351537 0.9315612678855428	0.109066
C	0.7267605924564541 0.3906167638052905 0.8761494163893697	0.061739
C	0.7907914024611797 0.3466520278947726 0.8791120821091842	-0.172943
C	0.7862530143845932 0.2674731356725694 0.8779581185050126	0.087067
C	0.6487295870923836 0.2786039474114779 0.8753790977534277	-0.124683
C	0.6551229326385094 0.3555177734160135 0.8731337527458791	-0.136744
C	0.5935723718124957 0.8003361964626622 0.8134721274231415	0.107712
C	0.5160118426699276 0.8085444182699361 0.8139878041006355	-0.180299
C	0.4730536534905603 0.7673630283708495 0.8749184578031552	0.109091
C	0.5112492495392714 0.7202125870491054 0.9342316918685821	-0.177868
C	0.5891668905351537 0.7170635958213440 0.9315612678855428	0.109066
C	0.3906167638052905 0.7732394075435459 0.8761494163893697	0.061739
C	0.3466520278947726 0.7092085975388203 0.8791120821091842	-0.172943
C	0.2674731356725694 0.7137469856154068 0.8779581185050126	0.087073
C	0.2786039474114779 0.8512704129076164 0.8753790977534277	-0.124681
C	0.3555177734160135 0.8448770673614906 0.8731337527458791	-0.136745
C	0.9064276281875043 0.6996638035373378 0.8134721274231415	0.107712
C	0.9839881033300679 0.6914555817300639 0.8139878041006355	-0.180300
C	0.0269463525094402 0.7326369716291505 0.8749184578031552	0.109090
C	0.9887508044607259 0.7797874129508946 0.9342316918685821	-0.177867
C	0.9108332164648516 0.7829364041786560 0.9315612678855428	0.109065
C	0.1093832631947081 0.7267605924564541 0.8761494163893697	0.061739
C	0.1533479591052228 0.7907914024611797 0.8791120821091842	-0.172941
C	0.2325268373274319 0.7862530143845932 0.8779581185050126	0.087068
C	0.2213960395885246 0.6487295870923836 0.8753790977534277	-0.124683
C	0.1444822005839843 0.6551229326385094 0.8731337527458791	-0.136743
C	0.1996638165373353 0.4064276281875044 0.6865278725768585	0.107748
C	0.1914555947300615 0.4839881033300680 0.6860121958993645	-0.180302
C	0.2326369716291506 0.5269463465094396 0.6250815421968448	0.109094
C	0.2797873859508960 0.4887508044607262 0.5657683081314179	-0.177871
C	0.2829363781786537 0.4108331634648507 0.5684387321144572	0.109112
C	0.2267606724564536 0.6093832891947103 0.6238505836106303	0.061739
C	0.2907914294611785 0.6533479191052267 0.6208879178908158	-0.172944
C	0.2862530143845933 0.7325267843274311 0.6220418814949874	0.087073
C	0.1487296000923882 0.7213960255885236 0.6246209022465723	-0.124682
C	0.1551228796385085 0.6444822005839845 0.6268662472541209	-0.136744
C	0.3003361434626685 0.0935723848124931 0.6865278725768585	0.107712
C	0.3085443652699352 0.0160118776699340 0.6860121958993645	-0.180300
C	0.2673630283708494 0.9730536534905604 0.6250815421968448	0.109090
C	0.2202126270491016 0.0112491925392700 0.5657683081314179	-0.177868
C	0.2170636358213474 0.0891668435351534 0.5684387321144572	0.109065
C	0.2732393275435464 0.8906167108052897 0.6238505836106303	0.061739
C	0.2092086115388213 0.8466520808947733 0.6208879178908158	-0.172943
C	0.2137469586154081 0.7674732156725689 0.6220418814949874	0.087067
C	0.3512703859076107 0.7786039744114764 0.6246209022465723	-0.124684
C	0.3448771203614915 0.8555177994160155 0.6268662472541209	-0.136745
C	0.4064276281875044 0.3003361434626685 0.6865278725768585	0.107749
C	0.4839881033300680 0.3085443652699352 0.6860121958993645	-0.180300
C	0.5269463465094396 0.2673630283708494 0.6250815421968448	0.109092
C	0.4887508044607262 0.2202126270491016 0.5657683081314179	-0.177872
C	0.4108331634648507 0.2170636358213474 0.5684387321144572	0.109113
C	0.6093832891947103 0.2732393275435464 0.6238505836106303	0.061739
C	0.6533479191052267 0.2092086115388213 0.6208879178908158	-0.172943
C	0.7325267843274311 0.2137469586154081 0.6220418814949874	0.087073
C	0.7213960255885236 0.3512703859076107 0.6246209022465723	-0.124682
C	0.6444822005839845 0.3448771203614915 0.6268662472541209	-0.136744
C	0.0935723848124931 0.1996638165373353 0.6865278725768585	0.107712
C	0.0160118776699340 0.1914555947300615 0.6860121958993645	-0.180301
C	0.9730536534905604 0.2326369716291506 0.6250815421968448	0.109091
C	0.0112491925392700 0.2797873859508960 0.5657683081314179	-0.177867
C	0.0891668435351534 0.2829363781786537 0.5684387321144572	0.109065
C	0.8906167108052897 0.2267606724564536 0.6238505836106303	0.061739
C	0.8466520808947733 0.2907914294611785 0.6208879178908158	-0.172944
C	0.7674732156725689 0.2862530143845933 0.6220418814949874	0.087067
C	0.7786039744114764 0.1487296000923882 0.6246209022465723	-0.124684
C	0.8555177994160155 0.1551228796385085 0.6268662472541209	-0.136745
H	0.1711104207192697 0.1287467910644103 0.2354228946068316	0.097159
H	0.1549415475924562 0.9890019872618145 0.2344843101697948	0.112031
H	0.3120884894578084 0.9805216104797772 0.0162287693905466	0.111977
H	0.3163733402437510 0.1211897962078850 0.0208723021552534	0.095984
H	0.3460526786982258 0.8730585658998418 0.1201372893364851	0.107364
H	0.0935492059496085 0.7519454437696838 0.1251605212527511	0.107979
H	0.1049985987257501 0.8907262124789131 0.1290566904357791	0.098035
H	0.3288895522807317 0.3712532359355956 0.2354228946068316	0.097156
H	0.3450584924075401 0.5109980127381855 0.2344843101697948	0.112030
H	0.1879115235421891 0.5194783895202228 0.0162287693905466	0.111978
H	0.1836266597562489 0.3788102037921150 0.0208723021552534	0.095977
H	0.1539473353017753 0.6269414341001582 0.1201372893364851	0.107364
H	0.4064507870503873 0.7480545562303162 0.1251605212527511	0.107981
H	0.3950014142742545 0.6092737875210869 0.1290566904357791	0.098036
H	0.3712532359355956 0.1711104207192697 0.2354228946068316	0.097155
H	0.5109980127381855 0.1549415475924562 0.2344843101697948	0.112031
H	0.5194783895202228 0.3120884894578084 0.0162287693905466	0.111978
H	0.3788102037921150 0.3163733402437510 0.0208723021552534	0.095977
H	0.6269414341001582 0.3460526786982258 0.1201372893364851	0.107365
H	0.7480545562303162 0.0935492059496085 0.1251605212527511	0.107979
H	0.6092737875210869 0.1049985987257501 0.1290566904357791	0.098036
H	0.1287467910644103 0.3288895522807317 0.2354228946068316	0.097160
H	0.9890019872618145 0.3450584924075401 0.2344843101697948	0.112030
H	0.9805216104797772 0.1879115235421891 0.0162287693905466	0.111978
H	0.1211897962078850 0.1836266597562489 0.0208723021552534	0.095984
H	0.8730585658998418 0.1539473353017753 0.1201372893364851	0.107364
H	0.7519454437696838 0.4064507870503873 0.1251605212527511	0.107982
H	0.8907262124789131 0.3950014142742545 0.1290566904357791	0.098036
H	0.8288895522807316 0.6287468180644090 0.2645771213931697	0.097159
H	0.8450584114075440 0.4890020412618120 0.2655156898302052	0.112032
H	0.6879115105421918 0.4805216104797770 0.4837712326094534	0.111977
H	0.6836267127562499 0.6211898232078835 0.4791276958447463	0.095984
H	0.6539473213017740 0.3730585118998442 0.3798627186635156	0.107363
H	0.9064507340503865 0.2519454707696825 0.3748394707472484	0.107981
H	0.8950013872742558 0.3907262384789081 0.3709433175642216	0.098038
H	0.6711104477192684 0.8712531819355910 0.2645771213931697	0.097159
H	0.6549415885924560 0.0109979747381823 0.2655156898302052	0.112032
H	0.8120884894578082 0.0194783885202193 0.4837712326094534	0.111977
H	0.8163732872437501 0.8788101767921165 0.4791276958447463	0.095983
H	0.8460526786982260 0.1269415011001603 0.3798627186635156	0.107364
H	0.5935492129496127 0.2480545022303117 0.3748394707472484	0.107980
H	0.6049986127257442 0.1092737745210893 0.3709433175642216	0.098035
H	0.6287468180644090 0.6711104477192684 0.2645771213931697	0.097160
H	0.4890020412618120 0.6549415885924560 0.2655156898302052	0.112032
H	0.4805216104797770 0.8120884894578082 0.4837712326094534	0.111977
H	0.6211898232078835 0.8163732872437501 0.4791276958447463	0.095984
H	0.3730585118998442 0.8460526786982260 0.3798627186635156	0.107364
H	0.2519454707696825 0.5935492129496127 0.3748394707472484	0.107980
H	0.3907262384789081 0.6049986127257442 0.3709433175642216	0.098036
H	0.8712531819355910 0.8288895522807316 0.2645771213931697	0.097159
H	0.0109979747381823 0.8450584114075440 0.2655156898302052	0.112031
H	0.0194783885202193 0.6879115105421918 0.4837712326094534	0.111978
H	0.8788101767921165 0.6836267127562499 0.4791276958447463	0.095983
H	0.1269415011001603 0.6539473213017740 0.3798627186635156	0.107363
H	0.2480545022303117 0.9064507340503865 0.3748394707472484	0.107981
H	0.1092737745210893 0.8950013872742558 0.3709433175642216	0.098038
H	0.8288895522807316 0.8712531819355910 0.7645770903931709	0.097155
H	0.8450584114075440 0.0109979747381823 0.7655157048302101	0.112031
H	0.6879115105421918 0.0194783885202193 0.9837712636094527	0.111979
H	0.6836267127562499 0.8788101767921165 0.9791276318447482	0.095981
H	0.6539473213017740 0.1269415011001603 0.8798626866635129	0.107363
H	0.9064507340503865 0.2480545022303117 0.8748394077472466	0.107981
H	0.8950013872742558 0.1092737745210893 0.8709432855642190	0.098037
H	0.6711104477192684 0.6287468180644090 0.7645770903931709	0.097156
H	0.6549415885924560 0.4890020412618120 0.7655157048302101	0.112031
H	0.8120884894578082 0.4805216104797770 0.9837712636094527	0.111978
H	0.8163732872437501 0.6211898232078835 0.9791276318447482	0.095981
H	0.8460526786982260 0.3730585118998442 0.8798626866635129	0.107364
H	0.5935492129496127 0.2519454707696825 0.8748394077472466	0.107980
H	0.6049986127257442 0.3907262384789081 0.8709432855642190	0.098036
H	0.6287468180644090 0.8288895522807316 0.7645770903931709	0.097156
H	0.4890020412618120 0.8450584114075440 0.7655157048302101	0.112031
H	0.4805216104797770 0.6879115105421918 0.9837712636094527	0.111979
H	0.6211898232078835 0.6836267127562499 0.9791276318447482	0.095981
H	0.3730585118998442 0.6539473213017740 0.8798626866635129	0.107364
H	0.2519454707696825 0.9064507340503865 0.8748394077472466	0.107982
H	0.3907262384789081 0.8950013872742558 0.8709432855642190	0.098037
H	0.8712531819355910 0.6711104477192684 0.7645770903931709	0.097155
H	0.0109979747381823 0.6549415885924560 0.7655157048302101	0.112032
H	0.0194783885202193 0.8120884894578082 0.9837712636094527	0.111978
H	0.8788101767921165 0.8163732872437501 0.9791276318447482	0.095981
H	0.1269415011001603 0.8460526786982260 0.8798626866635129	0.107364
H	0.2480545022303117 0.5935492129496127 0.8748394077472466	0.107980
H	0.1092737745210893 0.6049986127257442 0.8709432855642190	0.098037
H	0.1711104207192697 0.3712532359355956 0.7354229096068291	0.097153
H	0.1549415475924562 0.5109980127381855 0.7344842951697899	0.112033
H	0.3120884894578084 0.5194783895202228 0.5162287673905464	0.111979
H	0.3163733402437510 0.3788102037921150 0.5208723041552537	0.095974
H	0.3460526786982258 0.6269414341001582 0.6201373133364871	0.107365
H	0.0935492059496085 0.7480545562303162 0.6251605922527534	0.107980
H	0.1049985987257501 0.6092737875210869 0.6290567144357810	0.098036
H	0.3288895522807317 0.1287467910644103 0.7354229096068291	0.097156
H	0.3450584924075401 0.9890019872618145 0.7344842951697899	0.112032
H	0.1879115235421891 0.9805216104797772 0.5162287673905464	0.111979
H	0.1836266597562489 0.1211897962078850 0.5208723041552537	0.095982
H	0.1539473353017753 0.8730585658998418 0.6201373133364871	0.107363
H	0.4064507870503873 0.7519454437696838 0.6251605922527534	0.107982
H	0.3950014142742545 0.8907262124789131 0.6290567144357810	0.098039
H	0.3712532359355956 0.3288895522807317 0.7354229096068291	0.097153
H	0.5109980127381855 0.3450584924075401 0.7344842951697899	0.112032
H	0.5194783895202228 0.1879115235421891 0.5162287673905464	0.111980
H	0.3788102037921150 0.1836266597562489 0.5208723041552537	0.095974
H	0.6269414341001582 0.1539473353017753 0.6201373133364871	0.107364
H	0.7480545562303162 0.4064507870503873 0.6251605922527534	0.107981
H	0.6092737875210869 0.3950014142742545 0.6290567144357810	0.098038
H	0.1287467910644103 0.1711104207192697 0.7354229096068291	0.097156
H	0.9890019872618145 0.1549415475924562 0.7344842951697899	0.112033
H	0.9805216104797772 0.3120884894578084 0.5162287673905464	0.111978
H	0.1211897962078850 0.3163733402437510 0.5208723041552537	0.095982
H	0.8730585658998418 0.3460526786982258 0.6201373133364871	0.107365
H	0.7519454437696838 0.0935492059496085 0.6251605922527534	0.107980
H	0.8907262124789131 0.1049985987257501 0.6290567144357810	0.098037
F	0.3056911188186466 0.1646951936594443 0.3786654722173332	-0.549350
F	0.1943089081813521 0.3353048063405557 0.3786654722173332	-0.549349
F	0.3353048063405557 0.3056911188186466 0.3786654722173332	-0.549349
F	0.1646951936594443 0.1943089081813521 0.3786654722173332	-0.549349
F	0.6943088811813536 0.6646951396594470 0.1213345277826668	-0.549350
F	0.8056911188186464 0.8353048603405530 0.1213345277826668	-0.549349
F	0.6646951396594470 0.8056911188186464 0.1213345277826668	-0.549348
F	0.8353048603405530 0.6943088811813536 0.1213345277826668	-0.549350
F	0.6943088811813536 0.8353048603405530 0.6213344957826641	-0.549354
F	0.8056911188186464 0.6646951396594470 0.6213344957826641	-0.549355
F	0.6646951396594470 0.6943088811813536 0.6213344957826641	-0.549355
F	0.8353048603405530 0.8056911188186464 0.6213344957826641	-0.549355
F	0.3056911188186466 0.3353048063405557 0.8786655042173359	-0.549354
F	0.1943089081813521 0.1646951936594443 0.8786655042173359	-0.549355
F	0.3353048063405557 0.1943089081813521 0.8786655042173359	-0.549356
F	0.1646951936594443 0.3056911188186466 0.8786655042173359	-0.549354
F	0.2500000000000000 0.2500000000000000 0.2548977962830321	-0.514565
F	0.2500000000000000 0.2500000000000000 0.5024387319411684	-0.515307
F	0.7500000000000000 0.7500000000000000 0.2451022197169692	-0.514571
F	0.7500000000000000 0.7500000000000000 -0.0024387249411643	-0.515312
F	0.7500000000000000 0.7500000000000000 0.7451021717169652	-0.514591
F	0.7500000000000000 0.7500000000000000 0.4975613000588341	-0.515310
F	0.2500000000000000 0.2500000000000000 0.7548978282830348	-0.514586
F	0.2500000000000000 0.2500000000000000 0.0024386999411659	-0.515304
Cu	0.2500000000000000 0.2500000000000000 0.1285892912633147	0.853600
Cu	0.7500000000000000 0.7500000000000000 0.3714107247366867	0.853652
Cu	0.7500000000000000 0.7500000000000000 0.8714106937366874	0.853657
Cu	0.2500000000000000 0.2500000000000000 0.6285893062633126	0.853605
Ge	0.2500000000000000 0.2500000000000000 0.3786168034760316	1.811362
Ge	0.7500000000000000 0.7500000000000000 0.1213832045239691	1.811365
Ge	0.7500000000000000 0.7500000000000000 0.6213831655239694	1.811403
Ge	0.2500000000000000 0.2500000000000000 0.8786168344760306	1.811401
	  	
