#======================================================================

# CRYSTAL DATA

#----------------------------------------------------------------------

data_VESTA_phase_1


_pd_phase_name                         GeFSIX_18_Ni
_cell_length_a                         13.97542
_cell_length_b                         13.76216
_cell_length_c                         8.09935
_cell_angle_alpha                      90
_cell_angle_beta                       95.09500
_cell_angle_gamma                      90
_symmetry_space_group_name_H-M         P 1
_symmetry_Int_Tables_number            1

loop_
_symmetry_equiv_pos_as_xyz
   x, y, z

loop_
   _atom_site_label
   _atom_site_fract_x
   _atom_site_fract_y
   _atom_site_fract_z
   _atom_site_charge
F	0.4104751209809471 0.3766219095446421 0.5029275527708156	-0.533950
F	0.5180601265275234 0.4797760362171127 0.7332352777481579	-0.520575
F	0.4060208710129917 0.5625782332720954 0.5089438199619652	-0.499875
F	0.9104751549809426 0.8766218405446402 0.5029275527708156	-0.533949
F	0.0180601525275183 0.9797760012171134 0.7332352777481579	-0.520574
F	0.9060209050129943 0.0625781992720999 0.5089438199619652	-0.499874
F	0.5895248420190536 0.3766219095446422 0.4970724472291843	-0.533950
F	0.4819398704724799 0.4797760362171127 0.2667647222518422	-0.520575
F	0.5939791249870082 0.5625782332720953 0.4910561810380380	-0.499875
F	0.0895248630190517 0.8766218405446402 0.4970724472291843	-0.533950
F	0.9819397354724794 0.9797760012171134 0.2667647222518422	-0.520575
F	0.0939790999870094 0.0625781992720999 0.4910561810380380	-0.499874
C	0.6837455987814843 0.1507386478943240 0.6578935161712811	-0.424574
C	0.7564117285730159 0.1478303846930165 0.8036208165028463	0.210143
C	0.7611282240310705 0.1964823241791055 0.9559612595061544	-0.152745
C	0.6891457984203627 0.2615802320897694 0.0152043600271196	-0.144320
C	0.6738139859383037 0.3606785348273128 0.9727881444193669	0.222528
C	0.7313453684140311 0.4225434814771131 0.8674767371132319	-0.428869
C	0.8945240057230892 0.2085952079968461 0.2010638306582303	-0.436582
C	0.8508804265013103 0.1703864951602566 0.0395765700245831	0.222035
C	0.6212532695340937 0.2393473257483944 0.1270265079607293	0.211549
C	0.5988877660576063 0.1474019837667936 0.2125287726495146	-0.425964
C	0.1837456487814813 0.6507386998943214 0.6578935161712811	-0.424571
C	0.2564117625730191 0.6478303676930118 0.8036208165028463	0.210122
C	0.2611281900310675 0.6964822901791023 0.9559612595061544	-0.152746
C	0.1891457984203627 0.7615802490897672 0.0152043600271196	-0.144319
C	0.1738139689382983 0.8606785688273153 0.9727881444193669	0.222527
C	0.2313453844140255 0.9225434464771141 0.8674767371132319	-0.428869
C	0.3945239047230841 0.7085951219968457 0.2010638306582303	-0.436582
C	0.3508804945013088 0.6703864951602565 0.0395765700245831	0.222029
C	0.1212532445340953 0.7393472397483947 0.1270265079607293	0.211551
C	0.0988878500576056 0.6474020527667960 0.2125287726495146	-0.425996
C	0.3162543982185190 0.1507386478943240 0.3421064848287225	-0.424574
C	0.2435882644269799 0.1478303846930165 0.1963791034971547	0.210143
C	0.2388718049689285 0.1964823241791055 0.0440387164938505	-0.152745
C	0.3108541975796368 0.2615802320897694 0.9847956309728834	-0.144323
C	0.3261860800617024 0.3606785348273128 0.0272119065806332	0.222529
C	0.2686546465859735 0.4225434814771131 0.1325232788867691	-0.428869
C	0.1054760772769144 0.2085952079968461 0.7989362173417738	-0.436584
C	0.1491195524986917 0.1703864951602566 0.9604234179754162	0.222036
C	0.3787467614659049 0.2393473257483944 0.8729735160392657	0.211555
C	0.4011121599423951 0.1474019837667936 0.7874711483504895	-0.425964
C	0.8162543982185190 0.6507386998943214 0.3421064848287225	-0.424571
C	0.7435882644269800 0.6478303676930118 0.1963791034971547	0.210122
C	0.7388717709689326 0.6964822901791023 0.0440387164938505	-0.152745
C	0.8108541975796369 0.7615802490897672 0.9847956309728834	-0.144322
C	0.8261860130616998 0.8606785688273153 0.0272119065806332	0.222529
C	0.7686546295859688 0.9225434464771141 0.1325232788867691	-0.428869
C	0.6054759932769143 0.7085951219968457 0.7989362173417738	-0.436584
C	0.6491195694986893 0.6703864951602565 0.9604234179754162	0.222029
C	0.8787467274659025 0.7393472397483947 0.8729735160392657	0.211558
C	0.9011122269423967 0.6474020527667960 0.7874711483504895	-0.425996
H	0.7172997171417939 0.1722178792498568 0.5458254291711430	0.152495
H	0.6278446908746116 0.2042019607814555 0.6779518630300356	0.140420
H	0.6499425577604296 0.0793047936161962 0.6335538153232030	0.134060
H	0.6853892798296426 0.4648720401937238 0.7775815380105077	0.144982
H	0.7789200760774628 0.3765928506801332 0.8001218893983514	0.139010
H	0.7759268643192438 0.4735109258925029 0.9458705745103583	0.127958
H	0.8641415575369991 0.0624013583198326 0.7036918527114576	0.276516
H	0.9028616554076300 0.1525321497632900 0.2974325543250013	0.151548
H	0.8485350290319228 0.2664459501186120 0.2438062445425779	0.133293
H	0.9662231659951744 0.2388708594005937 0.1871278846631705	0.139993
H	0.5734737034324654 0.1625577089990751 0.3342149980501979	0.144667
H	0.6625445673027655 0.1007083177630718 0.2295855943142155	0.150967
H	0.5420065955355033 0.1062445415716694 0.1401758498195890	0.131978
H	0.5214725655296472 0.3364236630976487 0.2254934088497373	0.273905
H	0.2172997681417946 0.6722177762498589 0.5458254291711430	0.152495
H	0.1278447748746111 0.7042018917814530 0.6779518630300356	0.140420
H	0.1499426077604265 0.5793047336161913 0.6335538153232030	0.134060
H	0.1853892968296408 0.9648719721937177 0.7775815380105077	0.144982
H	0.2789201100774659 0.8765928846801359 0.8001218893983514	0.139010
H	0.2759268973192425 0.9735109258925032 0.9458705745103583	0.127957
H	0.3641415235370032 0.5624014013198327 0.7036918527114576	0.276528
H	0.4028617224076317 0.6525321157632871 0.2974325543250013	0.151548
H	0.3485349610319247 0.7664459851186117 0.2438062445425779	0.133293
H	0.4662232329951698 0.7388709104005872 0.1871278846631705	0.139994
H	0.0734736954324648 0.6625577259990733 0.3342149980501979	0.144673
H	0.1625445333027628 0.6007082747630714 0.2295855943142155	0.150974
H	0.0420066315355064 0.6062444895716721 0.1401758498195890	0.131994
H	0.0214725505296496 0.8364236630976486 0.2254934088497373	0.273906
H	0.2827002138582110 0.1722178792498568 0.4541746028288522	0.152495
H	0.3721552081253840 0.2042019607814555 0.3220482019699658	0.140415
H	0.3500573712395754 0.0793047936161962 0.3664461846767970	0.134064
H	0.3146107151703602 0.4648720401937238 0.2224184299894968	0.144979
H	0.2210799189225331 0.3765928506801332 0.1998780786016461	0.139013
H	0.2240731316807634 0.4735109258925029 0.0541293984896432	0.127957
H	0.1358584434629974 0.0624013583198326 0.2963080522885378	0.276516
H	0.0971382675923673 0.1525321497632900 0.7025674776750012	0.151548
H	0.1514650349680752 0.2664459501186120 0.7561937554574220	0.133296
H	0.0337767630048300 0.2388708594005937 0.8128721473368248	0.139998
H	0.4265263265675372 0.1625577089990751 0.6657850019498021	0.144662
H	0.3374554946972397 0.1007083177630718 0.7704143576857808	0.150966
H	0.4579933694644973 0.1062445415716694 0.8598241901804143	0.131974
H	0.4785273954703532 0.3364236630976487 0.7745065441502623	0.273903
H	0.7827002808582060 0.6722177762498589 0.4541746028288522	0.152495
H	0.8721553091253884 0.7042018917814530 0.3220482019699658	0.140414
H	0.8500573712395751 0.5793047336161913 0.3664461846767970	0.134065
H	0.8146107151703605 0.9648719721937177 0.2224184299894968	0.144980
H	0.7210799189225332 0.8765928846801359 0.1998780786016461	0.139013
H	0.7240731316807629 0.9735109258925032 0.0541293984896432	0.127956
H	0.6358584344630003 0.5624014013198327 0.2963080522885378	0.276528
H	0.5971383765923656 0.6525321157632871 0.7025674776750012	0.151548
H	0.6514649679680734 0.7664459851186117 0.7561937554574218	0.133296
H	0.5337767990048262 0.7388709104005872 0.8128721473368248	0.139999
H	0.9265262595675351 0.6625577259990733 0.6657850019498021	0.144667
H	0.8374554276972377 0.6007082747630714 0.7704143576857808	0.150973
H	0.9579933694644973 0.6062444895716721 0.8598241901804143	0.131989
H	0.9785273614703575 0.8364236630976486 0.7745065441502623	0.273903
N	0.8375074677752206 0.0947875292997390 0.8045827751012439	-0.146628
N	0.6003561137484393 0.3958108070488353 0.0518700829029401	-0.261493
N	0.8960574581653183 0.1074168593663087 0.9456174782584248	-0.259732
N	0.5708676111730573 0.3215078887033646 0.1442290193384332	-0.143952
N	0.3375074677752207 0.5947874522997435 0.8045827751012439	-0.146615
N	0.1003561807484416 0.8958108070488355 0.0518700829029401	-0.261495
N	0.3960574921653212 0.6074169103663090 0.9456174782584248	-0.259726
N	0.0708676031730566 0.8215078537033651 0.1442290193384332	-0.143952
N	0.1624925142247776 0.0947875292997390 0.1954172728987530	-0.146627
N	0.3996437802515589 0.3958108070488353 0.9481298930970581	-0.261493
N	0.1039425118346790 0.1074168593663087 0.0543825017415733	-0.259732
N	0.4291323858269460 0.3215078887033646 0.8557709966615682	-0.143956
N	0.6624925312247758 0.5947874522997435 0.1954172728987530	-0.146615
N	0.8996438812515638 0.8958108070488355 0.9481298930970581	-0.261495
N	0.6039425368346848 0.6074169103663090 0.0543825017415732	-0.259726
N	0.9291324198269417 0.8215078537033651 0.8557709966615682	-0.143956
Ge	0.4999999979999998 0.4712003570367966 0.5000000000000000	1.736496
Ge	0.0000000000000000 0.9712003570367967 0.5000000000000000	1.736495
Ni	0.5000000000000000 0.5055820544978268 0.0000000000000000	0.805927
Ni	0.0000000000000000 0.0055820614978307 0.0000000000000000	0.805935
	  	
