#======================================================================

# CRYSTAL DATA

#----------------------------------------------------------------------

data_VESTA_phase_1


_pd_phase_name                         GeFSIX_13_Ni_i
_cell_length_a                         15.17917
_cell_length_b                         15.17472
_cell_length_c                         7.88344
_cell_angle_alpha                      89.92344
_cell_angle_beta                       90.01545
_cell_angle_gamma                      89.86079
_symmetry_space_group_name_H-M         P 1
_symmetry_Int_Tables_number            1

loop_
_symmetry_equiv_pos_as_xyz
   x, y, z

loop_
   _atom_site_label
   _atom_site_fract_x
   _atom_site_fract_y
   _atom_site_fract_z
   _atom_site_charge
C	0.5402592089191198 0.6804389896304610 0.8701042010241703	0.103149
C	0.5433207596638517 0.7721737095867542 0.8682825861915204	-0.145903
C	0.4633767324210137 0.3222926100327935 0.8765771352721261	0.100944
C	0.4601918930486415 0.2306610920076017 0.8767657886651989	-0.139718
C	0.8193819076435318 0.9736133110514255 0.3643593516824610	0.110576
C	0.7281087628755012 0.9705713589967365 0.3606302552328139	-0.136927
C	0.3217909768310890 0.5410585694605229 0.8677695309219325	0.100498
C	0.2301054058598984 0.5453277527457631 0.8658790096368786	-0.145652
C	0.1827298927995131 0.9711360690529676 0.3555668558992313	0.105270
C	0.2741060379611088 0.9698427553544232 0.3524755425836703	-0.137225
C	0.6797896639193424 0.4631477618383997 0.8822112061266336	0.102631
C	0.7713625322441657 0.4601469884561186 0.8817483203792649	-0.139523
C	0.4552928773025159 0.6805465622959712 0.1158297527036941	0.103189
C	0.4516842210176527 0.7721508157252205 0.1172369213643431	-0.136384
C	0.5394157602270266 0.3238967658880590 0.1334370046009473	0.100493
C	0.5422731453884043 0.2321582098992669 0.1380000300950937	-0.147707
C	0.1807632655885923 0.0198879521560820 0.6351737418785949	0.110933
C	0.2719634472311980 0.0222228182250078 0.6420277286939173	-0.138133
C	0.6779962717608973 0.5433031222142521 0.1338224807783825	0.102537
C	0.7697487355294418 0.5466716222580329 0.1373271849377041	-0.146136
C	0.8192940037076017 0.0296207364517668 0.6388918513954444	0.101758
C	0.7279641101332325 0.0305726836026661 0.6448005384424144	-0.134780
C	0.3207919936400444 0.4583208390111641 0.1168054346712923	0.102184
C	0.2291918554790694 0.4558726036811528 0.1182736140180242	-0.137508
C	0.9655579814148392 0.8174115478196672 0.6352702794872953	0.110605
C	0.9644600300309879 0.7259803478594120 0.6418735876146050	-0.135447
C	0.9837189474358062 0.1794094309868244 0.6402657198526651	0.104235
C	0.9798451050962665 0.2706313751154086 0.6437644509281529	-0.137177
C	0.0209289959704886 0.8163927090277331 0.3602150308261573	0.102851
C	0.0240061088458239 0.7251576297287891 0.3573112717825739	-0.135621
C	0.0313428688287048 0.1790120799375659 0.3597220255855401	0.111360
C	0.0311933164155939 0.2704282403588322 0.3532571925355538	-0.136888
C	0.0038839710758778 0.3168886214851553 0.4973466459885364	0.043416
C	0.0009273213631711 0.4130644231292041 0.4973005454276733	0.254580
C	0.4977830610198676 0.8192887064175510 0.9930803595685135	0.056565
C	0.4987889773446014 0.9167917755084474 0.9979071046764666	0.248342
C	0.9952095948618608 0.6790784861747361 0.5008399576704408	0.037756
C	0.9971592091385386 0.5827636389694543 0.5006876185369608	0.247400
C	0.5010444519995905 0.1843433234295598 0.0089506737557178	0.058272
C	0.5003434549747956 0.0867326221325743 0.0097248197490732	0.251780
C	0.6815813135523232 0.9999048013716333 0.5031946305637209	0.039691
C	0.5853325978864115 0.9977343340929297 0.5042480625201884	0.247334
C	0.1825934665929172 0.5012035269928318 0.9919531176249179	0.056475
C	0.0850773277748252 0.5021862581452571 0.9943626625880567	0.248797
C	0.3194803355621259 0.9960928063280489 0.4984531111520851	0.042610
C	0.4156643245145923 0.9960683250090870 0.5016175111106240	0.255015
C	0.8176221638297715 0.5036710098564400 0.0103095714680753	0.057331
C	0.9151733916333350 0.5035132366251899 0.0075878101933780	0.248407
H	0.5709505081059253 0.6419735963755168 0.7691982673458445	0.111417
H	0.5800066457246482 0.8056000163061369 0.7685766525019840	0.126583
H	0.4361717274384315 0.3602729652975804 0.7709921809877278	0.112932
H	0.4285396244120527 0.1957833820308896 0.7728059184262069	0.121342
H	0.8580775287287130 0.9526049461203903 0.2554364661138795	0.101212
H	0.6942940756010088 0.9463893812997758 0.2482051083418812	0.120237
H	0.3605399535422242 0.5705053974558112 0.7657735616924946	0.112474
H	0.1970709285976960 0.5816056853167518 0.7648667236317600	0.127680
H	0.1452817799709780 0.9536045885063617 0.2428317963371012	0.095850
H	0.3084651582885949 0.9501992709394440 0.2372740163552299	0.116038
H	0.6417556517324363 0.4343546270438105 0.7789137147724183	0.112562
H	0.8062632098850387 0.4268511531582088 0.7796003982694438	0.120871
H	0.4247006574220911 0.6419289316961847 0.2165345045622094	0.112951
H	0.4165745290412670 0.8064251817930141 0.2178301402704748	0.119441
H	0.5668653296739229 0.3629674452081374 0.2369808072649260	0.112712
H	0.5750628828639524 0.1993122151075456 0.2435389142297377	0.127429
H	0.1414364963172043 0.0382548718972318 0.7449693177661758	0.100595
H	0.3047690539668282 0.0427493229991428 0.7581713774306392	0.120163
H	0.6389397593471866 0.5721914007322471 0.2359862061408793	0.112698
H	0.8024543842601862 0.5813641538338041 0.2404244453404887	0.126671
H	0.8575571563897684 0.0500121950933642 0.7487804081805857	0.096171
H	0.6944025065939915 0.0532932179219954 0.7587016618040558	0.120732
H	0.3590625298844653 0.4284057897286667 0.2190295163105715	0.112071
H	0.1945337909231578 0.4218827724744553 0.2198637253267912	0.119717
H	0.9443696361557814 0.8564032850966651 0.7437208033832148	0.102944
H	0.9414611450172387 0.6926823910229140 0.7559806626885925	0.119664
H	0.9677294129356447 0.1412715568570508 0.7529552066207055	0.094140
H	0.9594633736364235 0.3044207855649196 0.7589867953551044	0.120048
H	0.0403772255765783 0.8542605780396831 0.2491646831865540	0.094695
H	0.0476123483493904 0.6911607051664346 0.2446306996521803	0.119033
H	0.0502278177691926 0.1401794504802491 0.2495211394243651	0.102257
H	0.0502534309305420 0.3040663127709420 0.2368262077475927	0.118541
N	0.9443069935666728 0.5395887933954805 0.6108761193602767	-0.136543
N	0.4211425915825989 0.0462240149462336 0.0088137864204236	-0.148495
N	0.5427371316568149 0.0499906894141884 0.6164594297099785	-0.137198
N	0.9561081472009354 0.4243226499168299 0.0026357181955568	-0.146487
N	0.0513461529585745 0.5428326244991337 0.3880362922459575	-0.134002
N	0.5787319277785715 0.0443857303632919 0.0114180192460061	-0.147632
N	0.9569737400981234 0.5820341121736617 0.0050270581432885	-0.146140
N	0.5449330754729712 0.9425056594230692 0.3945619947242999	-0.134618
N	0.0536569291265374 0.4562694511449780 0.3871708864660188	-0.132777
N	0.5779834237401822 0.9573220333512243 0.0009832121078351	-0.145341
N	0.4583084505522367 0.9415577224480868 0.3936816712581128	-0.130955
N	0.0440302254444114 0.5813216450772875 0.9942917429942438	-0.144791
N	0.9458295696214577 0.4529157128134345 0.6080857185873018	-0.133282
N	0.4204455487175459 0.9590322775215601 0.0061404995983519	-0.143684
N	0.0432797983411294 0.4236291782604017 0.9988562381329589	-0.145831
N	0.4561241038134052 0.0492859351679412 0.6146473956423441	-0.135715
N	0.0074694359718455 0.1344808227734413 0.5003828485337255	-0.226156
N	0.4982353623551538 0.6355036576640687 0.9936190881597975	-0.168333
N	0.9935934387685232 0.8617180927695314 0.4972005191276253	-0.224926
N	0.5013252285341667 0.3679587509043837 0.0038555966827780	-0.169635
N	0.8641061292051632 0.0022893198019642 0.5012028343247060	-0.225408
N	0.3662236711618758 0.4993720526928981 0.9926517105627282	-0.169691
N	0.1369733550636681 0.9948152197255693 0.4946651360408673	-0.227054
N	0.6339159032837756 0.5031671229282652 0.0069591397931412	-0.169737
Ni	0.0005171221459223 0.9982329221800634 0.4979107985086124	0.743296
Ni	0.5000562551667014 0.5014724227228916 0.9992255375298559	0.517154
Ge	0.9998526483407223 0.9971647986387546 0.9982574503760998	1.759598
Ge	0.4993719238943739 0.5034631995755249 0.4989109041365010	1.766079
F	0.9981793147616063 0.0009528991979818 0.2370506934838104	-0.517500
F	0.5066273695979080 0.4997134860513815 0.7302569483335847	-0.519443
F	0.0019394662190731 0.9939770024335074 0.7592889530343584	-0.518925
F	0.4924099741621354 0.5064273384207044 0.2675776025885014	-0.519509
F	0.0848186448655701 0.0811076346251081 0.9957715794832429	-0.527001
F	0.5825936689103239 0.5911258860083097 0.4945092184730755	-0.562115
F	0.9149670014423954 0.9133785081490973 0.0007206795784804	-0.526479
F	0.4163535991343472 0.4158473528105725 0.5035529173917127	-0.564910
F	0.9161353579565513 0.0825983955153595 0.9894241733269088	-0.524447
F	0.4121382337338259 0.5870904433029038 0.5118613639797366	-0.561965
F	0.0840213312350018 0.9122158282973710 0.0073054716231678	-0.524271
F	0.5873458219790618 0.4203461314332649 0.4858410132295113	-0.563259
	  	
