#======================================================================

# CRYSTAL DATA

#----------------------------------------------------------------------

data_VESTA_phase_1


_pd_phase_name                         GeFSIX_15_Co_i
_cell_length_a                         29.44059
_cell_length_b                         28.49419
_cell_length_c                         8.16509
_cell_angle_alpha                      90
_cell_angle_beta                       90
_cell_angle_gamma                      90
_symmetry_space_group_name_H-M         P 1
_symmetry_Int_Tables_number            1

loop_
_symmetry_equiv_pos_as_xyz
   x, y, z

loop_
   _atom_site_label
   _atom_site_fract_x
   _atom_site_fract_y
   _atom_site_fract_z
   _atom_site_charge
C	0.9364325992233966 0.1056588746278291 0.8924583797573178	0.094282
C	0.9038742731210178 0.0705672890304046 0.8974546653714710	-0.161002
C	0.7702973656692443 0.9363866888452151 0.8992958786293911	-0.116191
C	0.7355127178240928 0.9036728148454938 0.8990828399656711	-0.114747
C	0.5650359528858996 0.7384686405992658 0.8922983564745108	0.091435
C	0.5991107953431869 0.7719649308724056 0.8971027357192325	-0.164167
C	0.4364326312233918 0.6056588906278304 0.8924583797573178	0.094282
C	0.4038743051210207 0.5705672520304054 0.8974546653714710	-0.161001
C	0.2702973016692463 0.4363867218452145 0.8992958786293911	-0.116191
C	0.2355126858240902 0.4036728808454992 0.8990828399656711	-0.114747
C	0.0650359768859016 0.2384686235992678 0.8922983564745108	0.091412
C	0.0991107713431850 0.2719649638724048 0.8971027357192325	-0.164086
C	0.0635673687766081 0.8943411093721696 0.3924584107573170	0.094283
C	0.0961257028789802 0.9294327479695946 0.3974546973714665	-0.161002
C	0.2297026503307571 0.0636132741547851 0.3992959406293892	-0.116190
C	0.2644872981759087 0.0963271351545023 0.3990828399656705	-0.114747
C	0.4349640151140975 0.2615314094007314 0.3922983874745102	0.091412
C	0.4008892046568130 0.2280350361275951 0.3971027357192327	-0.164085
C	0.5635674007766034 0.3943411423721688 0.3924584107573170	0.094283
C	0.5961257268789822 0.4294327479695950 0.3974546973714665	-0.161002
C	0.7297026343307557 0.5636133111547849 0.3992959406293892	-0.116190
C	0.7644872821759072 0.5963271851545062 0.3990828399656705	-0.114747
C	0.9349640471141004 0.7615313594007342 0.3922983874745102	0.091435
C	0.9008892046568131 0.7280350691275944 0.3971027357192327	-0.164166
C	0.0635673687766081 0.1056588746278291 0.6075415892426832	0.094282
C	0.0961257028789802 0.0705672890304046 0.6025452406285283	-0.161001
C	0.2297026503307571 0.9363866888452151 0.6007040903706099	-0.116190
C	0.2644872981759087 0.9036728148454938 0.6009171910343279	-0.114747
C	0.4349640151140975 0.7384686405992658 0.6077015495254885	0.091436
C	0.4008892046568130 0.7719649308724056 0.6028972332807685	-0.164167
C	0.5635674007766034 0.6056588906278304 0.6075415892426832	0.094282
C	0.5961257268789822 0.5705672520304054 0.6025452406285283	-0.161002
C	0.7297026343307557 0.4363867218452145 0.6007040903706099	-0.116191
C	0.7644872821759072 0.4036728808454992 0.6009171910343279	-0.114747
C	0.9349640471141004 0.2384686235992678 0.6077015495254885	0.091413
C	0.9008892046568131 0.2719649638724048 0.6028972332807685	-0.164086
C	0.9364325992233966 0.8943411093721696 0.1075416052426844	0.094283
C	0.9038742731210178 0.9294327479695946 0.1025452796285280	-0.161002
C	0.7702973656692443 0.0636132741547851 0.1007040903706098	-0.116190
C	0.7355127178240928 0.0963271351545023 0.1009171760343237	-0.114747
C	0.5650359528858996 0.2615314094007314 0.1077016045254892	0.091412
C	0.5991107953431869 0.2280350361275951 0.1028972792807649	-0.164085
C	0.4364326312233918 0.3943411423721688 0.1075416052426844	0.094283
C	0.4038743051210207 0.4294327479695950 0.1025452796285280	-0.161002
C	0.2702973016692463 0.5636133111547849 0.1007040903706098	-0.116190
C	0.2355126858240902 0.5963271851545062 0.1009171760343237	-0.114748
C	0.0650359768859016 0.7615313594007342 0.1077016045254892	0.091435
C	0.0991107713431850 0.7280350691275944 0.1028972792807649	-0.164166
C	0.0635673687766081 0.8943411093721696 0.1075416052426844	0.094282
C	0.0961257028789802 0.9294327479695946 0.1025452796285280	-0.161002
C	0.2297026503307571 0.0636132741547851 0.1007040903706098	-0.116190
C	0.2644872981759087 0.0963271351545023 0.1009171760343237	-0.114748
C	0.4349640151140975 0.2615314094007314 0.1077016045254892	0.091412
C	0.4008892046568130 0.2280350361275951 0.1028972792807649	-0.164085
C	0.5635674007766034 0.3943411423721688 0.1075416052426844	0.094283
C	0.5961257268789822 0.4294327479695950 0.1025452796285280	-0.161002
C	0.7297026343307557 0.5636133111547849 0.1007040903706098	-0.116190
C	0.7644872821759072 0.5963271851545062 0.1009171760343237	-0.114748
C	0.9349640471141004 0.7615313594007342 0.1077016045254892	0.091435
C	0.9008892046568131 0.7280350691275944 0.1028972792807649	-0.164166
C	0.9364325992233966 0.1056588746278291 0.6075415892426832	0.094282
C	0.9038742731210178 0.0705672890304046 0.6025452406285283	-0.161002
C	0.7702973656692443 0.9363866888452151 0.6007040903706099	-0.116190
C	0.7355127178240928 0.9036728148454938 0.6009171910343279	-0.114747
C	0.5650359528858996 0.7384686405992658 0.6077015495254885	0.091435
C	0.5991107953431869 0.7719649308724056 0.6028972332807685	-0.164167
C	0.4364326312233918 0.6056588906278304 0.6075415892426832	0.094282
C	0.4038743051210207 0.5705672520304054 0.6025452406285283	-0.161001
C	0.2702973016692463 0.4363867218452145 0.6007040903706099	-0.116191
C	0.2355126858240902 0.4036728808454992 0.6009171910343279	-0.114747
C	0.0650359768859016 0.2384686235992678 0.6077015495254885	0.091412
C	0.0991107713431850 0.2719649638724048 0.6028972332807685	-0.164086
C	0.9364325992233966 0.8943411093721696 0.3924584107573170	0.094283
C	0.9038742731210178 0.9294327479695946 0.3974546973714665	-0.161002
C	0.7702973656692443 0.0636132741547851 0.3992959406293892	-0.116190
C	0.7355127178240928 0.0963271351545023 0.3990828399656705	-0.114748
C	0.5650359528858996 0.2615314094007314 0.3922983874745102	0.091412
C	0.5991107953431869 0.2280350361275951 0.3971027357192327	-0.164085
C	0.4364326312233918 0.3943411423721688 0.3924584107573170	0.094282
C	0.4038743051210207 0.4294327479695950 0.3974546973714665	-0.161002
C	0.2702973016692463 0.5636133111547849 0.3992959406293892	-0.116190
C	0.2355126858240902 0.5963271851545062 0.3990828399656705	-0.114748
C	0.0650359768859016 0.7615313594007342 0.3922983874745102	0.091435
C	0.0991107713431850 0.7280350691275944 0.3971027357192327	-0.164166
C	0.0635673687766081 0.1056588746278291 0.8924583797573178	0.094282
C	0.0961257028789802 0.0705672890304046 0.8974546653714710	-0.161002
C	0.2297026503307571 0.9363866888452151 0.8992958786293911	-0.116190
C	0.2644872981759087 0.9036728148454938 0.8990828399656711	-0.114747
C	0.4349640151140975 0.7384686405992658 0.8922983564745108	0.091435
C	0.4008892046568130 0.7719649308724056 0.8971027357192325	-0.164167
C	0.5635674007766034 0.6056588906278304 0.8924583797573178	0.094282
C	0.5961257268789822 0.5705672520304054 0.8974546653714710	-0.161002
C	0.7297026343307557 0.4363867218452145 0.8992958786293911	-0.116191
C	0.7644872821759072 0.4036728808454992 0.8990828399656711	-0.114747
C	0.9349640471141004 0.2384686235992678 0.8922983564745108	0.091412
C	0.9008892046568131 0.2719649638724048 0.8971027357192325	-0.164086
C	0.6520553441182295 0.8237412787977407 0.7500000160000013	-0.104761
C	0.8866806732779078 0.0521946444788223 0.7500000160000013	0.161368
C	0.8232195479050353 0.9870895095340328 0.7500000160000013	-0.097892
C	0.6171860638510791 0.7896996871930327 0.7500000160000013	0.166887
C	0.7881935718300818 0.9532863846015800 0.7500000160000013	0.127838
C	0.7175132977273093 0.8866878873609310 0.7500000160000013	0.136940
C	0.6822906101685923 0.8530672085372070 0.7500000160000013	-0.098218
C	0.8529815868305840 0.0169340733386812 0.7500000160000013	-0.105898
C	0.1520553281182289 0.3237412787977407 0.7500000160000013	-0.104759
C	0.3866805772779071 0.5521946564788234 0.7500000160000013	0.161368
C	0.3232195479050351 0.4870895095340327 0.7500000160000013	-0.097892
C	0.1171860558510783 0.2896996871930327 0.7500000160000013	0.166839
C	0.2881935398300865 0.4532863846015802 0.7500000160000013	0.127838
C	0.2175132817273077 0.3866879203609304 0.7500000160000013	0.136940
C	0.1822905771685932 0.3530671755372080 0.7500000160000013	-0.098217
C	0.3529815548305812 0.5169340683386773 0.7500000160000013	-0.105898
C	0.3479446878817724 0.1762587212022592 0.2500000000000000	-0.104759
C	0.1133193987220981 0.9478053435211766 0.2500000000000000	0.161368
C	0.1767804520949652 0.0129104864659670 0.2500000000000000	-0.097892
C	0.3828139361489211 0.2103002968069659 0.2500000000000000	0.166839
C	0.2118064441699192 0.0467136073984192 0.2500000000000000	0.127838
C	0.2824867022726909 0.1133120716390688 0.2500000000000000	0.136941
C	0.3177094228314067 0.1469327914627929 0.2500000000000000	-0.098217
C	0.1470184451694187 0.9830658986613235 0.2500000000000000	-0.105899
C	0.8479446558817705 0.6762587212022593 0.2500000000000000	-0.104761
C	0.6133193267220922 0.4478053765211760 0.2500000000000000	0.161368
C	0.6767804520949647 0.5129104904659672 0.2500000000000000	-0.097892
C	0.8828139361489209 0.7103003128069673 0.2500000000000000	0.166887
C	0.7118064281699182 0.5467136483984192 0.2500000000000000	0.127838
C	0.7824867022726907 0.6133121126390690 0.2500000000000000	0.136940
C	0.8177093898314077 0.6469327914627930 0.2500000000000000	-0.098218
C	0.6470184131694160 0.4830658986613235 0.2500000000000000	-0.105899
C	0.3479446878817724 0.8237412787977407 0.7500000160000013	-0.104762
C	0.1133193987220981 0.0521946444788223 0.7500000160000013	0.161368
C	0.1767804520949652 0.9870895095340328 0.7500000160000013	-0.097892
C	0.3828139361489211 0.7896996871930327 0.7500000160000013	0.166887
C	0.2118064441699192 0.9532863846015800 0.7500000160000013	0.127838
C	0.2824867022726909 0.8866878873609310 0.7500000160000013	0.136940
C	0.3177094228314067 0.8530672085372070 0.7500000160000013	-0.098218
C	0.1470184451694187 0.0169340733386812 0.7500000160000013	-0.105898
C	0.8479446558817705 0.3237412787977407 0.7500000160000013	-0.104759
C	0.6133193267220922 0.5521946564788234 0.7500000160000013	0.161368
C	0.6767804520949647 0.4870895095340327 0.7500000160000013	-0.097892
C	0.8828139361489209 0.2896996871930327 0.7500000160000013	0.166839
C	0.7118064281699182 0.4532863846015802 0.7500000160000013	0.127838
C	0.7824867022726907 0.3866879203609304 0.7500000160000013	0.136940
C	0.8177093898314077 0.3530671755372080 0.7500000160000013	-0.098217
C	0.6470184131694160 0.5169340683386773 0.7500000160000013	-0.105898
C	0.6520553441182295 0.1762587212022592 0.2500000000000000	-0.104758
C	0.8866806732779078 0.9478053435211766 0.2500000000000000	0.161368
C	0.8232195479050353 0.0129104864659670 0.2500000000000000	-0.097892
C	0.6171860638510791 0.2103002968069659 0.2500000000000000	0.166839
C	0.7881935718300818 0.0467136073984192 0.2500000000000000	0.127838
C	0.7175132977273093 0.1133120716390688 0.2500000000000000	0.136941
C	0.6822906101685923 0.1469327914627929 0.2500000000000000	-0.098217
C	0.8529815868305840 0.9830658986613235 0.2500000000000000	-0.105899
C	0.1520553281182289 0.6762587212022593 0.2500000000000000	-0.104761
C	0.3866805772779071 0.4478053765211760 0.2500000000000000	0.161368
C	0.3232195479050351 0.5129104904659672 0.2500000000000000	-0.097892
C	0.1171860558510783 0.7103003128069673 0.2500000000000000	0.166887
C	0.2881935398300865 0.5467136483984192 0.2500000000000000	0.127838
C	0.2175132817273077 0.6133121126390690 0.2500000000000000	0.136940
C	0.1822905771685932 0.6469327914627930 0.2500000000000000	-0.098218
C	0.3529815548305812 0.4830658986613235 0.2500000000000000	-0.105899
H	0.9500351410030106 0.1203140153723564 0.0049927374340187	0.101205
H	0.8919414944128083 0.0576257284124244 0.0152695655248838	0.123974
H	0.7842549859528086 0.9493893694670493 0.0142802694106224	0.106024
H	0.7216518877904248 0.8906310282910992 0.0140192782112703	0.115188
H	0.5508664753758521 0.7244555090058848 0.0049420070253966	0.100314
H	0.6116013156960337 0.7841735150113304 0.0150340986129104	0.128570
H	0.4500352370030114 0.6203140313723576 0.0049927374340187	0.101204
H	0.3919414304128102 0.5576257574124307 0.0152695655248838	0.123974
H	0.2842549859528085 0.4493893694670495 0.0142802694106224	0.106024
H	0.2216519037904262 0.3906311272911033 0.0140192782112703	0.115188
H	0.0508664833758529 0.2244555580058854 0.0049420070253966	0.100317
H	0.1116013316960279 0.2841734490113322 0.0150340986129104	0.128529
H	0.0499647989969845 0.8796859686276424 0.5049927664340179	0.101205
H	0.1080585535871885 0.9423742425875693 0.5152696005248830	0.123974
H	0.2157450460471941 0.0506106475329556 0.5142803014106246	0.106023
H	0.2783481122095748 0.1093688977089021 0.5140192742112699	0.115188
H	0.4491335246241479 0.2755444249941165 0.5049420070253967	0.100317
H	0.3883986843039662 0.2158265019886674 0.5150341296129093	0.128529
H	0.5499648589969894 0.3796859686276424 0.5049927664340179	0.101205
H	0.6080585055871917 0.4423742755875760 0.5152696005248830	0.123974
H	0.7157450140471914 0.5506106305329507 0.5142803014106246	0.106023
H	0.7783481122095752 0.6093689717089008 0.5140192742112699	0.115188
H	0.9491335246241479 0.7755444909941152 0.5049420070253967	0.100314
H	0.8883986843039663 0.7158264849886696 0.5150341296129093	0.128570
H	0.0499647989969845 0.1203140153723564 0.4950072645659814	0.101205
H	0.1080585535871885 0.0576257284124244 0.4847303994751100	0.123974
H	0.2157450460471941 0.9493893694670493 0.4857197305893777	0.106024
H	0.2783481122095748 0.8906310282910992 0.4859807257887299	0.115189
H	0.4491335246241479 0.7244555090058848 0.4950580249746058	0.100314
H	0.3883986843039662 0.7841735150113304 0.4849659013870897	0.128570
H	0.5499648589969894 0.6203140313723576 0.4950072645659814	0.101205
H	0.6080585055871917 0.5576257574124307 0.4847303994751100	0.123974
H	0.7157450140471914 0.4493893694670495 0.4857197305893777	0.106024
H	0.7783481122095752 0.3906311272911033 0.4859807257887299	0.115189
H	0.9491335246241479 0.2244555580058854 0.4950580249746058	0.100317
H	0.8883986843039663 0.2841734490113322 0.4849659013870897	0.128529
H	0.9500351410030106 0.8796859686276424 0.9950072645659811	0.101205
H	0.8919414944128083 0.9423742425875693 0.9847303684751109	0.123974
H	0.7842549859528086 0.0506106475329556 0.9857197305893780	0.106024
H	0.7216518877904248 0.1093688977089021 0.9859806947887240	0.115189
H	0.5508664753758521 0.2755444249941165 0.9950579929746033	0.100317
H	0.6116013156960337 0.2158265019886674 0.9849659013870897	0.128529
H	0.4500352370030114 0.3796859686276424 0.9950072645659811	0.101205
H	0.3919414304128102 0.4423742755875760 0.9847303684751109	0.123974
H	0.2842549859528085 0.5506106305329507 0.9857197305893780	0.106024
H	0.2216519037904262 0.6093689717089008 0.9859806947887240	0.115189
H	0.0508664833758529 0.7755444909941152 0.9950579929746033	0.100314
H	0.1116013316960279 0.7158264849886696 0.9849659013870897	0.128570
H	0.0499647989969845 0.8796859686276424 0.9950072645659811	0.101205
H	0.1080585535871885 0.9423742425875693 0.9847303684751109	0.123974
H	0.2157450460471941 0.0506106475329556 0.9857197305893780	0.106024
H	0.2783481122095748 0.1093688977089021 0.9859806947887240	0.115190
H	0.4491335246241479 0.2755444249941165 0.9950579929746033	0.100317
H	0.3883986843039662 0.2158265019886674 0.9849659013870897	0.128529
H	0.5499648589969894 0.3796859686276424 0.9950072645659811	0.101205
H	0.6080585055871917 0.4423742755875760 0.9847303684751109	0.123974
H	0.7157450140471914 0.5506106305329507 0.9857197305893780	0.106024
H	0.7783481122095752 0.6093689717089008 0.9859806947887240	0.115190
H	0.9491335246241479 0.7755444909941152 0.9950579929746033	0.100314
H	0.8883986843039663 0.7158264849886696 0.9849659013870897	0.128570
H	0.9500351410030106 0.1203140153723564 0.4950072645659814	0.101205
H	0.8919414944128083 0.0576257284124244 0.4847303994751100	0.123974
H	0.7842549859528086 0.9493893694670493 0.4857197305893777	0.106024
H	0.7216518877904248 0.8906310282910992 0.4859807257887299	0.115190
H	0.5508664753758521 0.7244555090058848 0.4950580249746058	0.100314
H	0.6116013156960337 0.7841735150113304 0.4849659013870897	0.128570
H	0.4500352370030114 0.6203140313723576 0.4950072645659814	0.101205
H	0.3919414304128102 0.5576257574124307 0.4847303994751100	0.123974
H	0.2842549859528085 0.4493893694670495 0.4857197305893777	0.106024
H	0.2216519037904262 0.3906311272911033 0.4859807257887299	0.115190
H	0.0508664833758529 0.2244555580058854 0.4950580249746058	0.100317
H	0.1116013316960279 0.2841734490113322 0.4849659013870897	0.128529
H	0.9500351410030106 0.8796859686276424 0.5049927664340179	0.101205
H	0.8919414944128083 0.9423742425875693 0.5152696005248830	0.123974
H	0.7842549859528086 0.0506106475329556 0.5142803014106246	0.106024
H	0.7216518877904248 0.1093688977089021 0.5140192742112699	0.115190
H	0.5508664753758521 0.2755444249941165 0.5049420070253967	0.100317
H	0.6116013156960337 0.2158265019886674 0.5150341296129093	0.128529
H	0.4500352370030114 0.3796859686276424 0.5049927664340179	0.101205
H	0.3919414304128102 0.4423742755875760 0.5152696005248830	0.123974
H	0.2842549859528085 0.5506106305329507 0.5142803014106246	0.106024
H	0.2216519037904262 0.6093689717089008 0.5140192742112699	0.115190
H	0.0508664833758529 0.7755444909941152 0.5049420070253967	0.100314
H	0.1116013316960279 0.7158264849886696 0.5150341296129093	0.128570
H	0.0499647989969845 0.1203140153723564 0.0049927374340187	0.101205
H	0.1080585535871885 0.0576257284124244 0.0152695655248838	0.123974
H	0.2157450460471941 0.9493893694670493 0.0142802694106224	0.106024
H	0.2783481122095748 0.8906310282910992 0.0140192782112703	0.115190
H	0.4491335246241479 0.7244555090058848 0.0049420070253966	0.100314
H	0.3883986843039662 0.7841735150113304 0.0150340986129104	0.128570
H	0.5499648589969894 0.6203140313723576 0.0049927374340187	0.101205
H	0.6080585055871917 0.5576257574124307 0.0152695655248838	0.123974
H	0.7157450140471914 0.4493893694670495 0.0142802694106224	0.106024
H	0.7783481122095752 0.3906311272911033 0.0140192782112703	0.115190
H	0.9491335246241479 0.2244555580058854 0.0049420070253966	0.100317
H	0.8883986843039663 0.2841734490113322 0.0150340986129104	0.128529
Co	0.5000000000000000 0.6726973021627733 0.7500000160000013	0.568608
Co	-0.0000000000000000 0.1726973191627710 0.7500000160000013	0.568609
Co	0.5000000000000000 0.3273026978372265 0.2500000000000000	0.568609
Co	-0.0000000000000000 0.8273026978372267 0.2500000000000000	0.568607
Ge	0.5000000000000000 0.6728387370695055 0.2500000000000000	1.745542
Ge	-0.0000000000000000 0.1728387370695054 0.2500000000000000	1.745542
Ge	0.5000000000000000 0.3271612949304969 0.7500000160000013	1.745541
Ge	-0.0000000000000000 0.8271612629304945 0.7500000160000013	1.745542
F	0.5000000000000000 0.7367162232283726 0.2500000000000000	-0.542942
F	0.5000000000000000 0.6089837275997572 0.2500000000000000	-0.538920
F	-0.0000000000000000 0.2367161742283720 0.2500000000000000	-0.542942
F	-0.0000000000000000 0.1089837115997558 0.2500000000000000	-0.538920
F	0.5000000000000000 0.2632838257716280 0.7500000160000013	-0.542941
F	0.5000000000000000 0.3910162394002434 0.7500000160000013	-0.538921
F	-0.0000000000000000 0.7632837767716274 0.7500000160000013	-0.542941
F	-0.0000000000000000 0.8910162724002428 0.7500000160000013	-0.538920
F	0.5618718494215902 0.6727598000286704 0.2500000000000000	-0.542317
F	0.0618718694215923 0.1727598330286697 0.2500000000000000	-0.542317
F	0.4381281185784068 0.3272401339713310 0.7500000160000013	-0.542317
F	0.9381281505784098 0.8272401999713296 0.7500000160000013	-0.542317
F	0.4381281185784068 0.6727598000286704 0.2500000000000000	-0.542317
F	0.9381281505784098 0.1727598330286697 0.2500000000000000	-0.542317
F	0.5618718494215902 0.3272401339713310 0.7500000160000013	-0.542317
F	0.0618718694215923 0.8272401999713296 0.7500000160000013	-0.542317
F	0.5000000000000000 0.6729505778559596 0.4787054294245006	-0.506150
F	-0.0000000000000000 0.1729505948559575 0.4787054294245006	-0.506150
F	0.5000000000000000 0.3270494551440393 0.9787054294245010	-0.506150
F	-0.0000000000000000 0.8270494221440404 0.9787054294245010	-0.506150
F	0.5000000000000000 0.6729505778559596 0.0212945665754990	-0.506150
F	-0.0000000000000000 0.1729505948559575 0.0212945665754990	-0.506149
F	0.5000000000000000 0.3270494551440393 0.5212945385755035	-0.506149
F	-0.0000000000000000 0.8270494221440404 0.5212945385755035	-0.506150
N	0.5479586743351170 0.7216252326492854 0.7500000160000013	-0.182133
N	0.9526851569304499 0.1232163581132486 0.7500000160000013	-0.181581
N	0.0479586383351141 0.2216252166492838 0.7500000160000013	-0.182129
N	0.4526851569304491 0.6232163421132475 0.7500000160000013	-0.181581
N	0.4520413896648811 0.2783747673507150 0.2500000000000000	-0.182129
N	0.0473148510695513 0.8767836578867525 0.2500000000000000	-0.181581
N	0.9520413256648830 0.7783747673507146 0.2500000000000000	-0.182133
N	0.5473148430695501 0.3767836578867527 0.2500000000000000	-0.181581
N	0.4520413896648811 0.7216252326492854 0.7500000160000013	-0.182133
N	0.0473148510695513 0.1232163581132486 0.7500000160000013	-0.181581
N	0.9520413256648830 0.2216252166492838 0.7500000160000013	-0.182129
N	0.5473148430695501 0.6232163421132475 0.7500000160000013	-0.181581
N	0.5479586743351170 0.2783747673507150 0.2500000000000000	-0.182129
N	0.9526851569304499 0.8767836578867525 0.2500000000000000	-0.181581
N	0.0479586383351141 0.7783747673507146 0.2500000000000000	-0.182133
N	0.4526851569304491 0.3767836578867527 0.2500000000000000	-0.181581
	  	
