#======================================================================

# CRYSTAL DATA

#----------------------------------------------------------------------

data_VESTA_phase_1


_pd_phase_name                         GeFSIX_6_Zn_i
_cell_length_a                         17.78413
_cell_length_b                         17.78413
_cell_length_c                         15.44980
_cell_angle_alpha                      90
_cell_angle_beta                       90
_cell_angle_gamma                      90
_symmetry_space_group_name_H-M         P 1
_symmetry_Int_Tables_number            1

loop_
_symmetry_equiv_pos_as_xyz
   x, y, z

loop_
   _atom_site_label
   _atom_site_fract_x
   _atom_site_fract_y
   _atom_site_fract_z
   _atom_site_charge
N	0.2439457304209131 0.1297641808098837 0.1281443989020571	-0.232730
N	0.2560542695790871 0.3702358331901173 0.1281443989020571	-0.232729
N	0.3702358331901173 0.2439457304209131 0.1281443989020571	-0.232729
N	0.1297641808098837 0.2560542695790871 0.1281443989020571	-0.232729
N	0.7560542425790882 0.6297641938098884 0.3718555860979451	-0.232730
N	0.7439457574209118 0.8702358061901116 0.3718555860979451	-0.232729
N	0.6297641938098884 0.7439457574209118 0.3718555860979451	-0.232729
N	0.8702358061901116 0.7560542425790882 0.3718555860979451	-0.232729
N	0.7560542425790882 0.8702358061901116 0.8718555860979452	-0.232729
N	0.7439457574209118 0.6297641938098884 0.8718555860979452	-0.232731
N	0.6297641938098884 0.7560542425790882 0.8718555860979452	-0.232730
N	0.8702358061901116 0.7439457574209118 0.8718555860979452	-0.232730
N	0.2439457304209131 0.3702358331901173 0.6281444139020548	-0.232729
N	0.2560542695790871 0.1297641808098837 0.6281444139020548	-0.232731
N	0.3702358331901173 0.2560542695790871 0.6281444139020548	-0.232730
N	0.1297641808098837 0.2439457304209131 0.6281444139020548	-0.232730
C	0.2005236019441951 0.0937389761831443 0.1861433873944074	0.105680
C	0.1921754438347196 0.0161080822454259 0.1854698578777770	-0.182466
C	0.2324794144744216 0.9731950883493641 0.1251031952031187	0.112441
C	0.2788294609710413 0.0114918529717817 0.0664113725237833	-0.180271
C	0.2819487141029273 0.0894912270979541 0.0688194746180935	0.105607
C	0.2266017649654119 0.8906236783814065 0.1238035261755003	0.059956
C	0.2908877812633857 0.8467736112007085 0.1209147702805950	-0.173937
C	0.2863725013691689 0.7674879632288604 0.1220251616037187	0.086837
C	0.1484349320568474 0.7784945137970430 0.1246402896191957	-0.123664
C	0.1547761226623263 0.8555254656161829 0.1267735139904728	-0.135104
C	0.2994763580558085 0.4062610368168532 0.1861433873944074	0.105679
C	0.3078245161652771 0.4838918987545761 0.1854698578777770	-0.182465
C	0.2675205855255784 0.5268049116506359 0.1251031952031187	0.112442
C	0.2211705520289565 0.4885081440282145 0.0664113725237833	-0.180271
C	0.2180512998970739 0.4105087799020501 0.0688194746180935	0.105605
C	0.2733982350345881 0.6093763216185935 0.1238035261755003	0.059958
C	0.2091122597366142 0.6532263887992915 0.1209147702805950	-0.173935
C	0.2136274716308323 0.7325120367711396 0.1220251616037187	0.086837
C	0.3515650539431514 0.7215054862029570 0.1246402896191957	-0.123660
C	0.3452238773376737 0.6444745343838171 0.1267735139904728	-0.135131
C	0.4062610368168532 0.2005236019441951 0.1861433873944074	0.105680
C	0.4838918987545761 0.1921754438347196 0.1854698578777770	-0.182465
C	0.5268049116506359 0.2324794144744216 0.1251031952031187	0.112442
C	0.4885081440282145 0.2788294609710413 0.0664113725237833	-0.180269
C	0.4105087799020501 0.2819487141029273 0.0688194746180935	0.105606
C	0.6093763216185935 0.2266017649654119 0.1238035261755003	0.059956
C	0.6532263887992915 0.2908877812633857 0.1209147702805950	-0.173936
C	0.7325120367711396 0.2863725013691689 0.1220251616037187	0.086837
C	0.7215054862029570 0.1484349320568474 0.1246402896191957	-0.123664
C	0.6444745343838171 0.1547761226623263 0.1267735139904728	-0.135104
C	0.0937389761831443 0.2994763580558085 0.1861433873944074	0.105680
C	0.0161080822454259 0.3078245161652771 0.1854698578777770	-0.182464
C	0.9731950883493641 0.2675205855255784 0.1251031952031187	0.112441
C	0.0114918529717817 0.2211705520289565 0.0664113725237833	-0.180271
C	0.0894912270979541 0.2180512998970739 0.0688194746180935	0.105607
C	0.8906236783814065 0.2733982350345881 0.1238035261755003	0.059958
C	0.8467736112007085 0.2091122597366142 0.1209147702805950	-0.173937
C	0.7674879632288604 0.2136274716308323 0.1220251616037187	0.086837
C	0.7784945137970430 0.3515650539431514 0.1246402896191957	-0.123660
C	0.8555254656161829 0.3452238773376737 0.1267735139904728	-0.135133
C	0.7994764110558025 0.5937389631831466 0.3138566286055938	0.105682
C	0.8078245691652779 0.5161080472454196 0.3145301111222240	-0.182465
C	0.7675205855255782 0.4731950883493638 0.3748967727968788	0.112440
C	0.7211705120289602 0.5114919099717826 0.4335886314762171	-0.180271
C	0.7180512598970709 0.5894912740979545 0.4311805653819026	0.105606
C	0.7733983150345876 0.3906237313814075 0.3761964658244991	0.059957
C	0.7091122457366129 0.3467735582007077 0.3790852217194045	-0.173937
C	0.7136274986308312 0.2674878832288607 0.3779748383962815	0.086862
C	0.8515650809431573 0.2784944867970444 0.3753596943808029	-0.123707
C	0.8452238243376728 0.3555254396161808 0.3732265180095298	-0.135109
C	0.7005235889441975 0.9062610368168534 0.3138566286055938	0.105679
C	0.6921754308347221 0.9838918987545759 0.3145301111222240	-0.182466
C	0.7324794144744218 0.0268049176506368 0.3748967727968788	0.112442
C	0.7788294879710398 0.9885081440282147 0.4335886314762171	-0.180270
C	0.7819487401029291 0.9105088329020508 0.4311805653819026	0.105606
C	0.7266016849654124 0.1093762956185911 0.3761964658244991	0.059957
C	0.7908877542633871 0.1532264287992878 0.3790852217194045	-0.173937
C	0.7863725013691688 0.2325120897711405 0.3779748383962815	0.086860
C	0.6484349190568427 0.2215055002029581 0.3753596943808029	-0.123708
C	0.6547761756623272 0.1444745343838171 0.3732265180095298	-0.135107
C	0.5937389631831466 0.7005235889441975 0.3138566286055938	0.105681
C	0.5161080472454196 0.6921754308347221 0.3145301111222240	-0.182466
C	0.4731950883493638 0.7324794144744218 0.3748967727968788	0.112441
C	0.5114919099717826 0.7788294879710398 0.4335886314762171	-0.180270
C	0.5894912740979545 0.7819487401029291 0.4311805653819026	0.105606
C	0.3906237313814075 0.7266016849654124 0.3761964658244991	0.059957
C	0.3467735582007077 0.7908877542633871 0.3790852217194045	-0.173938
C	0.2674878832288607 0.7863725013691688 0.3779748383962815	0.086862
C	0.2784944867970444 0.6484349190568427 0.3753596943808029	-0.123706
C	0.3555254396161808 0.6547761756623272 0.3732265180095298	-0.135109
C	0.9062610368168534 0.7994764110558025 0.3138566286055938	0.105680
C	0.9838918987545759 0.8078245691652779 0.3145301111222240	-0.182463
C	0.0268049176506368 0.7675205855255782 0.3748967727968788	0.112440
C	0.9885081440282147 0.7211705120289602 0.4335886314762171	-0.180271
C	0.9105088329020508 0.7180512598970709 0.4311805653819026	0.105606
C	0.1093762956185911 0.7733983150345876 0.3761964658244991	0.059958
C	0.1532264287992878 0.7091122457366129 0.3790852217194045	-0.173937
C	0.2325120897711405 0.7136274986308312 0.3779748383962815	0.086860
C	0.2215055002029581 0.8515650809431573 0.3753596943808029	-0.123708
C	0.1444745343838171 0.8452238243376728 0.3732265180095298	-0.135108
C	0.7994764110558025 0.9062610368168534 0.8138565966055914	0.105679
C	0.8078245691652779 0.9838918987545759 0.8145301741222258	-0.182464
C	0.7675205855255782 0.0268049176506368 0.8748968367968767	0.112441
C	0.7211705120289602 0.9885081440282147 0.9335886004762178	-0.180271
C	0.7180512598970709 0.9105088329020508 0.9311805333819002	0.105605
C	0.7733983150345876 0.1093762956185911 0.8761964658244988	0.059957
C	0.7091122457366129 0.1532264287992878 0.8790852537194072	-0.173937
C	0.7136274986308312 0.2325120897711405 0.8779748703962770	0.086862
C	0.8515650809431573 0.2215055002029581 0.8753597573808044	-0.123707
C	0.8452238243376728 0.1444745343838171 0.8732265500095252	-0.135108
C	0.7005235889441975 0.5937389631831466 0.8138565966055914	0.105681
C	0.6921754308347221 0.5161080472454196 0.8145301741222258	-0.182465
C	0.7324794144744218 0.4731950883493638 0.8748968367968767	0.112440
C	0.7788294879710398 0.5114919099717826 0.9335886004762178	-0.180270
C	0.7819487401029291 0.5894912740979545 0.9311805333819002	0.105607
C	0.7266016849654124 0.3906237313814075 0.8761964658244988	0.059957
C	0.7908877542633871 0.3467735582007077 0.8790852537194072	-0.173938
C	0.7863725013691688 0.2674878832288607 0.8779748703962770	0.086860
C	0.6484349190568427 0.2784944867970444 0.8753597573808044	-0.123707
C	0.6547761756623272 0.3555254396161808 0.8732265500095252	-0.135109
C	0.5937389631831466 0.7994764110558025 0.8138565966055914	0.105680
C	0.5161080472454196 0.8078245691652779 0.8145301741222258	-0.182464
C	0.4731950883493638 0.7675205855255782 0.8748968367968767	0.112441
C	0.5114919099717826 0.7211705120289602 0.9335886004762178	-0.180270
C	0.5894912740979545 0.7180512598970709 0.9311805333819002	0.105606
C	0.3906237313814075 0.7733983150345876 0.8761964658244988	0.059957
C	0.3467735582007077 0.7091122457366129 0.8790852537194072	-0.173939
C	0.2674878832288607 0.7136274986308312 0.8779748703962770	0.086862
C	0.2784944867970444 0.8515650809431573 0.8753597573808044	-0.123707
C	0.3555254396161808 0.8452238243376728 0.8732265500095252	-0.135110
C	0.9062610368168534 0.7005235889441975 0.8138565966055914	0.105681
C	0.9838918987545759 0.6921754308347221 0.8145301741222258	-0.182464
C	0.0268049176506368 0.7324794144744218 0.8748968367968767	0.112440
C	0.9885081440282147 0.7788294879710398 0.9335886004762178	-0.180269
C	0.9105088329020508 0.7819487401029291 0.9311805333819002	0.105606
C	0.1093762956185911 0.7266016849654124 0.8761964658244988	0.059958
C	0.1532264287992878 0.7908877542633871 0.8790852537194072	-0.173937
C	0.2325120897711405 0.7863725013691688 0.8779748703962770	0.086860
C	0.2215055002029581 0.6484349190568427 0.8753597573808044	-0.123707
C	0.1444745343838171 0.6547761756623272 0.8732265500095252	-0.135109
C	0.2005236019441951 0.4062610368168532 0.6861434033944086	0.105678
C	0.1921754438347196 0.4838918987545761 0.6854698258777742	-0.182465
C	0.2324794144744216 0.5268049116506359 0.6251031632031233	0.112441
C	0.2788294609710413 0.4885081440282145 0.5664113995237822	-0.180269
C	0.2819487141029273 0.4105087799020501 0.5688194666180998	0.105605
C	0.2266017649654119 0.6093763216185935 0.6238035341755012	0.059954
C	0.2908877812633857 0.6532263887992915 0.6209147462805928	-0.173938
C	0.2863725013691689 0.7325120367711396 0.6220251296037230	0.086840
C	0.1484349320568474 0.7215054862029570 0.6246402426191956	-0.123684
C	0.1547761226623263 0.6444745343838171 0.6267734499904748	-0.135085
C	0.2994763580558085 0.0937389761831443 0.6861434033944086	0.105681
C	0.3078245161652771 0.0161080822454259 0.6854698258777742	-0.182465
C	0.2675205855255784 0.9731950883493641 0.6251031632031233	0.112439
C	0.2211705520289565 0.0114918529717817 0.5664113995237822	-0.180270
C	0.2180512998970739 0.0894912270979541 0.5688194666180998	0.105607
C	0.2733982350345881 0.8906236783814065 0.6238035341755012	0.059956
C	0.2091122597366142 0.8467736112007085 0.6209147462805928	-0.173938
C	0.2136274716308323 0.7674879632288604 0.6220251296037230	0.086840
C	0.3515650539431514 0.7784945137970430 0.6246402426191956	-0.123679
C	0.3452238773376737 0.8555254656161829 0.6267734499904748	-0.135115
C	0.4062610368168532 0.2994763580558085 0.6861434033944086	0.105679
C	0.4838918987545761 0.3078245161652771 0.6854698258777742	-0.182463
C	0.5268049116506359 0.2675205855255784 0.6251031632031233	0.112438
C	0.4885081440282145 0.2211705520289565 0.5664113995237822	-0.180269
C	0.4105087799020501 0.2180512998970739 0.5688194666180998	0.105606
C	0.6093763216185935 0.2733982350345881 0.6238035341755012	0.059957
C	0.6532263887992915 0.2091122597366142 0.6209147462805928	-0.173939
C	0.7325120367711396 0.2136274716308323 0.6220251296037230	0.086842
C	0.7215054862029570 0.3515650539431514 0.6246402426191956	-0.123678
C	0.6444745343838171 0.3452238773376737 0.6267734499904748	-0.135113
C	0.0937389761831443 0.2005236019441951 0.6861434033944086	0.105681
C	0.0161080822454259 0.1921754438347196 0.6854698258777742	-0.182465
C	0.9731950883493641 0.2324794144744216 0.6251031632031233	0.112441
C	0.0114918529717817 0.2788294609710413 0.5664113995237822	-0.180269
C	0.0894912270979541 0.2819487141029273 0.5688194666180998	0.105606
C	0.8906236783814065 0.2266017649654119 0.6238035341755012	0.059953
C	0.8467736112007085 0.2908877812633857 0.6209147462805928	-0.173938
C	0.7674879632288604 0.2863725013691689 0.6220251296037230	0.086839
C	0.7784945137970430 0.1484349320568474 0.6246402426191956	-0.123684
C	0.8555254656161829 0.1547761226623263 0.6267734499904748	-0.135087
H	0.1729334078337998 0.1285847535241901 0.2349442168464258	0.099852
H	0.1563093485312003 0.9889418230103528 0.2333429589570852	0.113800
H	0.3105056842512401 0.9806394648202524 0.0175856240474618	0.114429
H	0.3145204366348405 0.1213303476613597 0.0214051296232403	0.100605
H	0.3462289358710092 0.8733736280308885 0.1202932053079966	0.108342
H	0.0932010937588906 0.7517017711256697 0.1253469157013778	0.108589
H	0.1046255020467165 0.8908016566914857 0.1288247594118356	0.099153
H	0.3270665651662015 0.3714152734758157 0.2349442168464258	0.099851
H	0.3436906914687959 0.5110581769896472 0.2333429589570852	0.113800
H	0.1894943287487574 0.5193605351797476 0.0175856240474618	0.114430
H	0.1854795633651592 0.3786696523386404 0.0214051296232403	0.100605
H	0.1537710781289921 0.6266263719691115 0.1202932053079966	0.108339
H	0.4067988992411053 0.7482982288743303 0.1253469157013778	0.108588
H	0.3953745109532881 0.6091983433085143 0.1288247594118356	0.099176
H	0.3714152734758157 0.1729334078337998 0.2349442168464258	0.099851
H	0.5110581769896472 0.1563093485312003 0.2333429589570852	0.113801
H	0.5193605351797476 0.3105056842512401 0.0175856240474618	0.114430
H	0.3786696523386404 0.3145204366348405 0.0214051296232403	0.100605
H	0.6266263719691115 0.3462289358710092 0.1202932053079966	0.108344
H	0.7482982288743303 0.0932010937588906 0.1253469157013778	0.108589
H	0.6091983433085143 0.1046255020467165 0.1288247594118356	0.099155
H	0.1285847535241901 0.3270665651662015 0.2349442168464258	0.099852
H	0.9889418230103528 0.3436906914687959 0.2333429589570852	0.113800
H	0.9806394648202524 0.1894943287487574 0.0175856240474618	0.114430
H	0.1213303476613597 0.1854795633651592 0.0214051296232403	0.100606
H	0.8733736280308885 0.1537710781289921 0.1202932053079966	0.108340
H	0.7517017711256697 0.4067988992411053 0.1253469157013778	0.108588
H	0.8908016566914857 0.3953745109532881 0.1288247594118356	0.099178
H	0.8270665651662016 0.6285847805241886 0.2650557991535755	0.099852
H	0.8436906104687999 0.4889418770103502 0.2666570410429147	0.113800
H	0.6894943157487600 0.4806394648202523 0.4824143779525385	0.114429
H	0.6854796163651602 0.6213303746613585 0.4785948683767595	0.100605
H	0.6537710641289910 0.3733735740308914 0.3797068026920041	0.108343
H	0.9067988462411044 0.2517017981256683 0.3746530762986214	0.108608
H	0.8953744839532896 0.3908016826914807 0.3711752485881652	0.099155
H	0.6729334348337984 0.8714152194758114 0.2650557991535755	0.099852
H	0.6563093895312001 0.0110581389896440 0.2666570410429147	0.113801
H	0.8105056842512400 0.0193605341797440 0.4824143779525385	0.114429
H	0.8145203836348398 0.8786696253386415 0.4785948683767595	0.100605
H	0.8462289358710090 0.1266264389691134 0.3797068026920041	0.108342
H	0.5932011007588948 0.2482981748743260 0.3746530762986214	0.108604
H	0.6046255160467104 0.1091983303085168 0.3711752485881652	0.099153
H	0.6285847805241886 0.6729334348337984 0.2650557991535755	0.099852
H	0.4889418770103502 0.6563093895312001 0.2666570410429147	0.113801
H	0.4806394648202523 0.8105056842512400 0.4824143779525385	0.114429
H	0.6213303746613585 0.8145203836348398 0.4785948683767595	0.100606
H	0.3733735740308914 0.8462289358710090 0.3797068026920041	0.108345
H	0.2517017981256683 0.5932011007588948 0.3746530762986214	0.108607
H	0.3908016826914807 0.6046255160467104 0.3711752485881652	0.099155
H	0.8714152194758114 0.8270665651662016 0.2650557991535755	0.099851
H	0.0110581389896440 0.8436906104687999 0.2666570410429147	0.113800
H	0.0193605341797440 0.6894943157487600 0.4824143779525385	0.114430
H	0.8786696253386415 0.6854796163651602 0.4785948683767595	0.100605
H	0.1266264389691134 0.6537710641289910 0.3797068026920041	0.108342
H	0.2482981748743260 0.9067988462411044 0.3746530762986214	0.108605
H	0.1091983303085168 0.8953744839532896 0.3711752485881652	0.099156
H	0.8270665651662016 0.8714152194758114 0.7650557681535767	0.099851
H	0.8436906104687999 0.0110581389896440 0.7666570560429194	0.113800
H	0.6894943157487600 0.0193605341797440 0.9824144089525374	0.114428
H	0.6854796163651602 0.8786696253386415 0.9785948043767613	0.100605
H	0.6537710641289910 0.1266264389691134 0.8797067706920014	0.108342
H	0.9067988462411044 0.2482981748743260 0.8746530132986201	0.108608
H	0.8953744839532896 0.1091983303085168 0.8711752165881623	0.099156
H	0.6729334348337984 0.6285847805241886 0.7650557681535767	0.099852
H	0.6563093895312001 0.4889418770103502 0.7666570560429194	0.113800
H	0.8105056842512400 0.4806394648202523 0.9824144089525374	0.114427
H	0.8145203836348398 0.6213303746613585 0.9785948043767613	0.100606
H	0.8462289358710090 0.3733735740308914 0.8797067706920014	0.108340
H	0.5932011007588948 0.2517017981256683 0.8746530132986201	0.108603
H	0.6046255160467104 0.3908016826914807 0.8711752165881623	0.099155
H	0.6285847805241886 0.8270665651662016 0.7650557681535767	0.099852
H	0.4889418770103502 0.8436906104687999 0.7666570560429194	0.113800
H	0.4806394648202523 0.6894943157487600 0.9824144089525374	0.114428
H	0.6213303746613585 0.6854796163651602 0.9785948043767613	0.100606
H	0.3733735740308914 0.6537710641289910 0.8797067706920014	0.108343
H	0.2517017981256683 0.9067988462411044 0.8746530132986201	0.108608
H	0.3908016826914807 0.8953744839532896 0.8711752165881623	0.099157
H	0.8714152194758114 0.6729334348337984 0.7650557681535767	0.099851
H	0.0110581389896440 0.6563093895312001 0.7666570560429194	0.113801
H	0.0193605341797440 0.8105056842512400 0.9824144089525374	0.114428
H	0.8786696253386415 0.8145203836348398 0.9785948043767613	0.100605
H	0.1266264389691134 0.8462289358710090 0.8797067706920014	0.108342
H	0.2482981748743260 0.5932011007588948 0.8746530132986201	0.108603
H	0.1091983303085168 0.6046255160467104 0.8711752165881623	0.099157
H	0.1729334078337998 0.3714152734758157 0.7349442318464233	0.099851
H	0.1563093485312003 0.5110581769896472 0.7333429439570806	0.113800
H	0.3105056842512401 0.5193605351797476 0.5175856220474616	0.114428
H	0.3145204366348405 0.3786696523386404 0.5214051316232405	0.100605
H	0.3462289358710092 0.6266263719691115 0.6202932293079986	0.108344
H	0.0932010937588906 0.7482982288743303 0.6253469867013799	0.108590
H	0.1046255020467165 0.6091983433085143 0.6288247834118377	0.099150
H	0.3270665651662015 0.1285847535241901 0.7349442318464233	0.099852
H	0.3436906914687959 0.9889418230103528 0.7333429439570806	0.113799
H	0.1894943287487574 0.9806394648202524 0.5175856220474616	0.114428
H	0.1854795633651592 0.1213303476613597 0.5214051316232405	0.100606
H	0.1537710781289921 0.8733736280308885 0.6202932293079986	0.108339
H	0.4067988992411053 0.7517017711256697 0.6253469867013799	0.108588
H	0.3953745109532881 0.8908016566914857 0.6288247834118377	0.099175
H	0.3714152734758157 0.3270665651662015 0.7349442318464233	0.099851
H	0.5110581769896472 0.3436906914687959 0.7333429439570806	0.113800
H	0.5193605351797476 0.1894943287487574 0.5175856220474616	0.114429
H	0.3786696523386404 0.1854795633651592 0.5214051316232405	0.100605
H	0.6266263719691115 0.1537710781289921 0.6202932293079986	0.108344
H	0.7482982288743303 0.4067988992411053 0.6253469867013799	0.108590
H	0.6091983433085143 0.3953745109532881 0.6288247834118377	0.099176
H	0.1285847535241901 0.1729334078337998 0.7349442318464233	0.099852
H	0.9889418230103528 0.1563093485312003 0.7333429439570806	0.113801
H	0.9806394648202524 0.3105056842512401 0.5175856220474616	0.114428
H	0.1213303476613597 0.3145204366348405 0.5214051316232405	0.100606
H	0.8733736280308885 0.3462289358710092 0.6202932293079986	0.108342
H	0.7517017711256697 0.0932010937588906 0.6253469867013799	0.108587
H	0.8908016566914857 0.1046255020467165 0.6288247834118377	0.099152
F	0.3073130168874145 0.1648659483575635 0.3786939254059912	-0.566801
F	0.1926870101125842 0.3351340516424365 0.3786939254059912	-0.566800
F	0.3351340516424365 0.3073130168874145 0.3786939254059912	-0.566801
F	0.1648659483575635 0.1926870101125842 0.3786939254059912	-0.566801
F	0.6926869831125854 0.6648658943575664 0.1213060745940089	-0.566801
F	0.8073130168874146 0.8351341056424336 0.1213060745940089	-0.566800
F	0.6648658943575664 0.8073130168874146 0.1213060745940089	-0.566800
F	0.8351341056424336 0.6926869831125854 0.1213060745940089	-0.566802
F	0.6926869831125854 0.8351341056424336 0.6213060425940062	-0.566800
F	0.8073130168874146 0.6648658943575664 0.6213060425940062	-0.566801
F	0.6648658943575664 0.6926869831125854 0.6213060425940062	-0.566801
F	0.8351341056424336 0.8073130168874146 0.6213060425940062	-0.566801
F	0.3073130168874145 0.3351340516424365 0.8786939574059938	-0.566800
F	0.1926870101125842 0.1648659483575635 0.8786939574059938	-0.566801
F	0.3351340516424365 0.1926870101125842 0.8786939574059938	-0.566802
F	0.1648659483575635 0.3073130168874145 0.8786939574059938	-0.566800
F	0.2500000000000000 0.2500000000000000 0.2593288049121024	-0.510321
F	0.2500000000000000 0.2500000000000000 0.4980323271629682	-0.510425
F	0.7500000000000000 0.7500000000000000 0.2406712110878990	-0.510321
F	0.7500000000000000 0.7500000000000000 0.0019676798370360	-0.510425
F	0.7500000000000000 0.7500000000000000 0.7406711630878949	-0.510322
F	0.7500000000000000 0.7500000000000000 0.5019677048370345	-0.510424
F	0.2500000000000000 0.2500000000000000 0.7593288369121051	-0.510322
F	0.2500000000000000 0.2500000000000000 -0.0019677048370344	-0.510425
Zn	0.2500000000000000 0.2500000000000000 0.1286607871659357	0.735418
Zn	0.7500000000000000 0.7500000000000000 0.3713392288340656	0.735418
Zn	0.7500000000000000 0.7500000000000000 0.8713391978340667	0.735420
Zn	0.2500000000000000 0.2500000000000000 0.6286608021659333	0.735420
Ge	0.2500000000000000 0.2500000000000000 0.3786779855671407	1.804056
Ge	0.7500000000000000 0.7500000000000000 0.1213220224328598	1.804056
Ge	0.7500000000000000 0.7500000000000000 0.6213219834328600	1.804056
Ge	0.2500000000000000 0.2500000000000000 0.8786780165671400	1.804056
	  	
