#======================================================================

# CRYSTAL DATA

#----------------------------------------------------------------------

data_VESTA_phase_1


_pd_phase_name                         GeFSIX_16_Cd_i
_cell_length_a                         25.46016
_cell_length_b                         25.46016
_cell_length_c                         8.09076
_cell_angle_alpha                      90
_cell_angle_beta                       90
_cell_angle_gamma                      90
_symmetry_space_group_name_H-M         P 1
_symmetry_Int_Tables_number            1

loop_
_symmetry_equiv_pos_as_xyz
   x, y, z

loop_
   _atom_site_label
   _atom_site_fract_x
   _atom_site_fract_y
   _atom_site_fract_z
   _atom_site_charge
C	0.4791488041203124 0.3821673072328925 0.3718835609993061	0.101172
C	0.4780170275776732 0.3276494227391580 0.3676175843107937	-0.169441
C	0.9557108980097988 0.6117523269470705 0.9442198058185060	-0.124532
C	0.9558408958200293 0.5571575500844264 0.9449542658958442	-0.126006
C	0.5208512338796837 0.6178327307671034 0.3718835609993061	0.101173
C	0.5219829724223266 0.6723506152608373 0.3676175843107937	-0.169441
C	0.0442890259902018 0.3882476340529299 0.9442198058185060	-0.124531
C	0.0441591231799689 0.4428424879155768 0.9449542658958442	-0.126006
C	0.6178327307671034 0.4791488041203124 0.3718835609993061	0.101173
C	0.6723506152608373 0.4780170275776732 0.3676175843107937	-0.169441
C	0.3882476340529299 0.9557108980097988 0.9442198058185060	-0.124531
C	0.4428424879155768 0.9558408958200293 0.9449542658958442	-0.126006
C	0.3821673072328925 0.5208512338796837 0.3718835609993061	0.101172
C	0.3276494227391580 0.5219829724223266 0.3676175843107937	-0.169441
C	0.6117523269470705 0.0442890259902018 0.9442198058185060	-0.124532
C	0.5571575500844264 0.0441591231799689 0.9449542658958442	-0.126006
C	0.5208512338796837 0.3821673072328925 0.6281164390006935	0.101173
C	0.5219829724223266 0.3276494227391580 0.6323823836892037	-0.169440
C	0.0442890259902018 0.6117523269470705 0.0557802061814951	-0.124532
C	0.0441591231799689 0.5571575500844264 0.0550457101041539	-0.126006
C	0.4791488041203124 0.6178327307671034 0.6281164390006935	0.101173
C	0.4780170275776732 0.6723506152608373 0.6323823836892037	-0.169440
C	0.9557108980097988 0.3882476340529299 0.0557802061814951	-0.124531
C	0.9558408958200293 0.4428424879155768 0.0550457101041539	-0.126006
C	0.3821673072328925 0.4791488041203124 0.6281164390006935	0.101173
C	0.3276494227391580 0.4780170275776732 0.6323823836892037	-0.169440
C	0.6117523269470705 0.9557108980097988 0.0557802061814951	-0.124532
C	0.5571575500844264 0.9558408958200293 0.0550457101041539	-0.126006
C	0.6178327307671034 0.5208512338796837 0.6281164390006935	0.101173
C	0.6723506152608373 0.5219829724223266 0.6323823836892037	-0.169440
C	0.3882476340529299 0.0442890259902018 0.0557802061814951	-0.124531
C	0.4428424879155768 0.0441591231799689 0.0550457101041539	-0.126006
C	0.5442890639902052 0.8882475960529338 0.5557802261814896	-0.124533
C	0.5441591041799707 0.9428424879155768 0.5550457021041532	-0.126005
C	0.0208511878796871 0.1178326737671096 0.1281164390006937	0.101172
C	0.0219829704223266 0.1723505772608419 0.1323823996892050	-0.169440
C	0.4557109740097982 0.1117523749470672 0.5557802261814896	-0.124588
C	0.4558408578200331 0.0571574970844255 0.5550457021041532	-0.126010
C	0.9791487661203163 0.8821672692328966 0.1281164390006937	0.101172
C	0.9780170275776734 0.8276494227391588 0.1323823996892050	-0.169441
C	0.1117523749470672 0.5442890639902052 0.5557802261814896	-0.124588
C	0.0571574970844255 0.5441591041799707 0.5550457021041532	-0.126010
C	0.8821672692328966 0.0208511878796871 0.1281164390006937	0.101172
C	0.8276494227391588 0.0219829704223266 0.1323823996892050	-0.169441
C	0.8882475960529338 0.4557109740097982 0.5557802261814896	-0.124533
C	0.9428424879155768 0.4558408578200331 0.5550457021041532	-0.126005
C	0.1178326737671096 0.9791487661203163 0.1281164390006937	0.101172
C	0.1723505772608419 0.9780170275776734 0.1323823996892050	-0.169440
C	0.4557109740097982 0.8882475960529338 0.4442198058185059	-0.124533
C	0.4558408578200331 0.9428424879155768 0.4449542978958468	-0.126005
C	0.9791487661203163 0.1178326737671096 0.8718835929993021	0.101173
C	0.9780170275776734 0.1723505772608419 0.8676175843107936	-0.169440
C	0.5442890639902052 0.1117523749470672 0.4442198058185059	-0.124588
C	0.5441591041799707 0.0571574970844255 0.4449542978958468	-0.126010
C	0.0208511878796871 0.8821672692328966 0.8718835929993021	0.101173
C	0.0219829704223266 0.8276494227391588 0.8676175843107936	-0.169440
C	0.8882475960529338 0.5442890639902052 0.4442198058185059	-0.124533
C	0.9428424879155768 0.5441591041799707 0.4449542978958468	-0.126005
C	0.1178326737671096 0.0208511878796871 0.8718835929993021	0.101173
C	0.1723505772608419 0.0219829704223266 0.8676175843107936	-0.169440
C	0.1117523749470672 0.4557109740097982 0.4442198058185059	-0.124588
C	0.0571574970844255 0.4558408578200331 0.4449542978958468	-0.126010
C	0.8821672692328966 0.9791487661203163 0.8718835929993021	0.101173
C	0.8276494227391588 0.9780170275776734 0.8676175843107936	-0.169440
C	0.5000000000000000 0.2992389837520745 0.5000000000000000	0.175419
C	0.5000000000000000 0.2435533202607161 0.5000000000000000	-0.117376
C	0.5000000000000000 0.1956612556704456 0.5000000000000000	-0.093186
C	0.5000000000000000 0.1399597176094754 0.5000000000000000	0.124445
C	0.5000000000000000 0.0289463446069625 0.5000000000000000	0.066421
C	-0.0000000000000000 0.7992389647520692 -0.0000000000000000	0.175419
C	-0.0000000000000000 0.7435533002607146 -0.0000000000000000	-0.117376
C	-0.0000000000000000 0.6956612176704492 -0.0000000000000000	-0.093187
C	-0.0000000000000000 0.6399596796094723 -0.0000000000000000	0.124421
C	-0.0000000000000000 0.5289463586069638 -0.0000000000000000	0.066370
C	0.5000000000000000 0.7007609972479276 0.5000000000000000	0.175419
C	0.5000000000000000 0.7564467377392814 0.5000000000000000	-0.117375
C	0.5000000000000000 0.8043387443295548 0.5000000000000000	-0.093187
C	0.5000000000000000 0.8600402823905245 0.5000000000000000	0.124421
C	0.5000000000000000 0.9710536413930362 0.5000000000000000	0.066366
C	-0.0000000000000000 0.2007610162479254 -0.0000000000000000	0.175419
C	-0.0000000000000000 0.2564466797392839 -0.0000000000000000	-0.117376
C	-0.0000000000000000 0.3043387243295528 -0.0000000000000000	-0.093187
C	-0.0000000000000000 0.3600402823905247 -0.0000000000000000	0.124421
C	-0.0000000000000000 0.4710536793930395 -0.0000000000000000	0.066370
C	0.7007609972479276 0.5000000000000000 0.5000000000000000	0.175419
C	0.7564467377392814 0.5000000000000000 0.5000000000000000	-0.117375
C	0.8043387443295548 0.5000000000000000 0.5000000000000000	-0.093187
C	0.8600402823905245 0.5000000000000000 0.5000000000000000	0.124421
C	0.9710536413930362 0.5000000000000000 0.5000000000000000	0.066366
C	0.2007610162479254 -0.0000000000000000 -0.0000000000000000	0.175419
C	0.2564466797392839 -0.0000000000000000 -0.0000000000000000	-0.117376
C	0.3043387243295528 -0.0000000000000000 -0.0000000000000000	-0.093187
C	0.3600402823905247 -0.0000000000000000 -0.0000000000000000	0.124421
C	0.4710536793930395 -0.0000000000000000 -0.0000000000000000	0.066369
C	0.2992389837520745 0.5000000000000000 0.5000000000000000	0.175419
C	0.2435533202607161 0.5000000000000000 0.5000000000000000	-0.117376
C	0.1956612556704456 0.5000000000000000 0.5000000000000000	-0.093186
C	0.1399597176094754 0.5000000000000000 0.5000000000000000	0.124445
C	0.0289463446069625 0.5000000000000000 0.5000000000000000	0.066421
C	0.7992389647520692 -0.0000000000000000 -0.0000000000000000	0.175419
C	0.7435533002607146 -0.0000000000000000 -0.0000000000000000	-0.117376
C	0.6956612176704492 -0.0000000000000000 -0.0000000000000000	-0.093187
C	0.6399596796094723 -0.0000000000000000 -0.0000000000000000	0.124421
C	0.5289463586069638 -0.0000000000000000 -0.0000000000000000	0.066370
H	0.4635811645141432 0.4056537271209954 0.2698766881860315	0.103848
H	0.4606186296005133 0.3072452741745485 0.2628003403556391	0.126732
H	0.9215284002981639 0.6332501146227061 0.8994110869281257	0.111521
H	0.9217440219463343 0.5358004885025085 0.8982081768964175	0.106760
H	0.5364188354858567 0.5943462728790047 0.2698766881860315	0.103848
H	0.5393814083994896 0.6927548018254507 0.2628003403556391	0.126732
H	0.0784715807018385 0.3667498853772937 0.8994110869281257	0.111521
H	0.0782560070536643 0.4641995504974907 0.8982081768964175	0.106760
H	0.5943462728790047 0.4635811645141432 0.2698766881860315	0.103848
H	0.6927548018254507 0.4606186296005133 0.2628003403556391	0.126732
H	0.3667498853772937 0.9215284002981639 0.8994110869281257	0.111521
H	0.4641995504974907 0.9217440219463343 0.8982081768964175	0.106759
H	0.4056537271209954 0.5364188354858567 0.2698766881860315	0.103848
H	0.3072452741745485 0.5393814083994896 0.2628003403556391	0.126732
H	0.6332501146227061 0.0784715807018385 0.8994110869281257	0.111521
H	0.5358004885025085 0.0782560070536643 0.8982081768964175	0.106760
H	0.5364188354858567 0.4056537271209954 0.7301232958139672	0.103848
H	0.5393814083994896 0.3072452741745485 0.7371996596443613	0.126731
H	0.0784715807018385 0.6332501146227061 0.1005888890718720	0.111521
H	0.0782560070536643 0.5358004885025085 0.1017918231035823	0.106760
H	0.4635811645141432 0.5943462728790047 0.7301232958139672	0.103848
H	0.4606186296005133 0.6927548018254507 0.7371996596443613	0.126731
H	0.9215284002981639 0.3667498853772937 0.1005888890718720	0.111521
H	0.9217440219463343 0.4641995504974907 0.1017918231035823	0.106759
H	0.4056537271209954 0.4635811645141432 0.7301232958139672	0.103848
H	0.3072452741745485 0.4606186296005133 0.7371996596443613	0.126731
H	0.6332501146227061 0.9215284002981639 0.1005888890718720	0.111521
H	0.5358004885025085 0.9217440219463343 0.1017918231035823	0.106760
H	0.5943462728790047 0.5364188354858567 0.7301232958139672	0.103848
H	0.6927548018254507 0.5393814083994896 0.7371996596443613	0.126731
H	0.3667498853772937 0.0784715807018385 0.1005888890718720	0.111521
H	0.4641995504974907 0.0782560070536643 0.1017918231035823	0.106760
H	0.5784715997018361 0.8667498853772939 0.6005888810718717	0.111520
H	0.5782559780536657 0.9641995504974912 0.6017918551035851	0.106761
H	0.0364188454858578 0.0943462438790057 0.2301233118139686	0.103848
H	0.0393814133994866 0.1927547448254495 0.2371996916443566	0.126732
H	0.4215284382981666 0.1332501436227052 0.6005888810718717	0.111530
H	0.4217439829463349 0.0358004735025040 0.6017918551035851	0.106774
H	0.9635811645141433 0.9056538041209911 0.2301233118139686	0.103848
H	0.9606185916005104 0.8072453121745516 0.2371996916443566	0.126732
H	0.1332501436227052 0.5784715997018361 0.6005888810718717	0.111529
H	0.0358004735025040 0.5782559780536657 0.6017918551035851	0.106774
H	0.9056538041209911 0.0364188454858578 0.2301233118139686	0.103848
H	0.8072453121745516 0.0393814133994866 0.2371996916443566	0.126732
H	0.8667498853772939 0.4215284382981666 0.6005888810718717	0.111520
H	0.9641995504974912 0.4217439829463349 0.6017918551035851	0.106761
H	0.0943462438790057 0.9635811645141433 0.2301233118139686	0.103848
H	0.1927547448254495 0.9606185916005104 0.2371996916443566	0.126732
H	0.4215284382981666 0.8667498853772939 0.3994110869281260	0.111520
H	0.4217439829463349 0.9641995504974912 0.3982082088964131	0.106761
H	0.9635811645141433 0.0943462438790057 0.7698766721860302	0.103848
H	0.9606185916005104 0.1927547448254495 0.7628003083556432	0.126731
H	0.5784715997018361 0.1332501436227052 0.3994110869281260	0.111529
H	0.5782559780536657 0.0358004735025040 0.3982082088964131	0.106774
H	0.0364188454858578 0.9056538041209911 0.7698766721860302	0.103848
H	0.0393814133994866 0.8072453121745516 0.7628003083556432	0.126731
H	0.8667498853772939 0.5784715997018361 0.3994110869281260	0.111520
H	0.9641995504974912 0.5782559780536657 0.3982082088964131	0.106761
H	0.0943462438790057 0.0364188454858578 0.7698766721860302	0.103848
H	0.1927547448254495 0.0393814133994866 0.7628003083556432	0.126731
H	0.1332501436227052 0.4215284382981666 0.3994110869281260	0.111529
H	0.0358004735025040 0.4217439829463349 0.3982082088964131	0.106774
H	0.9056538041209911 0.9635811645141433 0.7698766721860302	0.103848
H	0.8072453121745516 0.9606185916005104 0.7628003083556432	0.126731
Cd	0.5000000000000000 0.5000000000000000 0.5000000000000000	0.824265
Cd	-0.0000000000000000 -0.0000000000000000 -0.0000000000000000	0.824265
Ge	0.5000000000000000 0.5000000000000000 -0.0000000000000000	1.793870
Ge	-0.0000000000000000 -0.0000000000000000 0.5000000000000000	1.793870
F	0.5000000000000000 0.5000000000000000 0.2276699754885089	-0.519655
F	-0.0000000000000000 -0.0000000000000000 0.7276699434885131	-0.519655
F	0.5000000000000000 0.5000000000000000 0.7723299605114932	-0.519655
F	-0.0000000000000000 -0.0000000000000000 0.2723300245114910	-0.519655
F	0.5507676098729695 0.5507676098729695 -0.0000000000000000	-0.567941
F	0.0507675628729690 0.0507675628729690 0.5000000000000000	-0.567941
F	0.4492324661270369 0.4492324661270369 -0.0000000000000000	-0.567941
F	0.9492324281270337 0.9492324281270337 0.5000000000000000	-0.567941
F	0.4492324661270369 0.5507676098729695 -0.0000000000000000	-0.567941
F	0.9492324281270337 0.0507675628729690 0.5000000000000000	-0.567941
F	0.5507676098729695 0.4492324661270369 -0.0000000000000000	-0.567941
F	0.0507675628729690 0.9492324281270337 0.5000000000000000	-0.567941
N	0.5000000000000000 0.4087026013179608 0.5000000000000000	-0.242521
N	-0.0000000000000000 0.9087026393179640 -0.0000000000000000	-0.242521
N	0.5000000000000000 0.5912973986820391 0.5000000000000000	-0.242521
N	-0.0000000000000000 0.0912974076820364 -0.0000000000000000	-0.242521
N	0.5912973986820391 0.5000000000000000 0.5000000000000000	-0.242521
N	0.0912974076820364 -0.0000000000000000 -0.0000000000000000	-0.242521
N	0.4087026013179608 0.5000000000000000 0.5000000000000000	-0.242521
N	0.9087026393179640 -0.0000000000000000 -0.0000000000000000	-0.242521
	  	
