#======================================================================

# CRYSTAL DATA

#----------------------------------------------------------------------

data_VESTA_phase_1


_pd_phase_name                         GeFSIX_2_Zn_i
_cell_length_a                         13.96311
_cell_length_b                         13.96311
_cell_length_c                         8.07211
_cell_angle_alpha                      90
_cell_angle_beta                       90
_cell_angle_gamma                      90
_symmetry_space_group_name_H-M         P 1
_symmetry_Int_Tables_number            1

loop_
_symmetry_equiv_pos_as_xyz
   x, y, z

loop_
   _atom_site_label
   _atom_site_fract_x
   _atom_site_fract_y
   _atom_site_fract_z
   _atom_site_charge
C	0.0000000000000000 0.3033116217185432 0.3506661094258286	-0.159450
C	0.0000000000000000 0.2039889622294462 0.3561806634486238	0.106512
C	0.5000000000000000 0.8033116217185430 0.8506661384258271	-0.159450
C	0.5000000000000000 0.7039889802294476 0.8561806634486238	0.106512
C	0.0000000000000000 0.6966883782814570 0.3506661094258286	-0.159452
C	0.0000000000000000 0.7960110197705524 0.3561806634486238	0.106515
C	0.5000000000000000 0.1966883952814548 0.8506661384258271	-0.159452
C	0.5000000000000000 0.2960110197705524 0.8561806634486238	0.106515
C	0.6966883782814570 -0.0000000000000000 0.3506661094258286	-0.159450
C	0.7960110197705524 -0.0000000000000000 0.3561806634486238	0.106514
C	0.1966883952814548 0.5000000000000000 0.8506661384258271	-0.159450
C	0.2960110197705524 0.5000000000000000 0.8561806634486238	0.106514
C	0.3033116217185432 -0.0000000000000000 0.3506661094258286	-0.159452
C	0.2039889622294462 -0.0000000000000000 0.3561806634486238	0.106516
C	0.8033116217185430 0.5000000000000000 0.8506661384258271	-0.159452
C	0.7039889802294476 0.5000000000000000 0.8561806634486238	0.106516
C	0.0000000000000000 0.3033116217185432 0.6493338615741729	-0.159447
C	0.0000000000000000 0.2039889622294462 0.6438193365513762	0.106513
C	0.5000000000000000 0.8033116217185430 0.1493338905741715	-0.159447
C	0.5000000000000000 0.7039889802294476 0.1438193215513786	0.106513
C	0.0000000000000000 0.6966883782814570 0.6493338615741729	-0.159450
C	0.0000000000000000 0.7960110197705524 0.6438193365513762	0.106515
C	0.5000000000000000 0.1966883952814548 0.1493338905741715	-0.159450
C	0.5000000000000000 0.2960110197705524 0.1438193215513786	0.106515
C	0.3033116217185432 -0.0000000000000000 0.6493338615741729	-0.159449
C	0.2039889622294462 -0.0000000000000000 0.6438193365513762	0.106517
C	0.8033116217185430 0.5000000000000000 0.1493338905741715	-0.159449
C	0.7039889802294476 0.5000000000000000 0.1438193215513786	0.106517
C	0.6966883782814570 -0.0000000000000000 0.6493338615741729	-0.159447
C	0.7960110197705524 -0.0000000000000000 0.6438193365513762	0.106514
C	0.1966883952814548 0.5000000000000000 0.1493338905741715	-0.159447
C	0.2960110197705524 0.5000000000000000 0.1438193215513786	0.106514
C	0.0000000000000000 0.4563620128762014 0.5000000000000000	-0.094452
C	0.0000000000000000 0.3551760415305444 0.5000000000000000	0.162812
C	0.5000000000000000 0.9563620468762042 0.0000000000000000	-0.094452
C	0.5000000000000000 0.8551760065305450 0.0000000000000000	0.162812
C	0.0000000000000000 0.5436379871237986 0.5000000000000000	-0.094192
C	0.0000000000000000 0.6448239934694550 0.5000000000000000	0.162781
C	0.5000000000000000 0.0436379661237933 0.0000000000000000	-0.094192
C	0.5000000000000000 0.1448239934694550 0.0000000000000000	0.162781
C	0.5436379871237986 -0.0000000000000000 0.5000000000000000	-0.094452
C	0.6448239934694550 -0.0000000000000000 0.5000000000000000	0.162812
C	0.0436379661237933 0.5000000000000000 0.0000000000000000	-0.094452
C	0.1448239934694550 0.5000000000000000 0.0000000000000000	0.162813
C	0.4563620128762014 -0.0000000000000000 0.5000000000000000	-0.094192
C	0.3551760415305444 -0.0000000000000000 0.5000000000000000	0.162781
C	0.9563620468762042 0.5000000000000000 0.0000000000000000	-0.094192
C	0.8551760065305450 0.5000000000000000 0.0000000000000000	0.162781
H	0.0000000000000000 0.3400436729254920 0.2318108108748081	0.119927
H	0.0000000000000000 0.1622094884519841 0.2423190469448720	0.096728
H	0.5000000000000000 0.8400436729254918 0.7318108108748079	0.119927
H	0.5000000000000000 0.6622094354519833 0.7423190769448744	0.096728
H	0.0000000000000000 0.6599563270745082 0.2318108108748081	0.119926
H	0.0000000000000000 0.8377905645480167 0.2423190469448720	0.096728
H	0.5000000000000000 0.1599563270745080 0.7318108108748079	0.119926
H	0.5000000000000000 0.3377905295480104 0.7423190769448744	0.096728
H	0.6599563270745082 -0.0000000000000000 0.2318108108748081	0.119927
H	0.8377905645480168 -0.0000000000000000 0.2423190469448720	0.096728
H	0.1599563270745080 0.5000000000000000 0.7318108108748079	0.119927
H	0.3377905295480104 0.5000000000000000 0.7423190769448744	0.096728
H	0.3400436729254920 -0.0000000000000000 0.2318108108748081	0.119926
H	0.1622094884519841 -0.0000000000000000 0.2423190469448720	0.096728
H	0.8400436729254918 0.5000000000000000 0.7318108108748079	0.119926
H	0.6622094354519832 0.5000000000000000 0.7423190769448744	0.096728
H	0.0000000000000000 0.3400436729254920 0.7681891891251921	0.119924
H	0.0000000000000000 0.1622094884519841 0.7576808650551279	0.096728
H	0.5000000000000000 0.8400436729254918 0.2681891891251918	0.119924
H	0.5000000000000000 0.6622094354519832 0.2576809530551279	0.096728
H	0.0000000000000000 0.6599563270745082 0.7681891891251921	0.119922
H	0.0000000000000000 0.8377905645480168 0.7576808650551279	0.096728
H	0.5000000000000000 0.1599563270745080 0.2681891891251918	0.119922
H	0.5000000000000000 0.3377905295480104 0.2576809530551279	0.096728
H	0.3400436729254920 -0.0000000000000000 0.7681891891251921	0.119922
H	0.1622094884519841 -0.0000000000000000 0.7576808650551279	0.096728
H	0.8400436729254918 0.5000000000000000 0.2681891891251918	0.119922
H	0.6622094354519833 0.5000000000000000 0.2576809530551279	0.096728
H	0.6599563270745082 -0.0000000000000000 0.7681891891251921	0.119924
H	0.8377905645480168 -0.0000000000000000 0.7576808650551279	0.096728
H	0.1599563270745080 0.5000000000000000 0.2681891891251918	0.119924
H	0.3377905295480104 0.5000000000000000 0.2576809530551279	0.096728
Zn	0.0000000000000000 -0.0000000000000000 0.5000000000000000	0.735507
Zn	0.5000000000000000 0.5000000000000000 0.0000000000000000	0.735507
Ge	0.0000000000000000 -0.0000000000000000 0.0000000000000000	1.763611
Ge	0.5000000000000000 0.5000000000000000 0.5000000000000000	1.763611
N	0.0000000000000000 0.1546915975223482 0.5000000000000000	-0.224983
N	0.5000000000000000 0.6546915795223465 0.0000000000000000	-0.224983
N	0.0000000000000000 0.8453084204776535 0.5000000000000000	-0.224982
N	0.5000000000000000 0.3453084204776535 0.0000000000000000	-0.224982
N	0.8453084204776535 -0.0000000000000000 0.5000000000000000	-0.224983
N	0.3453084204776535 0.5000000000000000 0.0000000000000000	-0.224983
N	0.1546915975223482 -0.0000000000000000 0.5000000000000000	-0.224983
N	0.6546915795223465 0.5000000000000000 0.0000000000000000	-0.224983
F	0.0000000000000000 -0.0000000000000000 0.7651962218717842	-0.511929
F	0.5000000000000000 0.5000000000000000 0.2651963108717879	-0.511929
F	0.0000000000000000 -0.0000000000000000 0.2348037041282168	-0.511929
F	0.5000000000000000 0.5000000000000000 0.7348037781282158	-0.511929
F	0.5918606985667363 0.5918606985667363 0.5000000000000000	-0.539742
F	0.5918606985667363 0.4081393014332635 0.5000000000000000	-0.539742
F	0.4081393014332635 0.5918606985667363 0.5000000000000000	-0.539742
F	0.4081393014332635 0.4081393014332635 0.5000000000000000	-0.539742
F	0.0918607155667342 0.0918607155667342 0.0000000000000000	-0.539742
F	0.9081393014332637 0.9081393014332637 0.0000000000000000	-0.539742
F	0.9081393014332637 0.0918607155667342 0.0000000000000000	-0.539742
F	0.0918607155667342 0.9081393014332637 0.0000000000000000	-0.539742
	  	
