#======================================================================

# CRYSTAL DATA

#----------------------------------------------------------------------

data_VESTA_phase_1


_pd_phase_name                         GeFSIX_14_Fe_i
_cell_length_a                         13.20484
_cell_length_b                         13.26250
_cell_length_c                         7.97565
_cell_angle_alpha                      87.25836
_cell_angle_beta                       87.42107
_cell_angle_gamma                      88.70702
_symmetry_space_group_name_H-M         P 1
_symmetry_Int_Tables_number            1

loop_
_symmetry_equiv_pos_as_xyz
   x, y, z

loop_
   _atom_site_label
   _atom_site_fract_x
   _atom_site_fract_y
   _atom_site_fract_z
   _atom_site_charge
C	0.5648744632070934 0.2731662693144232 0.3623973446147770	-0.172866
C	0.4597048191174002 0.2748214215683355 0.3683063411608394	0.104182
C	0.9397712407275635 0.2856050044706080 0.4177470640987406	-0.164037
C	0.0446105093562969 0.2826082212860805 0.4028763349078477	0.107282
C	0.2700157491732717 0.5660836102167862 0.3646732941731433	-0.171811
C	0.2720970114745911 0.4613044794158325 0.3706662729673522	0.105719
C	0.2928250757862291 0.9372476873968431 0.4141329296121622	-0.164704
C	0.2867110987025564 0.0416677361483585 0.4009002109281843	0.107328
C	0.9354164825812532 0.2287588368361465 0.1362070874678575	-0.171830
C	0.0405865549294069 0.2273319761430166 0.1300007654944634	0.103384
C	0.5606648842867950 0.2104459477350825 0.0847184692344947	-0.162808
C	0.4558179229634321 0.2140437351283055 0.0990438765556098	0.107764
C	0.2112038497108985 0.5621749786033156 0.0833665272966055	-0.167130
C	0.2168136493557230 0.4577614856282549 0.0971259549478530	0.108672
C	0.2278694061545702 0.9334284659744132 0.1369408786378932	-0.173283
C	0.2255484707151514 0.0382062390136871 0.1312291502571065	0.106355
C	0.4306626552826651 0.7370593016294782 0.6344197590901148	-0.181285
C	0.5354375319333198 0.7335414165054325 0.6294755097324440	0.110622
C	0.0646284383809206 0.7219865563735358 0.5739104613936615	-0.169155
C	0.9599934593768329 0.7277565269822280 0.5897754973260293	0.110986
C	0.7378111978153549 0.4302530305383334 0.6330078817468537	-0.183932
C	0.7339490188952661 0.5347921070060064 0.6281968282600577	0.112408
C	0.7088571058128122 0.0658070237673649 0.5805578119972667	-0.170749
C	0.7174637131796490 0.9615427384620017 0.5941875697827668	0.109865
C	0.0695092314813952 0.7608263099004328 0.8670128005959065	-0.181150
C	0.9647018498267009 0.7635073107426786 0.8726112856008028	0.110396
C	0.4353703635398027 0.7839820583764214 0.9236553629182486	-0.167405
C	0.5400113343837718 0.7775354337799523 0.9085605084914986	0.111733
C	0.7856270303587450 0.4342829474147195 0.9219613914987158	-0.174043
C	0.7776272943513197 0.5385379584239899 0.9074968958856882	0.111905
C	0.7644111019058814 0.0697515538964266 0.8651783433978781	-0.183441
C	0.7689540448083497 0.9652529988519120 0.8693406108286761	0.111936
C	0.6185715548976575 0.2406578360009396 0.2167986307887743	0.192610
C	0.8818230660453309 0.2579640428506015 0.2839976200976988	0.193455
C	0.2391114625091785 0.6189852952626129 0.2176286718413274	0.192902
C	0.2620995692803954 0.8804474245336028 0.2817226408109345	0.191800
C	0.3795347903835998 0.7623394264783497 0.7854448906235841	0.191038
C	0.1205396247181121 0.7399188865950894 0.7138095935900074	0.191619
C	0.7637716544141849 0.3789457506295994 0.7835760458659409	0.194909
C	0.7343325784135345 0.1211330625551354 0.7169919590769662	0.192524
H	0.6047198547416578 0.2936239502397151 0.4719429608742866	0.111441
H	0.4174202385837067 0.2978456872358108 0.4811903655755316	0.094831
H	0.9023648757181214 0.3091569558767115 0.5339253938185862	0.124312
H	0.0894426977736223 0.3040909721119118 0.5061763868204850	0.098127
H	0.2882515306518452 0.6064184802984116 0.4747481097770103	0.112807
H	0.2931512362239378 0.4188438291197067 0.4847017338941653	0.094042
H	0.3211885516945499 0.8996435617274634 0.5271869127882035	0.124713
H	0.3091237419855991 0.0865449009885788 0.5033448234737126	0.099190
H	0.8954115286786823 0.2105760172962960 0.0254932435578702	0.110548
H	0.0828304638918119 0.2066191745985448 0.0157276931622897	0.094352
H	0.5981550777336127 0.1840972234894545 0.9704953177705411	0.123995
H	0.4110174417582290 0.1907727066468873 0.9969083808399716	0.097462
H	0.1855536425066897 0.5997203618344091 0.9683325681918689	0.124964
H	0.1962924716317640 0.4128654894404796 0.9934651730678640	0.098095
H	0.2072725383210754 0.8932680276066102 0.0280666534038856	0.113285
H	0.2020714296265048 0.0807005470571971 0.0186855113881096	0.094024
H	0.3890875128560984 0.7242836842931530 0.5227639385392214	0.104095
H	0.5783116918248719 0.7155575658017075 0.5145015180519069	0.092635
H	0.1028333179492727 0.7049760794787440 0.4548407504732626	0.123295
H	0.9142236348299709 0.7152951999206609 0.4830344427741771	0.093025
H	0.7255073612693105 0.3887044806002068 0.5213607057942697	0.107508
H	0.7160907064268643 0.5775622997645750 0.5128027321882694	0.092141
H	0.6839867826209695 0.1042493918715141 0.4658040615574750	0.124280
H	0.7001062646457836 0.9161448511700958 0.4894408530545025	0.093627
H	0.1112758047172291 0.7708266766978357 0.9795574397303440	0.103780
H	0.9218996901640460 0.7778164617128618 0.9892613227404508	0.092545
H	0.3970386219276192 0.8047205428671422 0.0406916905324383	0.123241
H	0.5857576305190144 0.7930422880334911 0.0140125441579141	0.092654
H	0.8069690780550560 0.3959308576054756 0.0389431765778028	0.124839
H	0.7921410351923425 0.5839436363863557 0.0135939319596185	0.093122
H	0.7793677265348214 0.1110902846025767 0.9758720426370316	0.108193
H	0.7901131173109057 0.9224112858616994 0.9829610052149522	0.093030
N	0.7761236628194202 0.2664022366673237 0.3086660519076680	-0.122444
N	0.2743424161185984 0.7749202973569345 0.3012591113444277	-0.118255
N	0.7242796086290657 0.2316905145317834 0.1925541414833776	-0.122706
N	0.2272952584831457 0.7244918511121360 0.1977421684138874	-0.115385
N	0.2261869317340784 0.7318753403947619 0.6921929886158414	-0.112904
N	0.7230788460765240 0.2267148120361138 0.7000631496033535	-0.111469
N	0.2738569538257011 0.7709429027509510 0.8067074905611937	-0.113627
N	0.7746032593728170 0.2734030091544949 0.8007912473884636	-0.112951
N	0.4048219921066830 0.2465860976396460 0.2385957831695301	-0.260199
N	0.0955523392086806 0.2529653449896229 0.2613178985814284	-0.259717
N	0.2470639051044637 0.4073429850551083 0.2387765530332618	-0.259270
N	0.2534030529211584 0.0921190734095311 0.2613770378097633	-0.258633
N	0.5895105912560098 0.7527654142677807 0.7640864600434145	-0.254436
N	0.9105009155227203 0.7479614447281192 0.7365200855383141	-0.253631
N	0.7526010612854638 0.5883836045126852 0.7630636970846939	-0.255980
N	0.7467950772598502 0.9117424478098596 0.7361203612694610	-0.254943
F	0.3469682587717078 0.1488954544825426 0.7531835876295009	-0.528384
F	0.1546413275068019 0.3488347841179671 0.7465679697322442	-0.528752
F	0.3488481286801260 0.3427642866681387 0.7233042911662003	-0.528357
F	0.1525858681970821 0.1552217404581719 0.7768959346848767	-0.527963
F	0.6504012716166393 0.8469399690334051 0.2496152358507476	-0.521928
F	0.8484090473199084 0.6544083190945926 0.2506948038276754	-0.523021
F	0.6549659507816473 0.6539741836261763 0.2680410127311073	-0.524986
F	0.8441179958980350 0.8470478668951450 0.2318458360673524	-0.525279
F	0.2479902223300244 0.2441078731182300 0.5161539779247472	-0.505931
F	0.2533081450702904 0.2539684811327278 0.9840969537007990	-0.505932
F	0.7489696529980101 0.7509836027890900 0.4903333501107938	-0.501866
F	0.7500345858884024 0.7503276825972509 0.0097046783147389	-0.501292
Ge	0.2508600817696419 0.2488377684162075 0.7500631035122131	1.762923
Ge	0.7493684499928460 0.7506883174244388 0.2500857085827182	1.757101
Fe	0.2502283413089963 0.2497858811580516 0.2500041206803068	0.918480
Fe	0.7499789685428609 0.7501000928983904 0.7500903716511078	0.871774
	  	
