#======================================================================

# CRYSTAL DATA

#----------------------------------------------------------------------

data_VESTA_phase_1


_pd_phase_name                         GeFSIX_18_Co
_cell_length_a                         14.14825
_cell_length_b                         13.75656
_cell_length_c                         8.13522
_cell_angle_alpha                      90
_cell_angle_beta                       95.13029
_cell_angle_gamma                      90
_symmetry_space_group_name_H-M         P 1
_symmetry_Int_Tables_number            1

loop_
_symmetry_equiv_pos_as_xyz
   x, y, z

loop_
   _atom_site_label
   _atom_site_fract_x
   _atom_site_fract_y
   _atom_site_fract_z
   _atom_site_charge
F	0.4114542931566099 0.3742512485992883 0.5060781053960987	-0.534830
F	0.5193060224103688 0.4766334479163026 0.7319518038736875	-0.528212
F	0.4075135471381022 0.5607727770245065 0.5096595563253359	-0.502323
F	0.9114543271566057 0.8742511795992861 0.5060781053960987	-0.534830
F	0.0193060484103636 0.9766334129163028 0.7319518038736875	-0.528212
F	0.9075135811381051 0.0607727430245105 0.5096595563253359	-0.502322
F	0.5885456698433905 0.3742512485992883 0.4939218946039015	-0.534831
F	0.4806939745896347 0.4766334479163026 0.2680481961263121	-0.528212
F	0.5924864488618974 0.5607727770245065 0.4903404446746675	-0.502323
F	0.0885456908433888 0.8742511795992861 0.4939218946039015	-0.534831
F	0.9806938395896340 0.9766334129163028 0.2680481961263120	-0.528211
F	0.0924864238618990 0.0607727430245105 0.4903404446746675	-0.502322
C	0.6825403881057960 0.1516097577300378 0.6577919207214276	-0.424620
C	0.7556447933915060 0.1489046598892794 0.8008705619933038	0.211289
C	0.7602891629309618 0.1966172049901618 0.9533896632242680	-0.148289
C	0.6891723537022211 0.2612165014164911 0.0133976277452491	-0.147634
C	0.6743989152406514 0.3606153775700744 0.9721299964876481	0.225101
C	0.7312202938061969 0.4227794742856583 0.8676092142588323	-0.428565
C	0.8921629747461248 0.2074863602976205 0.1975221258493566	-0.436661
C	0.8495485723355977 0.1714270547726065 0.0349959325250336	0.220852
C	0.6222873833344252 0.2390259643574626 0.1249983994530782	0.211923
C	0.6000533633766854 0.1472788010121248 0.2107178244010159	-0.425620
C	0.1825404381057926 0.6516098097300349 0.6577919207214276	-0.424619
C	0.2556448273915085 0.6489046428892739 0.8008705619933038	0.211282
C	0.2602891289309590 0.6966171709901590 0.9533896632242680	-0.148289
C	0.1891723537022215 0.7612165184164891 0.0133976277452491	-0.147634
C	0.1743988982406465 0.8606154115700771 0.9721299964876481	0.225101
C	0.2312203098061913 0.9227794392856590 0.8676092142588323	-0.428565
C	0.3921628737461205 0.7074862742976202 0.1975221258493566	-0.436677
C	0.3495486403355960 0.6714270547726068 0.0349959325250336	0.220854
C	0.1222873583344263 0.7390258783574628 0.1249983994530782	0.211924
C	0.1000534473766848 0.6472788700121271 0.2107178244010159	-0.425622
C	0.3174596088942079 0.1516097577300378 0.3422080802785764	-0.424630
C	0.2443551996084902 0.1489046598892794 0.1991293580066963	0.211291
C	0.2397108660690371 0.1966172049901618 0.0466103127757370	-0.148291
C	0.3108276422977782 0.2612165014164911 0.9866023632547535	-0.147635
C	0.3256011507593540 0.3606153775700744 0.0278700545123525	0.225102
C	0.2687797211938076 0.4227794742856583 0.1323908017411690	-0.428571
C	0.1078371082538780 0.2074863602976205 0.8024779221506472	-0.436684
C	0.1504514066644043 0.1714270547726065 0.9650040554749653	0.220854
C	0.3777126476655746 0.2390259643574626 0.8750016245469171	0.211936
C	0.3999465626233161 0.1472788010121249 0.7892820965989882	-0.425626
C	0.8174596088942073 0.6516098097300349 0.3422080802785764	-0.424630
C	0.7443551996084898 0.6489046428892739 0.1991293580066963	0.211283
C	0.7397108320690413 0.6966171709901590 0.0466103127757370	-0.148290
C	0.8108276422977786 0.7612165184164891 0.9866023632547535	-0.147634
C	0.8256010837593520 0.8606154115700771 0.0278700545123525	0.225102
C	0.7687797041938029 0.9227794392856590 0.1323908017411690	-0.428571
C	0.6078370242538786 0.7074862742976202 0.8024779221506472	-0.436685
C	0.6504514236644020 0.6714270547726068 0.9650040554749653	0.220856
C	0.8777126136655710 0.7390258783574628 0.8750016245469171	0.211937
C	0.8999466296233176 0.6472788700121271 0.7892820965989882	-0.425627
H	0.7142998932437912 0.1726681071173284 0.5446575291011252	0.151846
H	0.6278168894787129 0.2052501547930809 0.6796335151798941	0.141504
H	0.6487327658069809 0.0801778256734548 0.6353993333817816	0.133849
H	0.6859166662385977 0.4649039673262642 0.7776493256659032	0.145387
H	0.7788209386641748 0.3771537558647047 0.8014836589950964	0.138081
H	0.7748322906122374 0.4739702973636333 0.9457695140329151	0.127585
H	0.8627994218673262 0.0654128485884695 0.6981666932341531	0.278660
H	0.8989958646944628 0.1501751009146966 0.2914400010842935	0.151017
H	0.8472818962522668 0.2654956262070463 0.2407134828119307	0.134813
H	0.9634524895236943 0.2368055318629589 0.1859883919191192	0.139774
H	0.5746451290499870 0.1625924555240530 0.3317945414645338	0.144913
H	0.6629913467470330 0.1006734568548115 0.2281106095809584	0.150230
H	0.5439787874366501 0.1059392961014319 0.1384942427862172	0.130936
H	0.5247642622602285 0.3365185299733223 0.2251704589660587	0.273897
H	0.2142999442437914 0.6726680041173305 0.5446575291011252	0.151845
H	0.1278169734787126 0.7052500857930785 0.6796335151798941	0.141505
H	0.1487328158069779 0.5801777656734499 0.6353993333817816	0.133850
H	0.1859166832385958 0.9649038993262583 0.7776493256659032	0.145387
H	0.2788209726641779 0.8771537898647076 0.8014836589950964	0.138081
H	0.2748323236122365 0.9739702973636331 0.9457695140329151	0.127586
H	0.3627993878673312 0.5654128915884697 0.6981666932341531	0.278669
H	0.3989959316944643 0.6501750669146940 0.2914400010842935	0.151018
H	0.3472818282522688 0.7654956612070460 0.2407134828119307	0.134814
H	0.4634525565236896 0.7368055828629524 0.1859883919191192	0.139792
H	0.0746451210499863 0.6625924725240510 0.3317945414645338	0.144913
H	0.1629913127470302 0.6006734138548120 0.2281106095809584	0.150231
H	0.0439788234366534 0.6059392441014345 0.1384942427862172	0.130942
H	0.0247642472602309 0.8365185299733222 0.2251704589660587	0.273897
H	0.2857000377562142 0.1726681071173284 0.4553425028988706	0.151851
H	0.3721830095212824 0.2052501547930809 0.3203665498201076	0.141499
H	0.3512671631930240 0.0801778256734548 0.3646006666182181	0.133880
H	0.3140833287614053 0.4649039673262642 0.2223506423341005	0.145385
H	0.2211790563358213 0.3771537558647047 0.1985163090049009	0.138098
H	0.2251677053877695 0.4739702973636333 0.0542304589670862	0.127590
H	0.1372005791326697 0.0654128485884695 0.3018332117658423	0.278660
H	0.1010040583055345 0.1501751009146966 0.7085600309157098	0.151019
H	0.1527181677477310 0.2654956262070463 0.7592865171880693	0.134827
H	0.0365474394763102 0.2368055318629589 0.8140116400808760	0.139806
H	0.4253549009500157 0.1625924555240530 0.6682054585354659	0.144913
H	0.3370087152529719 0.1006734568548115 0.7718893424190370	0.150232
H	0.4560211775633504 0.1059392961014319 0.8615057972137861	0.130952
H	0.4752356987397718 0.3365185299733223 0.7748294940339406	0.273917
H	0.7857001047562087 0.6726680041173305 0.4553425028988706	0.151851
H	0.8721831105212871 0.7052500857930785 0.3203665498201076	0.141500
H	0.8512671631930239 0.5801777656734499 0.3646006666182181	0.133881
H	0.8140833287614054 0.9649038993262583 0.2223506423341005	0.145386
H	0.7211790563358212 0.8771537898647076 0.1985163090049009	0.138099
H	0.7251677053877694 0.9739702973636331 0.0542304589670862	0.127591
H	0.6372005701326732 0.5654128915884697 0.3018332117658423	0.278669
H	0.6010041673055327 0.6501750669146940 0.7085600309157098	0.151019
H	0.6527181007477294 0.7654956612070460 0.7592865171880693	0.134828
H	0.5365474754763063 0.7368055828629524 0.8140116400808760	0.139811
H	0.9253548339500135 0.6625924725240510 0.6682054585354659	0.144913
H	0.8370086482529702 0.6006734138548120 0.7718893424190370	0.150233
H	0.9560211775633506 0.6059392441014345 0.8615057972137861	0.130957
H	0.9752356647397761 0.8365185299733222 0.7748294940339406	0.273917
N	0.8365100386593370 0.0973125719449040 0.7994446845892089	-0.145270
N	0.6023021198354005 0.3959052187691834 0.0515256634934464	-0.275453
N	0.8949243523987376 0.1102049248961532 0.9393210285601865	-0.278783
N	0.5727565941235675 0.3213463548203385 0.1426678307571204	-0.142640
N	0.3365100386593370 0.5973124949449080 0.7994446845892089	-0.145270
N	0.1023021868354025 0.8959052187691835 0.0515256634934464	-0.275455
N	0.3949243863987406 0.6102049758961541 0.9393210285601865	-0.278790
N	0.0727565861235664 0.8213463198203389 0.1426678307571204	-0.142640
N	0.1634899433406614 0.0973125719449040 0.2005553634107883	-0.145271
N	0.3976977741645980 0.3959052187691834 0.9484743125065519	-0.275443
N	0.1050756176012598 0.1102049248961532 0.0606789514398119	-0.278783
N	0.4272434028764362 0.3213463548203385 0.8573321852428805	-0.142687
N	0.6634899603406593 0.5973124949449080 0.2005553634107883	-0.145271
N	0.8976978751646026 0.8959052187691835 0.9484743125065519	-0.275444
N	0.6050756426012656 0.6102049758961541 0.0606789514398119	-0.278789
N	0.9272434368764315 0.8213463198203389 0.8573321852428805	-0.142686
Ge	0.4999999979999998 0.4685527063727806 0.5000000000000000	1.741650
Ge	-0.0000000000000000 0.9685527063727805 0.5000000000000000	1.741650
Co	0.5000000000000000 0.5079181577123268 -0.0000000000000000	0.872758
Co	-0.0000000000000000 0.0079181647123314 -0.0000000000000000	0.872752
	  	
