#======================================================================

# CRYSTAL DATA

#----------------------------------------------------------------------

data_VESTA_phase_1


_pd_phase_name                         GeFSIX_15_Cu_i
_cell_length_a                         29.59203
_cell_length_b                         28.68169
_cell_length_c                         8.19983
_cell_angle_alpha                      90
_cell_angle_beta                       90
_cell_angle_gamma                      90
_symmetry_space_group_name_H-M         P 1
_symmetry_Int_Tables_number            1

loop_
_symmetry_equiv_pos_as_xyz
   x, y, z

loop_
   _atom_site_label
   _atom_site_fract_x
   _atom_site_fract_y
   _atom_site_fract_z
   _atom_site_charge
C	0.9352830223666539 0.1045739419915066 0.8919919181075656	0.103183
C	0.9029305489664928 0.0696006599113289 0.8972479933556675	-0.160582
C	0.7701659373331964 0.9364294010379919 0.8987080393708372	-0.114449
C	0.7356148844848035 0.9038335926990053 0.8984845496448932	-0.115288
C	0.5662545661272590 0.7396045613168500 0.8918585896826795	0.100971
C	0.6001861162244402 0.7729399415812670 0.8969053452917529	-0.164065
C	0.4352830543666496 0.6045739579915079 0.8919919181075656	0.103191
C	0.4029305809664952 0.5696006229113295 0.8972479933556674	-0.160583
C	0.2701658733331983 0.4364294340379912 0.8987080393708372	-0.114449
C	0.2356148524848010 0.4038336586990104 0.8984845496448932	-0.115287
C	0.0662545901272612 0.2396045443168520 0.8918585896826795	0.100971
C	0.1001860922244384 0.2729399745812663 0.8969053452917529	-0.164064
C	0.0647169456333504 0.8954260420084921 0.3919919491075645	0.103191
C	0.0970694270335054 0.9303993770886705 0.3972480253556628	-0.160583
C	0.2298340786668048 0.0635705619620085 0.3987081013708350	-0.114448
C	0.2643851315151979 0.0961663573009909 0.3984845496448940	-0.115288
C	0.4337454018727381 0.2603954886831469 0.3918586206826783	0.100971
C	0.3998138837755597 0.2270600254187337 0.3969053452917533	-0.164064
C	0.5647169776333461 0.3954260750084913 0.3919919491075644	0.103191
C	0.5970694510335072 0.4303993770886708 0.3972480253556628	-0.160584
C	0.7298340626668036 0.5635705989620081 0.3987081013708350	-0.114448
C	0.7643851155151965 0.5961664073009947 0.3984845496448940	-0.115288
C	0.9337454338727410 0.7603954386831500 0.3918586206826783	0.100971
C	0.8998138837755598 0.7270600584187330 0.3969053452917533	-0.164064
C	0.0647169456333504 0.1045739419915066 0.6080080508924354	0.103183
C	0.0970694270335054 0.0696006599113289 0.6027519126443318	-0.160582
C	0.2298340786668048 0.9364294010379919 0.6012919296291638	-0.114449
C	0.2643851315151979 0.9038335926990053 0.6015154813551058	-0.115288
C	0.4337454018727381 0.7396045613168500 0.6081413163173198	0.100971
C	0.3998138837755597 0.7729399415812670 0.6030946237082481	-0.164065
C	0.5647169776333461 0.6045739579915079 0.6080080508924354	0.103191
C	0.5970694510335072 0.5696006229113295 0.6027519126443318	-0.160583
C	0.7298340626668036 0.4364294340379912 0.6012919296291638	-0.114449
C	0.7643851155151965 0.4038336586990104 0.6015154813551058	-0.115286
C	0.9337454338727410 0.2396045443168520 0.6081413163173198	0.100971
C	0.8998138837755598 0.2729399745812663 0.6030946237082481	-0.164064
C	0.9352830223666539 0.8954260420084921 0.1080080668924368	0.103191
C	0.9029305489664928 0.9303993770886705 0.1027519516443317	-0.160584
C	0.7701659373331964 0.0635705619620085 0.1012919296291640	-0.114448
C	0.7356148844848035 0.0961663573009909 0.1015154663551003	-0.115288
C	0.5662545661272590 0.2603954886831469 0.1081413713173211	0.100971
C	0.6001861162244402 0.2270600254187337 0.1030946697082444	-0.164064
C	0.4352830543666496 0.3954260750084913 0.1080080668924368	0.103191
C	0.4029305809664952 0.4303993770886708 0.1027519516443316	-0.160584
C	0.2701658733331983 0.5635705989620081 0.1012919296291640	-0.114448
C	0.2356148524848010 0.5961664073009947 0.1015154663551003	-0.115288
C	0.0662545901272612 0.7603954386831500 0.1081413713173211	0.100971
C	0.1001860922244384 0.7270600584187330 0.1030946697082444	-0.164064
C	0.0647169456333504 0.8954260420084921 0.1080080668924368	0.103191
C	0.0970694270335054 0.9303993770886705 0.1027519516443317	-0.160583
C	0.2298340786668048 0.0635705619620085 0.1012919296291640	-0.114448
C	0.2643851315151979 0.0961663573009909 0.1015154663551003	-0.115289
C	0.4337454018727381 0.2603954886831469 0.1081413713173211	0.100971
C	0.3998138837755597 0.2270600254187337 0.1030946697082444	-0.164065
C	0.5647169776333461 0.3954260750084913 0.1080080668924368	0.103191
C	0.5970694510335072 0.4303993770886708 0.1027519516443317	-0.160584
C	0.7298340626668036 0.5635705989620081 0.1012919296291640	-0.114448
C	0.7643851155151965 0.5961664073009947 0.1015154663551003	-0.115289
C	0.9337454338727410 0.7603954386831500 0.1081413713173211	0.100971
C	0.8998138837755598 0.7270600584187330 0.1030946697082444	-0.164065
C	0.9352830223666539 0.1045739419915066 0.6080080508924354	0.103183
C	0.9029305489664928 0.0696006599113289 0.6027519126443318	-0.160582
C	0.7701659373331964 0.9364294010379919 0.6012919296291638	-0.114449
C	0.7356148844848035 0.9038335926990053 0.6015154813551058	-0.115288
C	0.5662545661272590 0.7396045613168500 0.6081413163173198	0.100971
C	0.6001861162244402 0.7729399415812670 0.6030946237082481	-0.164065
C	0.4352830543666496 0.6045739579915079 0.6080080508924354	0.103191
C	0.4029305809664952 0.5696006229113295 0.6027519126443318	-0.160583
C	0.2701658733331983 0.4364294340379912 0.6012919296291638	-0.114449
C	0.2356148524848010 0.4038336586990104 0.6015154813551058	-0.115287
C	0.0662545901272612 0.2396045443168520 0.6081413163173198	0.100971
C	0.1001860922244384 0.2729399745812663 0.6030946237082481	-0.164065
C	0.9352830223666539 0.8954260420084921 0.3919919491075644	0.103191
C	0.9029305489664928 0.9303993770886705 0.3972480253556628	-0.160584
C	0.7701659373331964 0.0635705619620085 0.3987081013708350	-0.114448
C	0.7356148844848035 0.0961663573009909 0.3984845496448940	-0.115289
C	0.5662545661272590 0.2603954886831469 0.3918586206826783	0.100971
C	0.6001861162244402 0.2270600254187337 0.3969053452917533	-0.164065
C	0.4352830543666496 0.3954260750084913 0.3919919491075644	0.103191
C	0.4029305809664952 0.4303993770886708 0.3972480253556628	-0.160584
C	0.2701658733331983 0.5635705989620081 0.3987081013708350	-0.114448
C	0.2356148524848010 0.5961664073009947 0.3984845496448940	-0.115289
C	0.0662545901272612 0.7603954386831500 0.3918586206826783	0.100971
C	0.1001860922244384 0.7270600584187330 0.3969053452917533	-0.164065
C	0.0647169456333504 0.1045739419915066 0.8919919181075656	0.103183
C	0.0970694270335054 0.0696006599113289 0.8972479933556675	-0.160582
C	0.2298340786668048 0.9364294010379919 0.8987080393708372	-0.114449
C	0.2643851315151979 0.9038335926990053 0.8984845496448932	-0.115288
C	0.4337454018727381 0.7396045613168500 0.8918585896826795	0.100971
C	0.3998138837755597 0.7729399415812670 0.8969053452917529	-0.164065
C	0.5647169776333461 0.6045739579915079 0.8919919181075656	0.103191
C	0.5970694510335072 0.5696006229113295 0.8972479933556675	-0.160584
C	0.7298340626668036 0.4364294340379912 0.8987080393708372	-0.114449
C	0.7643851155151965 0.4038336586990104 0.8984845496448932	-0.115287
C	0.9337454338727410 0.2396045443168520 0.8918585896826795	0.100971
C	0.8998138837755598 0.2729399745812663 0.8969053452917529	-0.164065
C	0.6525680693213889 0.8245463945182003 0.7500000160000013	-0.104659
C	0.8859254960569856 0.0514061701166606 0.7500000160000013	0.163148
C	0.8227269574452091 0.9868146585837115 0.7500000160000013	-0.098521
C	0.6180156620146304 0.7905571767111610 0.7500000160000013	0.168074
C	0.7879109700045944 0.9532276767491681 0.7500000160000013	0.128186
C	0.7177332229919134 0.8869959551583411 0.7500000160000013	0.138037
C	0.6826542255035116 0.8536595322542150 0.7500000160000013	-0.096686
C	0.8523864967479073 0.0163958381332489 0.7500000160000013	-0.105363
C	0.1525680533213877 0.3245463945181999 0.7500000160000013	-0.104649
C	0.3859254000569841 0.5514061821166615 0.7500000160000013	0.163147
C	0.3227269574452089 0.4868146585837121 0.7500000160000013	-0.098521
C	0.1180156540146295 0.2905571767111610 0.7500000160000013	0.168074
C	0.2879109380045990 0.4532276767491681 0.7500000160000013	0.128187
C	0.2177332069919121 0.3869959881583406 0.7500000160000013	0.138025
C	0.1826541925035122 0.3536594992542159 0.7500000160000013	-0.096685
C	0.3523864647479048 0.5163958331332449 0.7500000160000013	-0.105363
C	0.3474319626786134 0.1754536054817999 0.2500000000000000	-0.104659
C	0.1140745759430209 0.9485938178833385 0.2500000000000000	0.163147
C	0.1772730425547911 0.0131853374162876 0.2500000000000000	-0.098521
C	0.3819843379853698 0.2094428072888376 0.2500000000000000	0.168073
C	0.2120890459954070 0.0467723152508312 0.2500000000000000	0.128186
C	0.2822667770080866 0.1130040038416588 0.2500000000000000	0.138037
C	0.3173458074964877 0.1463404677457850 0.2500000000000000	-0.096685
C	0.1476135352520951 0.9836041338667559 0.2500000000000000	-0.105364
C	0.8474319306786111 0.6754536054817997 0.2500000000000000	-0.104659
C	0.6140745039430144 0.4485938508833376 0.2500000000000000	0.163147
C	0.6772730425547909 0.5131853414162885 0.2500000000000000	-0.098521
C	0.8819843379853696 0.7094428232888390 0.2500000000000000	0.168074
C	0.7120890299954056 0.5467723562508311 0.2500000000000000	0.128186
C	0.7822667770080866 0.6130040448416589 0.2500000000000000	0.138037
C	0.8173457744964884 0.6463404677457850 0.2500000000000000	-0.096686
C	0.6476135032520927 0.4836041338667559 0.2500000000000000	-0.105364
C	0.3474319626786134 0.8245463945182003 0.7500000160000013	-0.104660
C	0.1140745759430209 0.0514061701166606 0.7500000160000013	0.163148
C	0.1772730425547911 0.9868146585837115 0.7500000160000013	-0.098521
C	0.3819843379853698 0.7905571767111610 0.7500000160000013	0.168074
C	0.2120890459954070 0.9532276767491681 0.7500000160000013	0.128187
C	0.2822667770080866 0.8869959551583411 0.7500000160000013	0.138037
C	0.3173458074964877 0.8536595322542150 0.7500000160000013	-0.096685
C	0.1476135352520951 0.0163958381332489 0.7500000160000013	-0.105364
C	0.8474319306786111 0.3245463945181999 0.7500000160000013	-0.104649
C	0.6140745039430144 0.5514061821166615 0.7500000160000013	0.163147
C	0.6772730425547909 0.4868146585837121 0.7500000160000013	-0.098521
C	0.8819843379853696 0.2905571767111610 0.7500000160000013	0.168073
C	0.7120890299954056 0.4532276767491681 0.7500000160000013	0.128187
C	0.7822667770080866 0.3869959881583406 0.7500000160000013	0.138025
C	0.8173457744964884 0.3536594992542159 0.7500000160000013	-0.096685
C	0.6476135032520927 0.5163958331332449 0.7500000160000013	-0.105363
C	0.6525680693213889 0.1754536054817999 0.2500000000000000	-0.104659
C	0.8859254960569856 0.9485938178833385 0.2500000000000000	0.163147
C	0.8227269574452091 0.0131853374162876 0.2500000000000000	-0.098521
C	0.6180156620146304 0.2094428072888376 0.2500000000000000	0.168073
C	0.7879109700045944 0.0467723152508312 0.2500000000000000	0.128186
C	0.7177332229919134 0.1130040038416588 0.2500000000000000	0.138037
C	0.6826542255035116 0.1463404677457850 0.2500000000000000	-0.096686
C	0.8523864967479073 0.9836041338667559 0.2500000000000000	-0.105364
C	0.1525680533213877 0.6754536054817997 0.2500000000000000	-0.104659
C	0.3859254000569841 0.4485938508833376 0.2500000000000000	0.163148
C	0.3227269574452089 0.5131853414162885 0.2500000000000000	-0.098521
C	0.1180156540146295 0.7094428232888390 0.2500000000000000	0.168074
C	0.2879109380045990 0.5467723562508311 0.2500000000000000	0.128186
C	0.2177332069919121 0.6130040448416589 0.2500000000000000	0.138038
C	0.1826541925035122 0.6463404677457850 0.2500000000000000	-0.096686
C	0.3523864647479048 0.4836041338667559 0.2500000000000000	-0.105364
H	0.9489818418525965 0.1193814989495532 0.0037071730888308	0.101408
H	0.8910136549180858 0.0566699737173570 0.0145505995874943	0.123761
H	0.7840139866746462 0.9494494974162275 0.0131944393185550	0.105742
H	0.7218686472480523 0.8907979913762287 0.0129439729181440	0.115227
H	0.5519644911303708 0.7254586346650631 0.0036767177317858	0.100988
H	0.6127305043772827 0.7850592090659250 0.0142962295379861	0.128407
H	0.4489819378525975 0.6193815149495543 0.0037071730888308	0.101397
H	0.3910135909180878 0.5566700027173631 0.0145505995874943	0.123760
H	0.2840139866746457 0.4494494974162273 0.0131944393185550	0.105742
H	0.2218686632480539 0.3907980903762334 0.0129439729181440	0.115226
H	0.0519644991303716 0.2254586836650635 0.0036767177317858	0.100988
H	0.1127305203772772 0.2850591430659267 0.0142962295379861	0.128407
H	0.0510180981473984 0.8806184850504457 0.5037072020888299	0.101397
H	0.1089863930819109 0.9433299972826369 0.5145506345874936	0.123761
H	0.2159860453253568 0.0505505195837777 0.5131944713185577	0.105742
H	0.2781313527519476 0.1092019346237722 0.5129439689181435	0.115227
H	0.4480355088696291 0.2745412993349386 0.5036767177317858	0.100989
H	0.3872694956227172 0.2149408079340727 0.5142962605379852	0.128407
H	0.5510181581474035 0.3806184850504455 0.5037072020888299	0.101395
H	0.6089863450819142 0.4433300302826433 0.5145506345874936	0.123761
H	0.7159860133253538 0.5505505025837725 0.5131944713185577	0.105742
H	0.7781313527519477 0.6092020086237713 0.5129439689181435	0.115227
H	0.9480355088696292 0.7745413653349369 0.5036767177317858	0.100987
H	0.8872694956227172 0.7149407909340750 0.5142962605379852	0.128407
H	0.0510180981473984 0.1193814989495532 0.4962928289111694	0.101408
H	0.1089863930819109 0.0566699737173570 0.4854493654124993	0.123761
H	0.2159860453253568 0.9494494974162275 0.4868055606814450	0.105742
H	0.2781313527519476 0.8907979913762287 0.4870560310818564	0.115227
H	0.4480355088696291 0.7254586346650631 0.4963233142682169	0.100988
H	0.3872694956227172 0.7850592090659250 0.4857037704620140	0.128407
H	0.5510181581474035 0.6193815149495543 0.4962928289111694	0.101397
H	0.6089863450819142 0.5566700027173631 0.4854493654124993	0.123761
H	0.7159860133253538 0.4494494974162273 0.4868055606814450	0.105742
H	0.7781313527519477 0.3907980903762334 0.4870560310818564	0.115227
H	0.9480355088696292 0.2254586836650635 0.4963233142682169	0.100988
H	0.8872694956227172 0.2850591430659267 0.4857037704620140	0.128407
H	0.9489818418525965 0.8806184850504457 0.9962928289111691	0.101397
H	0.8910136549180858 0.9433299972826369 0.9854493344125003	0.123761
H	0.7840139866746462 0.0505505195837777 0.9868055606814450	0.105742
H	0.7218686472480523 0.1092019346237722 0.9870560000818503	0.115227
H	0.5519644911303708 0.2745412993349386 0.9963232822682142	0.100989
H	0.6127305043772828 0.2149408079340727 0.9857037704620139	0.128407
H	0.4489819378525975 0.3806184850504455 0.9962928289111691	0.101395
H	0.3910135909180878 0.4433300302826433 0.9854493344125003	0.123761
H	0.2840139866746457 0.5505505025837725 0.9868055606814450	0.105742
H	0.2218686632480539 0.6092020086237713 0.9870560000818503	0.115227
H	0.0519644991303716 0.7745413653349369 0.9963232822682142	0.100988
H	0.1127305203772772 0.7149407909340750 0.9857037704620139	0.128407
H	0.0510180981473984 0.8806184850504457 0.9962928289111691	0.101397
H	0.1089863930819109 0.9433299972826369 0.9854493344125003	0.123761
H	0.2159860453253568 0.0505505195837777 0.9868055606814450	0.105742
H	0.2781313527519476 0.1092019346237722 0.9870560000818503	0.115229
H	0.4480355088696291 0.2745412993349386 0.9963232822682142	0.100989
H	0.3872694956227172 0.2149408079340727 0.9857037704620139	0.128407
H	0.5510181581474035 0.3806184850504455 0.9962928289111691	0.101396
H	0.6089863450819142 0.4433300302826433 0.9854493344125003	0.123761
H	0.7159860133253538 0.5505505025837725 0.9868055606814450	0.105742
H	0.7781313527519477 0.6092020086237713 0.9870560000818503	0.115229
H	0.9480355088696292 0.7745413653349369 0.9963232822682142	0.100988
H	0.8872694956227172 0.7149407909340750 0.9857037704620139	0.128407
H	0.9489818418525965 0.1193814989495532 0.4962928289111694	0.101408
H	0.8910136549180858 0.0566699737173570 0.4854493654124993	0.123761
H	0.7840139866746462 0.9494494974162275 0.4868055606814450	0.105742
H	0.7218686472480523 0.8907979913762287 0.4870560310818564	0.115229
H	0.5519644911303708 0.7254586346650631 0.4963233142682169	0.100988
H	0.6127305043772828 0.7850592090659250 0.4857037704620140	0.128407
H	0.4489819378525975 0.6193815149495543 0.4962928289111694	0.101397
H	0.3910135909180878 0.5566700027173631 0.4854493654124993	0.123760
H	0.2840139866746457 0.4494494974162273 0.4868055606814450	0.105743
H	0.2218686632480539 0.3907980903762334 0.4870560310818564	0.115228
H	0.0519644991303716 0.2254586836650635 0.4963233142682169	0.100988
H	0.1127305203772772 0.2850591430659267 0.4857037704620140	0.128407
H	0.9489818418525965 0.8806184850504457 0.5037072020888299	0.101397
H	0.8910136549180858 0.9433299972826369 0.5145506345874936	0.123761
H	0.7840139866746462 0.0505505195837777 0.5131944713185577	0.105742
H	0.7218686472480523 0.1092019346237722 0.5129439689181435	0.115229
H	0.5519644911303708 0.2745412993349386 0.5036767177317858	0.100989
H	0.6127305043772828 0.2149408079340727 0.5142962605379852	0.128406
H	0.4489819378525975 0.3806184850504455 0.5037072020888299	0.101395
H	0.3910135909180878 0.4433300302826433 0.5145506345874936	0.123761
H	0.2840139866746457 0.5505505025837725 0.5131944713185577	0.105742
H	0.2218686632480539 0.6092020086237713 0.5129439689181435	0.115229
H	0.0519644991303716 0.7745413653349369 0.5036767177317858	0.100988
H	0.1127305203772772 0.7149407909340750 0.5142962605379852	0.128407
H	0.0510180981473984 0.1193814989495532 0.0037071730888308	0.101408
H	0.1089863930819109 0.0566699737173570 0.0145505995874943	0.123761
H	0.2159860453253568 0.9494494974162275 0.0131944393185550	0.105742
H	0.2781313527519476 0.8907979913762287 0.0129439729181440	0.115229
H	0.4480355088696291 0.7254586346650631 0.0036767177317858	0.100988
H	0.3872694956227172 0.7850592090659250 0.0142962295379861	0.128407
H	0.5510181581474035 0.6193815149495543 0.0037071730888308	0.101397
H	0.6089863450819142 0.5566700027173631 0.0145505995874943	0.123760
H	0.7159860133253538 0.4494494974162273 0.0131944393185550	0.105742
H	0.7781313527519477 0.3907980903762334 0.0129439729181440	0.115228
H	0.9480355088696292 0.2254586836650635 0.0036767177317858	0.100988
H	0.8872694956227172 0.2850591430659267 0.0142962295379861	0.128407
Cu	0.5000000000000000 0.6728522803731232 0.7500000160000013	0.709802
Cu	-0.0000000000000000 0.1728522973731210 0.7500000160000013	0.709805
Cu	0.5000000000000000 0.3271477196268767 0.2500000000000000	0.709800
Cu	-0.0000000000000000 0.8271477196268768 0.2500000000000000	0.709802
Ge	0.5000000000000000 0.6728415199535904 0.2500000000000000	1.764633
Ge	-0.0000000000000000 0.1728415199535904 0.2500000000000000	1.764633
Ge	0.5000000000000000 0.3271585120464122 0.7500000160000013	1.764651
Ge	-0.0000000000000000 0.8271584800464096 0.7500000160000013	1.764633
F	0.5000000000000000 0.7363901643043468 0.2500000000000000	-0.551172
F	0.5000000000000000 0.6092598059221004 0.2500000000000000	-0.547810
F	-0.0000000000000000 0.2363901153043463 0.2500000000000000	-0.551170
F	-0.0000000000000000 0.1092597899220987 0.2500000000000000	-0.547808
F	0.5000000000000000 0.2636098846956536 0.7500000160000013	-0.551237
F	0.5000000000000000 0.3907401610779008 0.7500000160000013	-0.547758
F	-0.0000000000000000 0.7636098356956532 0.7500000160000013	-0.551171
F	-0.0000000000000000 0.8907401940778996 0.7500000160000013	-0.547810
F	0.5616659865882986 0.6728404201583855 0.2500000000000000	-0.551096
F	0.0616660065883003 0.1728404531583850 0.2500000000000000	-0.551097
F	0.4383339814116987 0.3271595138416157 0.7500000160000013	-0.551094
F	0.9383340134117014 0.8271595798416145 0.7500000160000013	-0.551096
F	0.4383339814116987 0.6728404201583855 0.2500000000000000	-0.551096
F	0.9383340134117014 0.1728404531583850 0.2500000000000000	-0.551097
F	0.5616659865882986 0.3271595138416157 0.7500000160000013	-0.551094
F	0.0616660065883003 0.8271595798416145 0.7500000160000013	-0.551096
F	0.5000000000000000 0.6728502464758682 0.4767280292653949	-0.533930
F	-0.0000000000000000 0.1728502634758660 0.4767280292653949	-0.533941
F	0.5000000000000000 0.3271497865241311 0.9767280292653948	-0.533934
F	-0.0000000000000000 0.8271497535241318 0.9767280292653948	-0.533931
F	0.5000000000000000 0.6728502464758682 0.0232719667346048	-0.533930
F	-0.0000000000000000 0.1728502634758660 0.0232719667346048	-0.533941
F	0.5000000000000000 0.3271497865241311 0.5232719387346096	-0.533934
F	-0.0000000000000000 0.8271497535241318 0.5232719387346096	-0.533930
N	0.5494357062579298 0.7231281722326026 0.7500000160000013	-0.223902
N	0.9512285806194365 0.1218496514622594 0.7500000160000013	-0.221618
N	0.0494356702579272 0.2231281562326014 0.7500000160000013	-0.223902
N	0.4512285806194365 0.6218496354622582 0.7500000160000013	-0.221613
N	0.4505643577420680 0.2768718277673973 0.2500000000000000	-0.223903
N	0.0487714273805641 0.8781503645377418 0.2500000000000000	-0.221613
N	0.9505642937420702 0.7768718277673974 0.2500000000000000	-0.223902
N	0.5487714193805635 0.3781503645377420 0.2500000000000000	-0.221612
N	0.4505643577420680 0.7231281722326026 0.7500000160000013	-0.223902
N	0.0487714273805641 0.1218496514622594 0.7500000160000013	-0.221618
N	0.9505642937420702 0.2231281562326014 0.7500000160000013	-0.223902
N	0.5487714193805635 0.6218496354622582 0.7500000160000013	-0.221612
N	0.5494357062579298 0.2768718277673973 0.2500000000000000	-0.223902
N	0.9512285806194365 0.8781503645377418 0.2500000000000000	-0.221613
N	0.0494356702579272 0.7768718277673974 0.2500000000000000	-0.223902
N	0.4512285806194365 0.3781503645377420 0.2500000000000000	-0.221612
	  	
