#======================================================================

# CRYSTAL DATA

#----------------------------------------------------------------------

data_VESTA_phase_1


_pd_phase_name                         GeFSIX_15_Fe_i
_cell_length_a                         30.00804
_cell_length_b                         29.23211
_cell_length_c                         7.88262
_cell_angle_alpha                      90
_cell_angle_beta                       90
_cell_angle_gamma                      90
_symmetry_space_group_name_H-M         P 1
_symmetry_Int_Tables_number            1

loop_
_symmetry_equiv_pos_as_xyz
   x, y, z

loop_
   _atom_site_label
   _atom_site_fract_x
   _atom_site_fract_y
   _atom_site_fract_z
   _atom_site_charge
C	0.9323317187790550 0.1016408854827930 0.8970485982497250	0.106497
C	0.9006129899554417 0.0671515961109252 0.9030505900311440	-0.166161
C	0.7697984028501497 0.9362724633519270 0.9047493265445398	-0.115813
C	0.7357692775594740 0.9042541915297424 0.9045047399281880	-0.116112
C	0.5691203078737199 0.7426189449131240 0.8969086417497821	0.103001
C	0.6026681978505950 0.7752376740982159 0.9026777330437554	-0.167796
C	0.4323317507790505 0.6016409014827940 0.8970485982497250	0.106497
C	0.4006130219554447 0.5671515591109257 0.9030505900311440	-0.166160
C	0.2697983388501518 0.4362724963519261 0.9047493265445398	-0.115814
C	0.2357692455594713 0.4042542575297479 0.9045047399281880	-0.116112
C	0.0691203318737216 0.2426189279131261 0.8969086417497821	0.103001
C	0.1026681738505930 0.2752377070982149 0.9026777330437554	-0.167796
C	0.0676682492209496 0.8983590985172060 0.3970486292497241	0.106497
C	0.0993869860445560 0.9328484408890743 0.4030506220311396	-0.166161
C	0.2302016131498514 0.0637274996480734 0.4047493885445375	-0.115821
C	0.2642307384405275 0.0957457584702534 0.4045047399281878	-0.116264
C	0.4308796601262779 0.2573811050868731 0.3969086727497809	0.103001
C	0.3973318021494051 0.2247622929017852 0.4026777330437553	-0.167795
C	0.5676682812209450 0.3983591315172046 0.3970486292497241	0.106497
C	0.5993870100445583 0.4328484408890742 0.4030506220311396	-0.166161
C	0.7302015971498503 0.5637275366480730 0.4047493885445375	-0.115813
C	0.7642307224405260 0.5957458084702576 0.4045047399281878	-0.116113
C	0.9308796921262801 0.7573810550868760 0.3969086727497809	0.103001
C	0.8973318021494050 0.7247623259017841 0.4026777330437553	-0.167795
C	0.0676682492209496 0.1016408854827930 0.6029513707502759	0.106497
C	0.0993869860445560 0.0671515961109252 0.5969493159688554	-0.166161
C	0.2302016131498514 0.9362724633519270 0.5952506424554612	-0.115813
C	0.2642307384405275 0.9042541915297424 0.5954952910718110	-0.116112
C	0.4308796601262779 0.7426189449131240 0.6030912642502172	0.103002
C	0.3973318021494051 0.7752376740982159 0.5973222359562456	-0.167796
C	0.5676682812209450 0.6016409014827940 0.6029513707502759	0.106497
C	0.5993870100445583 0.5671515591109257 0.5969493159688554	-0.166161
C	0.7302015971498503 0.4362724963519261 0.5952506424554612	-0.115814
C	0.7642307224405260 0.4042542575297479 0.5954952910718110	-0.116112
C	0.9308796921262801 0.2426189279131261 0.6030912642502172	0.103002
C	0.8973318021494050 0.2752377070982149 0.5973222359562456	-0.167796
C	0.9323317187790550 0.8983590985172060 0.1029513867502772	0.106497
C	0.9006129899554417 0.9328484408890743 0.0969493549688549	-0.166161
C	0.7697984028501497 0.0637274996480734 0.0952506424554615	-0.115821
C	0.7357692775594740 0.0957457584702534 0.0954952760718065	-0.116263
C	0.5691203078737199 0.2573811050868731 0.1030913192502185	0.103001
C	0.6026681978505950 0.2247622929017852 0.0973222819562422	-0.167795
C	0.4323317507790505 0.3983591315172046 0.1029513867502772	0.106497
C	0.4006130219554447 0.4328484408890742 0.0969493549688549	-0.166161
C	0.2697983388501518 0.5637275366480730 0.0952506424554615	-0.115813
C	0.2357692455594713 0.5957458084702576 0.0954952760718065	-0.116113
C	0.0691203318737216 0.7573810550868760 0.1030913192502185	0.103001
C	0.1026681738505930 0.7247623259017841 0.0973222819562422	-0.167795
C	0.0676682492209496 0.8983590985172060 0.1029513867502772	0.106497
C	0.0993869860445560 0.9328484408890743 0.0969493549688549	-0.166161
C	0.2302016131498514 0.0637274996480734 0.0952506424554615	-0.115821
C	0.2642307384405275 0.0957457584702534 0.0954952760718065	-0.116264
C	0.4308796601262779 0.2573811050868731 0.1030913192502185	0.103001
C	0.3973318021494051 0.2247622929017852 0.0973222819562422	-0.167795
C	0.5676682812209450 0.3983591315172046 0.1029513867502772	0.106498
C	0.5993870100445583 0.4328484408890742 0.0969493549688549	-0.166161
C	0.7302015971498503 0.5637275366480730 0.0952506424554615	-0.115813
C	0.7642307224405260 0.5957458084702576 0.0954952760718065	-0.116113
C	0.9308796921262801 0.7573810550868760 0.1030913192502185	0.103001
C	0.8973318021494050 0.7247623259017841 0.0973222819562422	-0.167795
C	0.9323317187790550 0.1016408854827930 0.6029513707502759	0.106497
C	0.9006129899554417 0.0671515961109252 0.5969493159688554	-0.166161
C	0.7697984028501497 0.9362724633519270 0.5952506424554612	-0.115813
C	0.7357692775594740 0.9042541915297424 0.5954952910718110	-0.116113
C	0.5691203078737199 0.7426189449131240 0.6030912642502172	0.103002
C	0.6026681978505950 0.7752376740982159 0.5973222359562456	-0.167796
C	0.4323317507790505 0.6016409014827940 0.6029513707502759	0.106497
C	0.4006130219554447 0.5671515591109257 0.5969493159688554	-0.166160
C	0.2697983388501518 0.4362724963519261 0.5952506424554612	-0.115814
C	0.2357692455594713 0.4042542575297479 0.5954952910718110	-0.116113
C	0.0691203318737216 0.2426189279131261 0.6030912642502172	0.103002
C	0.1026681738505930 0.2752377070982149 0.5973222359562456	-0.167796
C	0.9323317187790550 0.8983590985172060 0.3970486292497241	0.106497
C	0.9006129899554417 0.9328484408890743 0.4030506220311396	-0.166161
C	0.7697984028501497 0.0637274996480734 0.4047493885445375	-0.115821
C	0.7357692775594740 0.0957457584702534 0.4045047399281878	-0.116264
C	0.5691203078737199 0.2573811050868731 0.3969086727497809	0.103001
C	0.6026681978505950 0.2247622929017852 0.4026777330437553	-0.167795
C	0.4323317507790505 0.3983591315172046 0.3970486292497241	0.106497
C	0.4006130219554447 0.4328484408890742 0.4030506220311396	-0.166161
C	0.2697983388501518 0.5637275366480730 0.4047493885445375	-0.115813
C	0.2357692455594713 0.5957458084702576 0.4045047399281878	-0.116113
C	0.0691203318737216 0.7573810550868760 0.3969086727497809	0.103001
C	0.1026681738505930 0.7247623259017841 0.4026777330437553	-0.167795
C	0.0676682492209496 0.1016408854827930 0.8970485982497250	0.106497
C	0.0993869860445560 0.0671515961109252 0.9030505900311440	-0.166161
C	0.2302016131498514 0.9362724633519270 0.9047493265445398	-0.115813
C	0.2642307384405275 0.9042541915297424 0.9045047399281880	-0.116112
C	0.4308796601262779 0.7426189449131240 0.8969086417497821	0.103001
C	0.3973318021494051 0.7752376740982159 0.9026777330437554	-0.167796
C	0.5676682812209450 0.6016409014827940 0.8970485982497250	0.106497
C	0.5993870100445583 0.5671515591109257 0.9030505900311440	-0.166161
C	0.7302015971498503 0.4362724963519261 0.9047493265445398	-0.115814
C	0.7642307224405260 0.4042542575297479 0.9045047399281880	-0.116112
C	0.9308796921262801 0.2426189279131261 0.8969086417497821	0.103002
C	0.8973318021494050 0.2752377070982149 0.9026777330437554	-0.167796
C	0.6544483665861874 0.8257673887926296 0.7500000160000013	-0.104036
C	0.8838929634180045 0.0491780784323870 0.7500000160000013	0.160224
C	0.8217172768006248 0.9856737021604650 0.7500000160000013	-0.099259
C	0.6203667065682388 0.7924711431500627 0.7500000160000013	0.166246
C	0.7873502397474383 0.9527376328706911 0.7500000160000013	0.124889
C	0.7182111551276182 0.8875781080621811 0.7500000160000013	0.137714
C	0.6838901028785984 0.8545717111489166 0.7500000160000013	-0.103129
C	0.8509360889705623 0.0147175296584557 0.7500000160000013	-0.106483
C	0.1544483505861858 0.3257673887926291 0.7500000160000013	-0.104037
C	0.3838928674180042 0.5491780904323877 0.7500000160000013	0.160224
C	0.3217172768006248 0.4856737021604649 0.7500000160000013	-0.099257
C	0.1203666985682380 0.2924711431500636 0.7500000160000013	0.166246
C	0.2873502077474426 0.4527376328706914 0.7500000160000013	0.124889
C	0.2182111391276167 0.3875781410621807 0.7500000160000013	0.137714
C	0.1838900698785994 0.3545716781489174 0.7500000160000013	-0.103129
C	0.3509360569705601 0.5147175246584519 0.7500000160000013	-0.106482
C	0.3455516654138154 0.1742326112073706 0.2500000000000000	-0.104038
C	0.1161071085820010 0.9508219095676123 0.2500000000000000	0.160223
C	0.1782827231993751 0.0143262938395348 0.2500000000000000	-0.099291
C	0.3796332934317612 0.2075288408499352 0.2500000000000000	0.166245
C	0.2126497762525631 0.0472623591293081 0.2500000000000000	0.125028
C	0.2817888448723820 0.1124218509378188 0.2500000000000000	0.137787
C	0.3161099301214006 0.1454282888510835 0.2500000000000000	-0.103132
C	0.1490639430294401 0.9852824423415489 0.2500000000000000	-0.106470
C	0.8455516334138126 0.6742326112073704 0.2500000000000000	-0.104036
C	0.6161070365819955 0.4508219425676111 0.2500000000000000	0.160224
C	0.6782827231993752 0.5143262978395350 0.2500000000000000	-0.099257
C	0.8796332934317612 0.7075288568499373 0.2500000000000000	0.166245
C	0.7126497602525617 0.5472624001293080 0.2500000000000000	0.124888
C	0.7817888448723818 0.6124218919378189 0.2500000000000000	0.137714
C	0.8161098971214016 0.6454282888510834 0.2500000000000000	-0.103129
C	0.6490639110294377 0.4852824423415490 0.2500000000000000	-0.106483
C	0.3455516654138154 0.8257673887926296 0.7500000160000013	-0.104037
C	0.1161071085820010 0.0491780784323870 0.7500000160000013	0.160224
C	0.1782827231993751 0.9856737021604650 0.7500000160000013	-0.099259
C	0.3796332934317612 0.7924711431500627 0.7500000160000013	0.166246
C	0.2126497762525631 0.9527376328706911 0.7500000160000013	0.124889
C	0.2817888448723820 0.8875781080621811 0.7500000160000013	0.137714
C	0.3161099301214006 0.8545717111489166 0.7500000160000013	-0.103129
C	0.1490639430294401 0.0147175296584557 0.7500000160000013	-0.106483
C	0.8455516334138126 0.3257673887926291 0.7500000160000013	-0.104036
C	0.6161070365819955 0.5491780904323877 0.7500000160000013	0.160224
C	0.6782827231993752 0.4856737021604649 0.7500000160000013	-0.099257
C	0.8796332934317612 0.2924711431500636 0.7500000160000013	0.166245
C	0.7126497602525617 0.4527376328706914 0.7500000160000013	0.124889
C	0.7817888448723818 0.3875781410621807 0.7500000160000013	0.137714
C	0.8161098971214016 0.3545716781489174 0.7500000160000013	-0.103129
C	0.6490639110294377 0.5147175246584519 0.7500000160000013	-0.106482
C	0.6544483665861874 0.1742326112073706 0.2500000000000000	-0.104037
C	0.8838929634180045 0.9508219095676123 0.2500000000000000	0.160223
C	0.8217172768006248 0.0143262938395348 0.2500000000000000	-0.099291
C	0.6203667065682388 0.2075288408499352 0.2500000000000000	0.166245
C	0.7873502397474383 0.0472623591293081 0.2500000000000000	0.125028
C	0.7182111551276182 0.1124218509378188 0.2500000000000000	0.137787
C	0.6838901028785984 0.1454282888510835 0.2500000000000000	-0.103132
C	0.8509360889705623 0.9852824423415489 0.2500000000000000	-0.106470
C	0.1544483505861858 0.6742326112073704 0.2500000000000000	-0.104036
C	0.3838928674180042 0.4508219425676111 0.2500000000000000	0.160224
C	0.3217172768006248 0.5143262978395350 0.2500000000000000	-0.099256
C	0.1203666985682380 0.7075288568499373 0.2500000000000000	0.166245
C	0.2873502077474426 0.5472624001293080 0.2500000000000000	0.124889
C	0.2182111391276167 0.6124218919378189 0.2500000000000000	0.137714
C	0.1838900698785994 0.6454282888510834 0.2500000000000000	-0.103129
C	0.3509360569705601 0.4852824423415490 0.2500000000000000	-0.106483
H	0.9455778788146805 0.1160816554048970 0.0139567778291513	0.090605
H	0.8888338023582377 0.0543180816874115 0.0247519529253367	0.119684
H	0.7833888841775677 0.9490623501008283 0.0238738423407197	0.106994
H	0.7221948784513496 0.8915442556277495 0.0236179713740720	0.115318
H	0.5550851680827028 0.7290437473629847 0.0138919983519539	0.090126
H	0.6150725082640133 0.7872230979340256 0.0245327154336728	0.124130
H	0.4455779748146815 0.6160816714048980 0.0139567778291513	0.090605
H	0.3888337383582398 0.5543181106874175 0.0247519529253367	0.119685
H	0.2833888841775682 0.4490623501008286 0.0238738423407197	0.106993
H	0.2221948944513507 0.3915443546277541 0.0236179713740720	0.115319
H	0.0550851760827033 0.2290437963629853 0.0138919983519539	0.090126
H	0.1150725242640074 0.2872230319340272 0.0245327154336728	0.124130
H	0.0544220611853144 0.8839183285951020 0.5139568068291501	0.090606
H	0.1111662456417591 0.9456818893125825 0.5247519879253359	0.119685
H	0.2166111478224347 0.0509376668991765 0.5238738743407222	0.107035
H	0.2778051215486508 0.1084556703722514 0.5236179673740718	0.115344
H	0.4449148319172972 0.2709561866370166 0.5138919983519538	0.090126
H	0.3849274917359868 0.2127769190659720 0.5245327464336715	0.124130
H	0.5544221211853195 0.3839183285951017 0.5139568068291501	0.090606
H	0.6111661976417623 0.4456819223125888 0.5247519879253359	0.119685
H	0.7166111158224323 0.5509376498991717 0.5238738743407222	0.106993
H	0.7778051215486504 0.6084557443722505 0.5236179673740718	0.115318
H	0.9449148319172972 0.7709562526370153 0.5138919983519538	0.090126
H	0.8849274917359867 0.7127769020659744 0.5245327464336715	0.124130
H	0.0544220611853144 0.1160816554048970 0.4860432241708488	0.090606
H	0.1111662456417591 0.0543180816874115 0.4752480120746567	0.119684
H	0.2166111478224347 0.9490623501008283 0.4761261576592805	0.106994
H	0.2778051215486508 0.8915442556277495 0.4763820326259283	0.115319
H	0.4449148319172972 0.7290437473629847 0.4861080336480488	0.090126
H	0.3849274917359868 0.7872230979340256 0.4754672845663271	0.124130
H	0.5544221211853195 0.6160816714048980 0.4860432241708488	0.090606
H	0.6111661976417623 0.5543181106874175 0.4752480120746567	0.119685
H	0.7166111158224323 0.4490623501008286 0.4761261576592805	0.106994
H	0.7778051215486504 0.3915443546277541 0.4763820326259283	0.115319
H	0.9449148319172972 0.2290437963629853 0.4861080336480488	0.090126
H	0.8849274917359867 0.2872230319340272 0.4754672845663271	0.124130
H	0.9455778788146805 0.8839183285951020 0.9860432241708489	0.090606
H	0.8888338023582377 0.9456818893125825 0.9752479810746579	0.119685
H	0.7833888841775677 0.0509376668991765 0.9761261576592805	0.107035
H	0.7221948784513496 0.1084556703722514 0.9763820016259220	0.115344
H	0.5550851680827028 0.2709561866370166 0.9861080016480462	0.090126
H	0.6150725082640133 0.2127769190659720 0.9754672845663275	0.124130
H	0.4455779748146815 0.3839183285951017 0.9860432241708489	0.090606
H	0.3888337383582398 0.4456819223125888 0.9752479810746579	0.119685
H	0.2833888841775682 0.5509376498991717 0.9761261576592805	0.106993
H	0.2221948944513507 0.6084557443722505 0.9763820016259220	0.115319
H	0.0550851760827033 0.7709562526370153 0.9861080016480462	0.090126
H	0.1150725242640074 0.7127769020659744 0.9754672845663275	0.124130
H	0.0544220611853144 0.8839183285951020 0.9860432241708489	0.090606
H	0.1111662456417591 0.9456818893125825 0.9752479810746579	0.119685
H	0.2166111478224347 0.0509376668991765 0.9761261576592805	0.107036
H	0.2778051215486508 0.1084556703722514 0.9763820016259220	0.115346
H	0.4449148319172972 0.2709561866370166 0.9861080016480462	0.090126
H	0.3849274917359868 0.2127769190659720 0.9754672845663275	0.124130
H	0.5544221211853195 0.3839183285951017 0.9860432241708489	0.090606
H	0.6111661976417623 0.4456819223125888 0.9752479810746579	0.119685
H	0.7166111158224323 0.5509376498991717 0.9761261576592805	0.106993
H	0.7778051215486504 0.6084557443722505 0.9763820016259220	0.115321
H	0.9449148319172972 0.7709562526370153 0.9861080016480462	0.090126
H	0.8849274917359867 0.7127769020659744 0.9754672845663275	0.124130
H	0.9455778788146805 0.1160816554048970 0.4860432241708488	0.090605
H	0.8888338023582377 0.0543180816874115 0.4752480120746567	0.119684
H	0.7833888841775677 0.9490623501008283 0.4761261576592805	0.106994
H	0.7221948784513496 0.8915442556277495 0.4763820326259283	0.115321
H	0.5550851680827028 0.7290437473629847 0.4861080336480488	0.090126
H	0.6150725082640133 0.7872230979340256 0.4754672845663271	0.124130
H	0.4455779748146815 0.6160816714048980 0.4860432241708488	0.090605
H	0.3888337383582398 0.5543181106874175 0.4752480120746567	0.119684
H	0.2833888841775682 0.4490623501008286 0.4761261576592805	0.106994
H	0.2221948944513507 0.3915443546277541 0.4763820326259283	0.115321
H	0.0550851760827033 0.2290437963629853 0.4861080336480488	0.090126
H	0.1150725242640074 0.2872230319340272 0.4754672845663271	0.124130
H	0.9455778788146805 0.8839183285951020 0.5139568068291501	0.090605
H	0.8888338023582377 0.9456818893125825 0.5247519879253359	0.119685
H	0.7833888841775677 0.0509376668991765 0.5238738743407222	0.107035
H	0.7221948784513496 0.1084556703722514 0.5236179673740718	0.115346
H	0.5550851680827028 0.2709561866370166 0.5138919983519538	0.090126
H	0.6150725082640133 0.2127769190659720 0.5245327464336715	0.124130
H	0.4455779748146815 0.3839183285951017 0.5139568068291501	0.090605
H	0.3888337383582398 0.4456819223125888 0.5247519879253359	0.119684
H	0.2833888841775682 0.5509376498991717 0.5238738743407222	0.106993
H	0.2221948944513507 0.6084557443722505 0.5236179673740718	0.115320
H	0.0550851760827033 0.7709562526370153 0.5138919983519538	0.090126
H	0.1150725242640074 0.7127769020659744 0.5245327464336715	0.124130
H	0.0544220611853144 0.1160816554048970 0.0139567778291513	0.090605
H	0.1111662456417591 0.0543180816874115 0.0247519529253367	0.119684
H	0.2166111478224347 0.9490623501008283 0.0238738423407197	0.106994
H	0.2778051215486508 0.8915442556277495 0.0236179713740720	0.115320
H	0.4449148319172972 0.7290437473629847 0.0138919983519539	0.090126
H	0.3849274917359868 0.7872230979340256 0.0245327154336728	0.124130
H	0.5544221211853195 0.6160816714048980 0.0139567778291513	0.090605
H	0.6111661976417623 0.5543181106874175 0.0247519529253367	0.119684
H	0.7166111158224323 0.4490623501008286 0.0238738423407197	0.106993
H	0.7778051215486504 0.3915443546277541 0.0236179713740720	0.115321
H	0.9449148319172972 0.2290437963629853 0.0138919983519539	0.090126
H	0.8849274917359867 0.2872230319340272 0.0245327154336728	0.124130
Fe	0.5000000000000000 0.6728999565975361 0.7500000160000013	0.810712
Fe	-0.0000000000000000 0.1728999735975337 0.7500000160000013	0.810712
Fe	0.5000000000000000 0.3271000434024641 0.2500000000000000	0.810712
Fe	-0.0000000000000000 0.8271000434024639 0.2500000000000000	0.810712
Ge	0.5000000000000000 0.6730262704247172 0.2500000000000000	1.757872
Ge	-0.0000000000000000 0.1730262704247170 0.2500000000000000	1.757872
Ge	0.5000000000000000 0.3269737615752858 0.7500000160000013	1.757872
Ge	-0.0000000000000000 0.8269737295752828 0.7500000160000013	1.757872
F	0.5000000000000000 0.7348638693719087 0.2500000000000000	-0.530140
F	0.5000000000000000 0.6112099414949768 0.2500000000000000	-0.526972
F	-0.0000000000000000 0.2348638203719085 0.2500000000000000	-0.530139
F	-0.0000000000000000 0.1112099254949754 0.2500000000000000	-0.526972
F	0.5000000000000000 0.2651361796280917 0.7500000160000013	-0.530139
F	0.5000000000000000 0.3887900255050242 0.7500000160000013	-0.526973
F	-0.0000000000000000 0.7651361306280913 0.7500000160000013	-0.530139
F	-0.0000000000000000 0.8887900585050232 0.7500000160000013	-0.526972
F	0.5602075780405936 0.6730540188138675 0.2500000000000000	-0.528796
F	0.0602075980405952 0.1730540518138666 0.2500000000000000	-0.528796
F	0.4397923899594037 0.3269459151861343 0.7500000160000013	-0.528796
F	0.9397924219594064 0.8269459811861325 0.7500000160000013	-0.528796
F	0.4397923899594037 0.6730540188138675 0.2500000000000000	-0.528796
F	0.9397924219594064 0.1730540518138666 0.2500000000000000	-0.528796
F	0.5602075780405936 0.3269459151861343 0.7500000160000013	-0.528796
F	0.0602075980405952 0.8269459811861325 0.7500000160000013	-0.528796
F	0.5000000000000000 0.6729353321473405 0.4911591391149154	-0.487838
F	-0.0000000000000000 0.1729353491473384 0.4911591391149153	-0.487838
F	0.5000000000000000 0.3270647008526584 -0.0088408608850846	-0.487839
F	-0.0000000000000000 0.8270646678526595 -0.0088408608850846	-0.487839
F	0.5000000000000000 0.6729353321473405 0.0088408568850844	-0.487838
F	-0.0000000000000000 0.1729353491473384 0.0088408568850844	-0.487838
F	0.5000000000000000 0.3270647008526584 0.5088408288850891	-0.487838
F	-0.0000000000000000 0.8270646678526595 0.5088408288850891	-0.487838
N	0.5523297930009841 0.7262027118119582 0.7500000160000013	-0.248791
N	0.9482044483022899 0.1189350247247316 0.7500000160000013	-0.247430
N	0.0523297570009812 0.2262026958119569 0.7500000160000013	-0.248792
N	0.4482044483022906 0.6189350087247302 0.7500000160000013	-0.247430
N	0.4476702709990140 0.2737972881880417 0.2500000000000000	-0.248792
N	0.0517955596977102 0.8810649912752698 0.2500000000000000	-0.247430
N	0.9476702069990159 0.7737972881880418 0.2500000000000000	-0.248791
N	0.5517955516977101 0.3810649912752697 0.2500000000000000	-0.247430
N	0.4476702709990140 0.7262027118119582 0.7500000160000013	-0.248791
N	0.0517955596977102 0.1189350247247316 0.7500000160000013	-0.247430
N	0.9476702069990159 0.2262026958119569 0.7500000160000013	-0.248791
N	0.5517955516977101 0.6189350087247302 0.7500000160000013	-0.247430
N	0.5523297930009841 0.2737972881880417 0.2500000000000000	-0.248791
N	0.9482044483022899 0.8810649912752698 0.2500000000000000	-0.247430
N	0.0523297570009812 0.7737972881880418 0.2500000000000000	-0.248791
N	0.4482044483022906 0.3810649912752697 0.2500000000000000	-0.247430
	  	
