#======================================================================

# CRYSTAL DATA

#----------------------------------------------------------------------

data_VESTA_phase_1


_pd_phase_name                         GeFSIX_5_Co_i
_cell_length_a                         19.59740
_cell_length_b                         19.59740
_cell_length_c                         15.90559
_cell_angle_alpha                      90
_cell_angle_beta                       90
_cell_angle_gamma                      90
_symmetry_space_group_name_H-M         P 1
_symmetry_Int_Tables_number            1

loop_
_symmetry_equiv_pos_as_xyz
   x, y, z

loop_
   _atom_site_label
   _atom_site_fract_x
   _atom_site_fract_y
   _atom_site_fract_z
   _atom_site_charge
F	0.3218228320622767 0.1905418579157553 0.3513341010875164	-0.557866
F	0.1781771559377225 0.3094581420842447 0.3513341010875164	-0.557869
F	0.3094581420842447 0.3218228320622767 0.3513341010875164	-0.557868
F	0.1905418579157553 0.1781771559377225 0.3513341010875164	-0.557867
F	0.6781771919377190 0.6905418819157569 0.1486658989124834	-0.557867
F	0.8218228080622810 0.8094581180842431 0.1486658989124834	-0.557867
F	0.6905418819157569 0.8218228080622810 0.1486658989124834	-0.557869
F	0.8094581180842431 0.6781771919377190 0.1486658989124834	-0.557866
F	0.6781771919377190 0.8094581180842431 0.6486659309124859	-0.557869
F	0.8218228080622810 0.6905418819157569 0.6486659309124859	-0.557866
F	0.6905418819157569 0.6781771919377190 0.6486659309124859	-0.557867
F	0.8094581180842431 0.8218228080622810 0.6486659309124859	-0.557867
F	0.3218228320622767 0.3094581420842447 0.8513340690875141	-0.557868
F	0.1781771559377225 0.1905418579157553 0.8513340690875141	-0.557867
F	0.3094581420842447 0.1781771559377225 0.8513340690875141	-0.557866
F	0.1905418579157553 0.3218228320622767 0.8513340690875141	-0.557869
F	0.2500000000000000 0.2500000000000000 0.4666208965656100	-0.510461
F	0.2500000000000000 0.2500000000000000 0.2358549661894329	-0.511615
F	0.7500000000000000 0.7500000000000000 0.0333791304343887	-0.510458
F	0.7500000000000000 0.7500000000000000 0.2641450178105658	-0.511614
F	0.7500000000000000 0.7500000000000000 0.5333791344343891	-0.510456
F	0.7500000000000000 0.7500000000000000 0.7641450178105660	-0.511615
F	0.2500000000000000 0.2500000000000000 0.9666208655656109	-0.510459
F	0.2500000000000000 0.2500000000000000 0.7358549821894340	-0.511617
N	0.3500150274859432 0.2476976894548434 0.6014522249040354	-0.191755
N	0.1499849725140568 0.2523023105451566 0.6014522249040354	-0.191754
N	0.2523023105451566 0.3500150274859432 0.6014522249040354	-0.191753
N	0.2476976894548434 0.1499849725140568 0.6014522249040354	-0.191754
N	0.6499849965140587 0.7476976654548412 0.8985477750959646	-0.191756
N	0.8500150034859413 0.7523023345451588 0.8985477750959646	-0.191745
N	0.7476976654548412 0.8500150034859413 0.8985477750959646	-0.191746
N	0.7523023345451588 0.6499849965140587 0.8985477750959646	-0.191755
N	0.6499849965140587 0.7523023345451588 0.3985478060959635	-0.191754
N	0.8500150034859413 0.7476976654548412 0.3985478060959635	-0.191744
N	0.7476976654548412 0.6499849965140587 0.3985478060959635	-0.191753
N	0.7523023345451588 0.8500150034859413 0.3985478060959635	-0.191744
N	0.3500150274859432 0.2523023105451566 0.1014522249040355	-0.191751
N	0.1499849725140568 0.2476976894548434 0.1014522249040355	-0.191753
N	0.2523023105451566 0.1499849725140568 0.1014522249040355	-0.191751
N	0.2476976894548434 0.3500150274859432 0.1014522249040355	-0.191753
C	0.3838251065242649 0.2183615182670016 0.6660160027037233	0.094067
C	0.4545602291180858 0.2168809999162331 0.6693616850259538	-0.173626
C	0.4931783929026897 0.2471249320939301 0.6050545777467822	0.102072
C	0.4569523050422026 0.2771692301590298 0.5384813728058149	-0.175153
C	0.3861090528008853 0.2763153651009240 0.5382519679253760	0.093549
C	0.5683205125415305 0.2478056667275033 0.6080785017527472	0.056231
C	0.6048980591893843 0.1909899545256692 0.6377048443176229	-0.131868
C	0.6758043973453028 0.1917482178487206 0.6403815127049366	-0.123602
C	0.7124619703642185 0.2497729595950646 0.6148987243257715	0.067303
C	0.6758832896003708 0.3069413300792930 0.5864310924696092	-0.120778
C	0.6050285438977223 0.3056682750537768 0.5822748018690256	-0.125466
C	0.1161748694757404 0.2816385057330004 0.6660160027037233	0.094048
C	0.0454397108819163 0.2831190240837692 0.6693616850259538	-0.173606
C	0.0068215860973120 0.2528750679060699 0.6050545777467822	0.102064
C	0.0430477219577961 0.2228307698409703 0.5384813728058149	-0.175147
C	0.1138909111991118 0.2236846588990779 0.5382519679253760	0.093542
C	0.9316794394584726 0.2521943092724949 0.6080785017527472	0.056237
C	0.8951019888106125 0.3090100804743300 0.6377048443176229	-0.131867
C	0.8241956026546972 0.3082517941512730 0.6403815127049366	-0.123601
C	0.7875380296357815 0.2502270164049333 0.6148987243257715	0.067306
C	0.8241167573996295 0.1930586699207071 0.5864310924696092	-0.120816
C	0.8949715521022785 0.1943317599462225 0.5822748018690256	-0.125458
C	0.2816385057330004 0.3838251065242649 0.6660160027037233	0.094050
C	0.2831190240837692 0.4545602291180857 0.6693616850259538	-0.173606
C	0.2528750679060699 0.4931783929026897 0.6050545777467822	0.102064
C	0.2228307698409703 0.4569523050422026 0.5384813728058149	-0.175149
C	0.2236846588990779 0.3861090528008853 0.5382519679253760	0.093546
C	0.2521943092724949 0.5683205125415305 0.6080785017527472	0.056232
C	0.3090100804743300 0.6048980591893843 0.6377048443176229	-0.131869
C	0.3082517941512730 0.6758043973453028 0.6403815127049366	-0.123602
C	0.2502270164049333 0.7124619703642185 0.6148987243257715	0.067301
C	0.1930586699207071 0.6758832896003708 0.5864310924696092	-0.120776
C	0.1943317599462225 0.6050285438977223 0.5822748018690256	-0.125467
C	0.2183615182670016 0.1161748694757404 0.6660160027037233	0.094066
C	0.2168809999162331 0.0454397108819163 0.6693616850259538	-0.173625
C	0.2471249320939301 0.0068215860973120 0.6050545777467822	0.102072
C	0.2771692301590298 0.0430477219577961 0.5384813728058149	-0.175150
C	0.2763153651009240 0.1138909111991118 0.5382519679253760	0.093545
C	0.2478056667275033 0.9316794394584726 0.6080785017527472	0.056236
C	0.1909899545256692 0.8951019888106125 0.6377048443176229	-0.131867
C	0.1917482178487206 0.8241956026546972 0.6403815127049366	-0.123601
C	0.2497729595950646 0.7875380296357815 0.6148987243257715	0.067308
C	0.3069413300792930 0.8241167573996295 0.5864310924696092	-0.120817
C	0.3056682750537768 0.8949715521022785 0.5822748018690256	-0.125457
C	0.6161748694757406 0.7183615662669984 0.8339839972962767	0.094065
C	0.5454397228819171 0.7168810239162282 0.8306383149740462	-0.173624
C	0.5068216070973099 0.7471249800939272 0.8949454222532178	0.102070
C	0.5430477909577984 0.7771691821590259 0.9615186271941851	-0.175152
C	0.6138909711991096 0.7763153891009187 0.9617480320746240	0.093546
C	0.4316794874584695 0.7478057387275019 0.8919214982472528	0.056232
C	0.3951019408106158 0.6909899195256699 0.8622951556823771	-0.131866
C	0.3241955306546913 0.6917481818487246 0.8596184872950634	-0.123601
C	0.2875380776357852 0.7497729835950665 0.8851012756742285	0.067301
C	0.3241166623996251 0.8069413300792930 0.9135689075303908	-0.120775
C	0.3949714801022722 0.8056682040537745 0.9177251981309744	-0.125463
C	0.8838251305242594 0.7816384337330016 0.8339839972962767	0.094067
C	0.9545602771180829 0.7831189760837718 0.8306383149740462	-0.173629
C	0.9931784409026869 0.7528750199060728 0.8949454222532178	0.102071
C	0.9569522570422055 0.7228308178409741 0.9615186271941851	-0.175141
C	0.8861090288008904 0.7236846108990813 0.9617480320746240	0.093504
C	0.0683205485415264 0.7521942612724981 0.8919214982472528	0.056231
C	0.1048980471893832 0.8090100804743301 0.8622951556823771	-0.131867
C	0.1758044453453068 0.8082517701512786 0.8596184872950634	-0.123602
C	0.2124619223642147 0.7502270164049335 0.8851012756742285	0.067298
C	0.1758833136003728 0.6930586699207070 0.9135689075303908	-0.120775
C	0.1050285198977277 0.6943317489462252 0.9177251981309744	-0.125467
C	0.7183615662669984 0.8838251305242594 0.8339839972962767	0.094068
C	0.7168810239162282 0.9545602771180829 0.8306383149740462	-0.173625
C	0.7471249800939272 0.9931784409026869 0.8949454222532178	0.102070
C	0.7771691821590259 0.9569522570422055 0.9615186271941851	-0.175144
C	0.7763153891009187 0.8861090288008904 0.9617480320746240	0.093504
C	0.7478057387275019 0.0683205485415264 0.8919214982472528	0.056231
C	0.6909899195256699 0.1048980471893832 0.8622951556823771	-0.131868
C	0.6917481818487246 0.1758044453453068 0.8596184872950634	-0.123601
C	0.7497729835950665 0.2124619223642147 0.8851012756742285	0.067301
C	0.8069413300792930 0.1758833136003728 0.9135689075303908	-0.120775
C	0.8056682040537745 0.1050285198977277 0.9177251981309744	-0.125466
C	0.7816384337330016 0.6161748694757406 0.8339839972962767	0.094065
C	0.7831189760837718 0.5454397228819171 0.8306383149740462	-0.173627
C	0.7528750199060728 0.5068216070973099 0.8949454222532178	0.102071
C	0.7228308178409741 0.5430477909577984 0.9615186271941851	-0.175148
C	0.7236846108990813 0.6138909711991096 0.9617480320746240	0.093546
C	0.7521942612724981 0.4316794874584695 0.8919214982472528	0.056232
C	0.8090100804743301 0.3951019408106158 0.8622951556823771	-0.131865
C	0.8082517701512786 0.3241955306546913 0.8596184872950634	-0.123602
C	0.7502270164049335 0.2875380776357852 0.8851012756742285	0.067298
C	0.6930586699207070 0.3241166623996251 0.9135689075303908	-0.120775
C	0.6943317489462252 0.3949714801022722 0.9177251981309744	-0.125465
C	0.6161748694757406 0.7816384337330016 0.3339840282962757	0.094067
C	0.5454397228819171 0.7831189760837718 0.3306383149740461	-0.173627
C	0.5068216070973099 0.7528750199060728 0.3949454222532178	0.102070
C	0.5430477909577984 0.7228308178409741 0.4615186581941916	-0.175147
C	0.6138909711991096 0.7236846108990813 0.4617480320746238	0.093545
C	0.4316794874584695 0.7521942612724981 0.3919214982472524	0.056230
C	0.3951019408106158 0.8090100804743301 0.3622951246823785	-0.131853
C	0.3241955306546913 0.8082517701512786 0.3596185182950624	-0.123608
C	0.2875380776357852 0.7502270164049335 0.3851011816742277	0.067313
C	0.3241166623996251 0.6930586699207070 0.4135689385303896	-0.120777
C	0.3949714801022722 0.6943317489462252 0.4177251981309742	-0.125465
C	0.8838251305242594 0.7183615662669984 0.3339840282962757	0.094066
C	0.9545602771180829 0.7168810239162282 0.3306383149740461	-0.173624
C	0.9931784409026869 0.7471249800939272 0.3949454222532178	0.102071
C	0.9569522570422055 0.7771691821590259 0.4615186581941916	-0.175145
C	0.8861090288008904 0.7763153891009187 0.4617480320746238	0.093505
C	0.0683205485415264 0.7478057387275019 0.3919214982472524	0.056230
C	0.1048980471893832 0.6909899195256699 0.3622951246823785	-0.131856
C	0.1758044453453068 0.6917481818487246 0.3596185182950624	-0.123608
C	0.2124619223642147 0.7497729835950665 0.3851011816742277	0.067309
C	0.1758833136003728 0.8069413300792930 0.4135689385303896	-0.120780
C	0.1050285198977277 0.8056682040537745 0.4177251981309742	-0.125466
C	0.7183615662669984 0.6161748694757406 0.3339840282962757	0.094067
C	0.7168810239162282 0.5454397228819171 0.3306383149740461	-0.173624
C	0.7471249800939272 0.5068216070973099 0.3949454222532178	0.102071
C	0.7771691821590259 0.5430477909577984 0.4615186581941916	-0.175149
C	0.7763153891009187 0.6138909711991096 0.4617480320746238	0.093545
C	0.7478057387275019 0.4316794874584695 0.3919214982472524	0.056230
C	0.6909899195256699 0.3951019408106158 0.3622951246823785	-0.131853
C	0.6917481818487246 0.3241955306546913 0.3596185182950624	-0.123607
C	0.7497729835950665 0.2875380776357852 0.3851011816742277	0.067315
C	0.8069413300792930 0.3241166623996251 0.4135689385303896	-0.120778
C	0.8056682040537745 0.3949714801022722 0.4177251981309742	-0.125464
C	0.7816384337330016 0.8838251305242594 0.3339840282962757	0.094067
C	0.7831189760837718 0.9545602771180829 0.3306383149740461	-0.173627
C	0.7528750199060728 0.9931784409026869 0.3949454222532178	0.102070
C	0.7228308178409741 0.9569522570422055 0.4615186581941916	-0.175142
C	0.7236846108990813 0.8861090288008904 0.4617480320746238	0.093506
C	0.7521942612724981 0.0683205485415264 0.3919214982472524	0.056230
C	0.8090100804743301 0.1048980471893832 0.3622951246823785	-0.131857
C	0.8082517701512786 0.1758044453453068 0.3596185182950624	-0.123609
C	0.7502270164049335 0.2124619223642147 0.3851011816742277	0.067307
C	0.6930586699207070 0.1758833136003728 0.4135689385303896	-0.120779
C	0.6943317489462252 0.1050285198977277 0.4177251981309742	-0.125467
C	0.3838251065242649 0.2816385057330004 0.1660159877037256	0.094050
C	0.4545602291180858 0.2831190240837692 0.1693616540259549	-0.173608
C	0.4931783929026897 0.2528750679060699 0.1050545777467823	0.102048
C	0.4569523050422026 0.2228307698409703 0.0384813378058152	-0.175145
C	0.3861090528008853 0.2236846588990779 0.0382519599253755	0.093544
C	0.5683205125415305 0.2521943092724949 0.1080784937527469	0.056264
C	0.6048980591893843 0.3090100804743300 0.1377048443176226	-0.131874
C	0.6758043973453028 0.3082517941512730 0.1403814657049363	-0.123606
C	0.7124619703642185 0.2502270164049333 0.1148987953257739	0.067314
C	0.6758832896003708 0.1930586699207071 0.0864310764696080	-0.120783
C	0.6050285438977223 0.1943317599462225 0.0822748168690234	-0.125465
C	0.1161748694757404 0.2183615182670016 0.1660159877037256	0.094066
C	0.0454397108819163 0.2168809999162331 0.1693616540259549	-0.173625
C	0.0068215860973120 0.2471249320939301 0.1050545777467823	0.102055
C	0.0430477219577961 0.2771692301590298 0.0384813378058152	-0.175149
C	0.1138909111991118 0.2763153651009240 0.0382519599253755	0.093546
C	0.9316794394584726 0.2478056667275033 0.1080784937527469	0.056268
C	0.8951019888106125 0.1909899545256692 0.1377048443176226	-0.131874
C	0.8241956026546972 0.1917482178487206 0.1403814657049363	-0.123605
C	0.7875380296357815 0.2497729595950646 0.1148987953257739	0.067317
C	0.8241167573996295 0.3069413300792930 0.0864310764696080	-0.120824
C	0.8949715521022785 0.3056682750537768 0.0822748168690234	-0.125454
C	0.2816385057330004 0.1161748694757404 0.1660159877037256	0.094047
C	0.2831190240837692 0.0454397108819163 0.1693616540259549	-0.173606
C	0.2528750679060699 0.0068215860973120 0.1050545777467823	0.102049
C	0.2228307698409703 0.0430477219577961 0.0384813378058152	-0.175144
C	0.2236846588990779 0.1138909111991118 0.0382519599253755	0.093542
C	0.2521943092724949 0.9316794394584726 0.1080784937527469	0.056269
C	0.3090100804743300 0.8951019888106125 0.1377048443176226	-0.131873
C	0.3082517941512730 0.8241956026546972 0.1403814657049363	-0.123607
C	0.2502270164049333 0.7875380296357815 0.1148987953257739	0.067324
C	0.1930586699207071 0.8241167573996295 0.0864310764696080	-0.120826
C	0.1943317599462225 0.8949715521022785 0.0822748168690234	-0.125455
C	0.2183615182670016 0.3838251065242649 0.1660159877037256	0.094070
C	0.2168809999162331 0.4545602291180858 0.1693616540259549	-0.173627
C	0.2471249320939301 0.4931783929026897 0.1050545777467823	0.102054
C	0.2771692301590298 0.4569523050422026 0.0384813378058152	-0.175149
C	0.2763153651009240 0.3861090528008853 0.0382519599253755	0.093548
C	0.2478056667275033 0.5683205125415305 0.1080784937527469	0.056263
C	0.1909899545256692 0.6048980591893843 0.1377048443176226	-0.131875
C	0.1917482178487206 0.6758043973453028 0.1403814657049363	-0.123604
C	0.2497729595950646 0.7124619703642185 0.1148987953257739	0.067307
C	0.3069413300792930 0.6758832896003708 0.0864310764696080	-0.120781
C	0.3056682750537768 0.6050285438977223 0.0822748168690234	-0.125464
H	0.3528952402613934 0.1972605557081082 0.7167379359175180	0.105612
H	0.4793532969641088 0.1938954535697896 0.7237484720039963	0.117431
H	0.4837674406064909 0.3001985553033546 0.4855698670256325	0.116895
H	0.3568615752997181 0.2978648345069099 0.4862937383904201	0.106045
H	0.5770936974609210 0.1454441067479187 0.6572738167077699	0.100210
H	0.7034180382348925 0.1472868455102105 0.6637111661661168	0.101936
H	0.7035578481270226 0.3519590448999623 0.5649463568676792	0.102808
H	0.5774161803232691 0.3504381810428864 0.5598875939570684	0.103161
H	0.1471047237386039 0.3027394682918938 0.7167379359175180	0.105616
H	0.0206467090358846 0.3061045704302124 0.7237484720039963	0.117431
H	0.0162325483935117 0.1998014566966465 0.4855698670256325	0.116893
H	0.1431384487002838 0.2021351534930891 0.4862937383904201	0.106046
H	0.9229063495390794 0.3545558932520814 0.6572738167077699	0.100210
H	0.7965819617651075 0.3527131424897887 0.6637111661661168	0.101934
H	0.7964421518729774 0.1480409671000386 0.5649463568676792	0.102819
H	0.9225838196767309 0.1495618069571196 0.5598875939570684	0.103177
H	0.3027394682918938 0.3528952402613934 0.7167379359175180	0.105618
H	0.3061045704302124 0.4793532969641088 0.7237484720039963	0.117431
H	0.1998014566966465 0.4837674406064909 0.4855698670256325	0.116894
H	0.2021351534930891 0.3568615752997181 0.4862937383904201	0.106045
H	0.3545558932520814 0.5770936974609210 0.6572738167077699	0.100210
H	0.3527131424897887 0.7034180382348925 0.6637111661661168	0.101935
H	0.1480409671000386 0.7035578481270226 0.5649463568676792	0.102811
H	0.1495618069571196 0.5774161803232691 0.5598875939570684	0.103165
H	0.1972605557081082 0.1471047237386039 0.7167379359175180	0.105610
H	0.1938954535697896 0.0206467090358846 0.7237484720039963	0.117432
H	0.3001985553033546 0.0162325483935117 0.4855698670256325	0.116894
H	0.2978648345069099 0.1431384487002838 0.4862937383904201	0.106045
H	0.1454441067479187 0.9229063495390794 0.6572738167077699	0.100212
H	0.1472868455102105 0.7965819617651075 0.6637111661661168	0.101936
H	0.3519590448999623 0.7964421518729774 0.5649463568676792	0.102817
H	0.3504381810428864 0.9225838196767309 0.5598875939570684	0.103176
H	0.6471047117386033 0.6972605557081083 0.7832620640824820	0.105611
H	0.5206466550358870 0.6938954295697876 0.7762515279960037	0.117432
H	0.5162325593935092 0.8001985553033543 0.0144301179743626	0.116893
H	0.6431384247002818 0.7978648105069076 0.0137062896095821	0.106044
H	0.4229063025390794 0.6454441067479184 0.8427261832922301	0.100212
H	0.2965819857651096 0.6472868575102113 0.8362888338338832	0.101936
H	0.2964421518729777 0.8519590448999621 0.9350536431323208	0.102810
H	0.4225838676767275 0.8504382050428816 0.9401124060429316	0.103163
H	0.8528953362613936 0.8027394922918957 0.7832620640824820	0.105611
H	0.9793532489641121 0.8061045704302124 0.7762515279960037	0.117433
H	0.9837673926064939 0.6998014446966457 0.0144301179743626	0.116893
H	0.8568614792997173 0.7021351894930924 0.0137062896095821	0.106074
H	0.0770936974609206 0.8545558932520816 0.8427261832922301	0.100210
H	0.2034180142348904 0.8527131424897887 0.8362888338338832	0.101933
H	0.2035578481270222 0.6480410031000348 0.9350536431323208	0.102810
H	0.0774161743232688 0.6495617949571184 0.9401124060429316	0.103162
H	0.6972605557081083 0.8528953362613936 0.7832620640824820	0.105611
H	0.6938954295697876 0.9793532489641121 0.7762515279960037	0.117432
H	0.8001985553033543 0.9837673926064939 0.0144301179743626	0.116895
H	0.7978648105069076 0.8568614792997173 0.0137062896095821	0.106074
H	0.6454441067479184 0.0770936974609206 0.8427261832922301	0.100213
H	0.6472868575102113 0.2034180142348904 0.8362888338338832	0.101935
H	0.8519590448999621 0.2035578481270222 0.9350536431323208	0.102809
H	0.8504382050428816 0.0774161743232688 0.9401124060429316	0.103163
H	0.8027394922918957 0.6471047117386033 0.7832620640824820	0.105611
H	0.8061045704302124 0.5206466550358870 0.7762515279960037	0.117432
H	0.6998014446966457 0.5162325593935092 0.0144301179743626	0.116892
H	0.7021351894930924 0.6431384247002818 0.0137062896095821	0.106044
H	0.8545558932520816 0.4229063025390794 0.8427261832922301	0.100211
H	0.8527131424897887 0.2965819857651096 0.8362888338338832	0.101934
H	0.6480410031000348 0.2964421518729778 0.9350536431323208	0.102811
H	0.6495617949571184 0.4225838676767275 0.9401124060429316	0.103165
H	0.6471047117386033 0.8027394922918957 0.2832620960824772	0.105610
H	0.5206466550358870 0.8061045704302124 0.2762515589960027	0.117431
H	0.5162325593935092 0.6998014446966457 0.5144301019743683	0.116890
H	0.6431384247002818 0.7021351894930924 0.5137062616095797	0.106045
H	0.4229063025390794 0.8545558932520816 0.3427261522922311	0.100208
H	0.2965819857651096 0.8527131424897887 0.3362888018338802	0.101923
H	0.2964421518729778 0.6480410031000348 0.4350536741323199	0.102813
H	0.4225838676767275 0.6495617949571184 0.4401124680429295	0.103164
H	0.8528953362613936 0.6972605557081083 0.2832620960824773	0.105611
H	0.9793532489641121 0.6938954295697876 0.2762515589960027	0.117428
H	0.9837673926064939 0.8001985553033543 0.5144301019743683	0.116891
H	0.8568614792997173 0.7978648105069076 0.5137062616095797	0.106072
H	0.0770936974609206 0.6454441067479184 0.3427261522922311	0.100208
H	0.2034180142348904 0.6472868575102113 0.3362888018338802	0.101922
H	0.2035578481270222 0.8519590448999621 0.4350536741323199	0.102807
H	0.0774161743232688 0.8504382050428816 0.4401124680429295	0.103161
H	0.6972605557081083 0.6471047117386033 0.2832620960824773	0.105610
H	0.6938954295697876 0.5206466550358870 0.2762515589960027	0.117429
H	0.8001985553033543 0.5162325593935092 0.5144301019743683	0.116891
H	0.7978648105069076 0.6431384247002818 0.5137062616095797	0.106045
H	0.6454441067479184 0.4229063025390794 0.3427261522922311	0.100210
H	0.6472868575102113 0.2965819857651096 0.3362888018338802	0.101924
H	0.8519590448999621 0.2964421518729778 0.4350536741323199	0.102810
H	0.8504382050428816 0.4225838676767275 0.4401124680429295	0.103162
H	0.8027394922918957 0.8528953362613936 0.2832620960824773	0.105611
H	0.8061045704302124 0.9793532489641121 0.2762515589960027	0.117431
H	0.6998014446966457 0.9837673926064939 0.5144301019743683	0.116890
H	0.7021351894930924 0.8568614792997173 0.5137062616095797	0.106072
H	0.8545558932520816 0.0770936974609206 0.3427261522922311	0.100208
H	0.8527131424897887 0.2034180142348904 0.3362888018338802	0.101921
H	0.6480410031000348 0.2035578481270222 0.4350536741323199	0.102809
H	0.6495617949571184 0.0774161743232688 0.4401124680429295	0.103165
H	0.3528952402613934 0.3027394682918938 0.2167379359175182	0.105618
H	0.4793532969641088 0.3061045704302124 0.2237484870040010	0.117427
H	0.4837674406064909 0.1998014566966465 0.9855699290256378	0.116892
H	0.3568615752997181 0.2021351534930891 0.9862937073904213	0.106046
H	0.5770936974609210 0.3545558932520814 0.1572738317077675	0.100209
H	0.7034180382348925 0.3527131424897887 0.1637112131661176	0.101922
H	0.7035578481270226 0.1480409671000386 0.0649463178676794	0.102811
H	0.5774161803232691 0.1495618069571196 0.0598875549570689	0.103160
H	0.1471047237386038 0.1972605557081082 0.2167379359175182	0.105610
H	0.0206467090358846 0.1938954535697896 0.2237484870040010	0.117429
H	0.0162325483935117 0.3001985553033546 0.9855699290256378	0.116890
H	0.1431384487002838 0.2978648345069099 0.9862937073904213	0.106043
H	0.9229063495390794 0.1454441067479187 0.1572738317077675	0.100211
H	0.7965819617651075 0.1472868455102105 0.1637112131661176	0.101922
H	0.7964421518729774 0.3519590448999623 0.0649463178676794	0.102816
H	0.9225838196767309 0.3504381810428864 0.0598875549570689	0.103174
H	0.3027394682918938 0.1471047237386039 0.2167379359175182	0.105617
H	0.3061045704302124 0.0206467090358846 0.2237484870040010	0.117427
H	0.1998014566966465 0.0162325483935117 0.9855699290256378	0.116889
H	0.2021351534930891 0.1431384487002838 0.9862937073904213	0.106044
H	0.3545558932520814 0.9229063495390794 0.1572738317077675	0.100210
H	0.3527131424897887 0.7965819617651075 0.1637112131661176	0.101922
H	0.1480409671000386 0.7964421518729774 0.0649463178676794	0.102819
H	0.1495618069571196 0.9225838196767309 0.0598875549570689	0.103176
H	0.1972605557081082 0.3528952402613934 0.2167379359175182	0.105611
H	0.1938954535697896 0.4793532969641088 0.2237484870040010	0.117430
H	0.3001985553033546 0.4837674406064909 0.9855699290256378	0.116893
H	0.2978648345069099 0.3568615752997181 0.9862937073904213	0.106045
H	0.1454441067479187 0.5770936974609210 0.1572738317077675	0.100212
H	0.1472868455102105 0.7034180382348925 0.1637112131661176	0.101921
H	0.3519590448999623 0.7035578481270226 0.0649463178676794	0.102808
H	0.3504381810428864 0.5774161803232691 0.0598875549570689	0.103160
Co	0.2500000000000000 0.2500000000000000 0.6009072875534367	0.579161
Co	0.7500000000000000 0.7500000000000000 0.8990927124465633	0.579162
Co	0.7500000000000000 0.7500000000000000 0.3990926504465650	0.579158
Co	0.2500000000000000 0.2500000000000000 0.1009073105534354	0.579156
Ge	0.2500000000000000 0.2500000000000000 0.3513518374376574	1.774095
Ge	0.7500000000000000 0.7500000000000000 0.1486481775623404	1.774095
Ge	0.7500000000000000 0.7500000000000000 0.6486482555623400	1.774094
Ge	0.2500000000000000 0.2500000000000000 0.8513517444376600	1.774095
	  	
