#======================================================================

# CRYSTAL DATA

#----------------------------------------------------------------------

data_VESTA_phase_1


_pd_phase_name                         GeFSIX_2_Fe
_cell_length_a                         14.03095
_cell_length_b                         14.03095
_cell_length_c                         7.84820
_cell_angle_alpha                      90
_cell_angle_beta                       90
_cell_angle_gamma                      90
_symmetry_space_group_name_H-M         P 1
_symmetry_Int_Tables_number            1

loop_
_symmetry_equiv_pos_as_xyz
   x, y, z

loop_
   _atom_site_label
   _atom_site_fract_x
   _atom_site_fract_y
   _atom_site_fract_z
   _atom_site_charge
C	0.5316088340621044 0.7049394259165701 0.1365786410474573	0.101992
C	0.5322783174736205 0.8037994636752487 0.1421967666088262	-0.167654
C	0.4683912359378947 0.2950605740834300 0.1365786410474573	0.102064
C	0.4677216475263801 0.1962005183247497 0.1421967666088262	-0.167668
C	0.2950605740834300 0.5316088340621044 0.1365786410474573	0.102066
C	0.1962005183247497 0.5322783174736205 0.1421967666088262	-0.167671
C	0.7049394259165701 0.4683912359378947 0.1365786410474573	0.101990
C	0.8037994636752487 0.4677216475263801 0.1421967666088262	-0.167652
C	0.4683912359378947 0.7049394259165701 0.8634213589525429	0.101993
C	0.4677216475263801 0.8037994636752487 0.8578032033911713	-0.167654
C	0.5316088340621044 0.2950605740834300 0.8634213589525429	0.102064
C	0.5322783174736205 0.1962005183247497 0.8578032033911713	-0.167667
C	0.7049394259165701 0.5316088340621044 0.8634213589525429	0.101990
C	0.8037994636752487 0.5322783174736205 0.8578032033911713	-0.167651
C	0.2950605740834300 0.4683912359378947 0.8634213589525429	0.102067
C	0.1962005183247497 0.4677216475263801 0.8578032033911713	-0.167670
C	0.5000000000000000 0.1442715183091252 -0.0000000000000000	0.167551
C	0.5000000000000000 0.0434478278499867 -0.0000000000000000	-0.095528
C	0.5000000000000000 0.8557284816908750 -0.0000000000000000	0.167513
C	0.5000000000000000 0.9565521151500191 -0.0000000000000000	-0.095276
C	0.8557284816908750 0.5000000000000000 -0.0000000000000000	0.167543
C	0.9565521151500191 0.5000000000000000 -0.0000000000000000	-0.095526
C	0.1442715183091252 0.5000000000000000 -0.0000000000000000	0.167520
C	0.0434478278499867 0.5000000000000000 -0.0000000000000000	-0.095277
H	0.5565028770244174 0.6632553863127674 0.2450552563059576	0.096355
H	0.5580620941531135 0.8405015333970889 0.2552765862894724	0.126821
H	0.4434971229755827 0.3367445436872339 0.2450552563059576	0.096340
H	0.4419379408468855 0.1594983966029123 0.2552765862894724	0.126823
H	0.3367445436872339 0.5565028770244174 0.2450552563059576	0.096341
H	0.1594983966029123 0.5580620941531135 0.2552765862894724	0.126822
H	0.6632553863127674 0.4434971229755827 0.2450552563059576	0.096355
H	0.8405015333970889 0.4419379408468855 0.2552765862894724	0.126822
H	0.4434971229755827 0.6632553863127674 0.7549447436940423	0.096355
H	0.4419379408468855 0.8405015333970889 0.7447234437105303	0.126820
H	0.5565028770244174 0.3367445436872339 0.7549447436940423	0.096340
H	0.5580620941531135 0.1594983966029123 0.7447234437105303	0.126822
H	0.6632553863127674 0.5565028770244174 0.7549447436940423	0.096355
H	0.8405015333970889 0.5580620941531135 0.7447234437105303	0.126821
H	0.3367445436872339 0.4434971229755827 0.7549447436940423	0.096341
H	0.1594983966029123 0.4419379408468855 0.7447234437105303	0.126821
Fe	0.5000000000000000 0.5000000000000000 -0.0000000000000000	0.812889
Ge	0.5000000000000000 0.5000000000000000 0.5000000000000000	1.766597
F	0.5000000000000000 0.5000000000000000 0.7412700962470238	-0.491765
F	0.5000000000000000 0.5000000000000000 0.2587299337529718	-0.491765
F	0.5912406395802907 0.5912406395802907 0.5000000000000000	-0.534639
F	0.4087593954197085 0.5912406395802907 0.5000000000000000	-0.534639
F	0.4087593954197085 0.4087593954197085 0.5000000000000000	-0.534638
F	0.5912406395802907 0.4087593954197085 0.5000000000000000	-0.534639
N	0.5000000000000000 0.3442564958227489 -0.0000000000000000	-0.251600
N	0.5000000000000000 0.6557434691772517 -0.0000000000000000	-0.251505
N	0.6557434691772517 0.5000000000000000 -0.0000000000000000	-0.251506
N	0.3442564958227489 0.5000000000000000 -0.0000000000000000	-0.251600
	  	
