#======================================================================

# CRYSTAL DATA

#----------------------------------------------------------------------

data_VESTA_phase_1


_pd_phase_name                         GeFSIX_5_Cu_i
_cell_length_a                         19.72926
_cell_length_b                         19.72926
_cell_length_c                         15.87461
_cell_angle_alpha                      90
_cell_angle_beta                       90
_cell_angle_gamma                      90
_symmetry_space_group_name_H-M         P 1
_symmetry_Int_Tables_number            1

loop_
_symmetry_equiv_pos_as_xyz
   x, y, z

loop_
   _atom_site_label
   _atom_site_fract_x
   _atom_site_fract_y
   _atom_site_fract_z
   _atom_site_charge
F	0.3211031040444287 0.1902289130056407 0.3512260237214059	-0.562053
F	0.1788968839555704 0.3097710869943592 0.3512260237214059	-0.562058
F	0.3097710869943592 0.3211031040444287 0.3512260237214059	-0.562056
F	0.1902289130056407 0.1788968839555704 0.3512260237214059	-0.562055
F	0.6788969199555660 0.6902289370056429 0.1487739762785942	-0.562055
F	0.8211030800444340 0.8097710629943571 0.1487739762785942	-0.562056
F	0.6902289370056429 0.8211030800444340 0.1487739762785942	-0.562057
F	0.8097710629943571 0.6788969199555660 0.1487739762785942	-0.562054
F	0.6788969199555660 0.8097710629943571 0.6487740082785967	-0.562058
F	0.8211030800444340 0.6902289370056429 0.6487740082785967	-0.562054
F	0.6902289370056429 0.6788969199555660 0.6487740082785967	-0.562056
F	0.8097710629943571 0.8211030800444340 0.6487740082785967	-0.562057
F	0.3211031040444287 0.3097710869943592 0.8512259917214033	-0.562057
F	0.1788968839555704 0.1902289130056407 0.8512259917214033	-0.562055
F	0.3097710869943592 0.1788968839555704 0.8512259917214033	-0.562055
F	0.1902289130056407 0.3211031040444287 0.8512259917214033	-0.562057
F	0.2500000000000000 0.2500000000000000 0.4664177303726850	-0.541375
F	0.2500000000000000 0.2500000000000000 0.2357056129452812	-0.542184
F	0.7500000000000000 0.7500000000000000 0.0335822966273136	-0.541375
F	0.7500000000000000 0.7500000000000000 0.2642943710547175	-0.542183
F	0.7500000000000000 0.7500000000000000 0.5335823006273139	-0.541374
F	0.7500000000000000 0.7500000000000000 0.7642943710547175	-0.542183
F	0.2500000000000000 0.2500000000000000 0.9664176993726861	-0.541374
F	0.2500000000000000 0.2500000000000000 0.7357056289452825	-0.542184
N	0.3528740264841078 0.2475270084659386 0.6013552242291459	-0.230810
N	0.1471259735158923 0.2524729915340614 0.6013552242291459	-0.230788
N	0.2524729915340614 0.3528740264841078 0.6013552242291459	-0.230810
N	0.2475270084659386 0.1471259735158923 0.6013552242291459	-0.230789
N	0.6471259975158942 0.7475269844659366 0.8986447757708541	-0.230788
N	0.8528740024841058 0.7524730155340634 0.8986447757708541	-0.230789
N	0.7475269844659366 0.8528740024841058 0.8986447757708541	-0.230789
N	0.7524730155340634 0.6471259975158942 0.8986447757708541	-0.230788
N	0.6471259975158942 0.7524730155340634 0.3986448067708531	-0.230787
N	0.8528740024841058 0.7475269844659366 0.3986448067708531	-0.230787
N	0.7475269844659366 0.6471259975158942 0.3986448067708531	-0.230786
N	0.7524730155340634 0.8528740024841058 0.3986448067708531	-0.230788
N	0.3528740264841078 0.2524729915340614 0.1013552242291460	-0.230808
N	0.1471259735158923 0.2475270084659386 0.1013552242291460	-0.230787
N	0.2524729915340614 0.1471259735158923 0.1013552242291460	-0.230786
N	0.2475270084659386 0.3528740264841078 0.1013552242291460	-0.230809
C	0.3861622013873320 0.2186310470254901 0.6661740082914805	0.104682
C	0.4564514739829448 0.2171577387188519 0.6697216340579160	-0.173938
C	0.4946681686182727 0.2471812212425913 0.6052187176775444	0.106106
C	0.4588913662393042 0.2769701044036822 0.5383556940568143	-0.176314
C	0.3885130234285575 0.2759131317644794 0.5381182086308017	0.102974
C	0.5693448841173357 0.2478892969478490 0.6081918278130972	0.055238
C	0.6057624654086555 0.1913589975824605 0.6375581757965747	-0.130487
C	0.6762108364453657 0.1921420284902147 0.6400778367862916	-0.123565
C	0.7126826296248761 0.2497940824900855 0.6147190064500602	0.067763
C	0.6762484602021818 0.3066075465190620 0.5865361523521839	-0.119423
C	0.6058516993916164 0.3054712828772677 0.5825197900596365	-0.128064
C	0.1138377746126731 0.2813689769745116 0.6661740082914805	0.104604
C	0.0435484660170574 0.2828422852811502 0.6697216340579160	-0.173909
C	0.0053318103817289 0.2528187787574086 0.6052187176775444	0.106132
C	0.0411086607606945 0.2230298955963179 0.5383556940568143	-0.176319
C	0.1114869405714395 0.2240868922355225 0.5381182086308017	0.102969
C	0.9306550678826674 0.2521106790521492 0.6081918278130972	0.055235
C	0.8942375825913413 0.3086410374175389 0.6375581757965747	-0.130483
C	0.8237891635546343 0.3078579835097791 0.6400778367862916	-0.123564
C	0.7873173703751239 0.2502058935099125 0.6147190064500602	0.067762
C	0.8237515867978186 0.1933924534809381 0.5865361523521839	-0.119418
C	0.8941483966083844 0.1945287521227317 0.5825197900596365	-0.128064
C	0.2813689769745116 0.3861622013873320 0.6661740082914805	0.104684
C	0.2828422852811502 0.4564514739829448 0.6697216340579160	-0.173941
C	0.2528187787574086 0.4946681686182727 0.6052187176775444	0.106105
C	0.2230298955963179 0.4588913662393042 0.5383556940568143	-0.176311
C	0.2240868922355225 0.3885130234285575 0.5381182086308017	0.102975
C	0.2521106790521492 0.5693448841173357 0.6081918278130972	0.055238
C	0.3086410374175389 0.6057624654086555 0.6375581757965747	-0.130487
C	0.3078579835097791 0.6762108364453657 0.6400778367862916	-0.123565
C	0.2502058935099125 0.7126826296248761 0.6147190064500602	0.067761
C	0.1933924534809381 0.6762484602021818 0.5865361523521839	-0.119421
C	0.1945287521227317 0.6058516993916164 0.5825197900596365	-0.128066
C	0.2186310470254901 0.1138377746126731 0.6661740082914805	0.104603
C	0.2171577387188519 0.0435484660170574 0.6697216340579160	-0.173906
C	0.2471812212425913 0.0053318103817289 0.6052187176775444	0.106133
C	0.2769701044036822 0.0411086607606945 0.5383556940568143	-0.176320
C	0.2759131317644794 0.1114869405714395 0.5381182086308017	0.102969
C	0.2478892969478490 0.9306550678826674 0.6081918278130972	0.055235
C	0.1913589975824605 0.8942375825913413 0.6375581757965747	-0.130483
C	0.1921420284902147 0.8237891635546343 0.6400778367862916	-0.123563
C	0.2497940824900855 0.7873173703751239 0.6147190064500602	0.067763
C	0.3066075465190620 0.8237515867978186 0.5865361523521839	-0.119420
C	0.3054712828772677 0.8941483966083844 0.5825197900596365	-0.128063
C	0.6138377746126733 0.7186310950254874 0.8338259917085195	0.104602
C	0.5435484780170585 0.7171577627188468 0.8302783659420840	-0.173905
C	0.5053318313817265 0.7471812692425890 0.8947812823224556	0.106132
C	0.5411087297606967 0.7769700564036782 0.9616443059431857	-0.176322
C	0.6114870005714373 0.7759131557644746 0.9618817913691983	0.102969
C	0.4306551158826646 0.7478893689478476 0.8918081721869028	0.055239
C	0.3942375345913448 0.6913589625824612 0.8624418242034253	-0.130485
C	0.3237890915546285 0.6921419924902190 0.8599221632137084	-0.123568
C	0.2873174183751280 0.7497941064900875 0.8852809935499398	0.067769
C	0.3237514917978143 0.8066075465190620 0.9134638476478161	-0.119425
C	0.3941483246083785 0.8054712118772650 0.9174802099403635	-0.128083
C	0.8861622253873267 0.7813689049745126 0.8338259917085195	0.104605
C	0.9564515219829415 0.7828422372811532 0.8302783659420840	-0.173910
C	0.9946682166182703 0.7528187307574110 0.8947812823224556	0.106134
C	0.9588913182393073 0.7230299435963218 0.9616443059431857	-0.176319
C	0.8885129994285627 0.7240868442355254 0.9618817913691983	0.102971
C	0.0693449201173312 0.7521106310521524 0.8918081721869028	0.055234
C	0.1057624534086543 0.8086410374175388 0.8624418242034253	-0.130485
C	0.1762108844453696 0.8078579595097841 0.8599221632137084	-0.123565
C	0.2126825816248721 0.7502058935099125 0.8852809935499398	0.067766
C	0.1762484842021836 0.6933924534809380 0.9134638476478161	-0.119422
C	0.1058516753916215 0.6945287411227347 0.9174802099403635	-0.128066
C	0.7186310950254874 0.8861622253873267 0.8338259917085195	0.104607
C	0.7171577627188468 0.9564515219829415 0.8302783659420840	-0.173907
C	0.7471812692425890 0.9946682166182703 0.8947812823224556	0.106133
C	0.7769700564036782 0.9588913182393073 0.9616443059431857	-0.176322
C	0.7759131557644746 0.8885129994285627 0.9618817913691983	0.102971
C	0.7478893689478476 0.0693449201173312 0.8918081721869028	0.055234
C	0.6913589625824612 0.1057624534086543 0.8624418242034253	-0.130486
C	0.6921419924902190 0.1762108844453696 0.8599221632137084	-0.123563
C	0.7497941064900875 0.2126825816248721 0.8852809935499398	0.067765
C	0.8066075465190620 0.1762484842021836 0.9134638476478161	-0.119422
C	0.8054712118772650 0.1058516753916215 0.9174802099403635	-0.128065
C	0.7813689049745126 0.6138377746126733 0.8338259917085195	0.104602
C	0.7828422372811532 0.5435484780170585 0.8302783659420840	-0.173908
C	0.7528187307574110 0.5053318313817265 0.8947812823224556	0.106133
C	0.7230299435963218 0.5411087297606967 0.9616443059431857	-0.176318
C	0.7240868442355254 0.6114870005714373 0.9618817913691983	0.102970
C	0.7521106310521524 0.4306551158826646 0.8918081721869028	0.055239
C	0.8086410374175388 0.3942375345913448 0.8624418242034253	-0.130484
C	0.8078579595097841 0.3237890915546285 0.8599221632137084	-0.123569
C	0.7502058935099125 0.2873174183751280 0.8852809935499398	0.067770
C	0.6933924534809380 0.3237514917978143 0.9134638476478161	-0.119425
C	0.6945287411227347 0.3941483246083785 0.9174802099403635	-0.128084
C	0.6138377746126733 0.7813689049745126 0.3338260227085187	0.104604
C	0.5435484780170585 0.7828422372811532 0.3302783659420843	-0.173908
C	0.5053318313817265 0.7528187307574110 0.3947812823224551	0.106132
C	0.5411087297606967 0.7230299435963218 0.4616443369431920	-0.176318
C	0.6114870005714373 0.7240868442355254 0.4618817913691982	0.102969
C	0.4306551158826646 0.7521106310521524 0.3918081721869028	0.055238
C	0.3942375345913448 0.8086410374175388 0.3624417932034268	-0.130483
C	0.3237890915546285 0.8078579595097841 0.3599221942137073	-0.123570
C	0.2873174183751280 0.7502058935099125 0.3852808995499393	0.067770
C	0.3237514917978143 0.6933924534809380 0.4134638786478151	-0.119423
C	0.3941483246083785 0.6945287411227347 0.4174802099403638	-0.128084
C	0.8861622253873267 0.7186310950254874 0.3338260227085187	0.104604
C	0.9564515219829415 0.7171577627188468 0.3302783659420843	-0.173906
C	0.9946682166182703 0.7471812692425890 0.3947812823224551	0.106135
C	0.9588913182393073 0.7769700564036782 0.4616443369431920	-0.176323
C	0.8885129994285627 0.7759131557644746 0.4618817913691982	0.102972
C	0.0693449201173312 0.7478893689478476 0.3918081721869028	0.055234
C	0.1057624534086543 0.6913589625824612 0.3624417932034268	-0.130485
C	0.1762108844453696 0.6921419924902190 0.3599221942137073	-0.123565
C	0.2126825816248721 0.7497941064900875 0.3852808995499393	0.067766
C	0.1762484842021836 0.8066075465190620 0.4134638786478151	-0.119424
C	0.1058516753916215 0.8054712118772650 0.4174802099403638	-0.128063
C	0.7186310950254874 0.6138377746126733 0.3338260227085187	0.104604
C	0.7171577627188468 0.5435484780170585 0.3302783659420843	-0.173906
C	0.7471812692425890 0.5053318313817265 0.3947812823224551	0.106133
C	0.7769700564036782 0.5411087297606967 0.4616443369431920	-0.176320
C	0.7759131557644746 0.6114870005714373 0.4618817913691982	0.102969
C	0.7478893689478476 0.4306551158826646 0.3918081721869028	0.055239
C	0.6913589625824612 0.3942375345913448 0.3624417932034268	-0.130483
C	0.6921419924902190 0.3237890915546285 0.3599221942137073	-0.123569
C	0.7497941064900875 0.2873174183751280 0.3852808995499393	0.067772
C	0.8066075465190620 0.3237514917978143 0.4134638786478151	-0.119424
C	0.8054712118772650 0.3941483246083785 0.4174802099403638	-0.128083
C	0.7813689049745126 0.8861622253873267 0.3338260227085187	0.104606
C	0.7828422372811532 0.9564515219829415 0.3302783659420843	-0.173908
C	0.7528187307574110 0.9946682166182703 0.3947812823224551	0.106133
C	0.7230299435963218 0.9588913182393073 0.4616443369431920	-0.176320
C	0.7240868442355254 0.8885129994285627 0.4618817913691982	0.102973
C	0.7521106310521524 0.0693449201173312 0.3918081721869028	0.055234
C	0.8086410374175388 0.1057624534086543 0.3624417932034268	-0.130486
C	0.8078579595097841 0.1762108844453696 0.3599221942137073	-0.123566
C	0.7502058935099125 0.2126825816248721 0.3852808995499393	0.067764
C	0.6933924534809380 0.1762484842021836 0.4134638786478151	-0.119423
C	0.6945287411227347 0.1058516753916215 0.4174802099403638	-0.128064
C	0.3861622013873320 0.2813689769745116 0.1661739932914827	0.104684
C	0.4564514739829448 0.2828422852811502 0.1697216030579169	-0.173941
C	0.4946681686182727 0.2528187787574086 0.1052187176775446	0.106106
C	0.4588913662393042 0.2230298955963179 0.0383556590568148	-0.176310
C	0.3885130234285575 0.2240868922355225 0.0381182006308011	0.102973
C	0.5693448841173357 0.2521106790521492 0.1081918198130966	0.055238
C	0.6057624654086555 0.3086410374175389 0.1375581757965743	-0.130485
C	0.6762108364453657 0.3078579835097791 0.1400777897862913	-0.123566
C	0.7126826296248761 0.2502058935099125 0.1147190774500625	0.067764
C	0.6762484602021818 0.1933924534809381 0.0865361363521825	-0.119422
C	0.6058516993916164 0.1945287521227317 0.0825198050596340	-0.128066
C	0.1138377746126731 0.2186310470254901 0.1661739932914827	0.104602
C	0.0435484660170574 0.2171577387188519 0.1697216030579169	-0.173905
C	0.0053318103817289 0.2471812212425913 0.1052187176775446	0.106132
C	0.0411086607606945 0.2769701044036822 0.0383556590568148	-0.176322
C	0.1114869405714395 0.2759131317644794 0.0381182006308011	0.102969
C	0.9306550678826674 0.2478892969478490 0.1081918198130966	0.055235
C	0.8942375825913413 0.1913589975824605 0.1375581757965743	-0.130484
C	0.8237891635546343 0.1921420284902147 0.1400777897862913	-0.123565
C	0.7873173703751239 0.2497940824900855 0.1147190774500625	0.067762
C	0.8237515867978186 0.3066075465190620 0.0865361363521825	-0.119421
C	0.8941483966083844 0.3054712828772677 0.0825198050596340	-0.128061
C	0.2813689769745116 0.1138377746126731 0.1661739932914827	0.104603
C	0.2828422852811502 0.0435484660170574 0.1697216030579169	-0.173907
C	0.2528187787574086 0.0053318103817289 0.1052187176775446	0.106133
C	0.2230298955963179 0.0411086607606945 0.0383556590568148	-0.176318
C	0.2240868922355225 0.1114869405714395 0.0381182006308011	0.102970
C	0.2521106790521492 0.9306550678826674 0.1081918198130966	0.055235
C	0.3086410374175389 0.8942375825913413 0.1375581757965743	-0.130483
C	0.3078579835097791 0.8237891635546343 0.1400777897862913	-0.123566
C	0.2502058935099125 0.7873173703751239 0.1147190774500625	0.067764
C	0.1933924534809381 0.8237515867978186 0.0865361363521825	-0.119421
C	0.1945287521227317 0.8941483966083844 0.0825198050596340	-0.128063
C	0.2186310470254901 0.3861622013873320 0.1661739932914827	0.104686
C	0.2171577387188519 0.4564514739829448 0.1697216030579169	-0.173938
C	0.2471812212425913 0.4946681686182727 0.1052187176775446	0.106105
C	0.2769701044036822 0.4588913662393042 0.0383556590568148	-0.176313
C	0.2759131317644794 0.3885130234285575 0.0381182006308011	0.102974
C	0.2478892969478490 0.5693448841173357 0.1081918198130966	0.055238
C	0.1913589975824605 0.6057624654086555 0.1375581757965743	-0.130487
C	0.1921420284902147 0.6762108364453657 0.1400777897862913	-0.123565
C	0.2497940824900855 0.7126826296248761 0.1147190774500625	0.067762
C	0.3066075465190620 0.6762484602021818 0.0865361363521825	-0.119421
C	0.3054712828772677 0.6058516993916164 0.0825198050596340	-0.128065
H	0.3553805834853175 0.1976388793767706 0.7169662597683233	0.104122
H	0.4811189201234668 0.1943534117579462 0.7241712775685490	0.116245
H	0.4856460614562386 0.2998382868130391 0.4854746777758835	0.116363
H	0.3594569924077224 0.2972738408375035 0.4859636279390319	0.104855
H	0.5782586729672953 0.1459811456094572 0.6570723733430082	0.100409
H	0.7035324404760632 0.1478754720224567 0.6632396781210589	0.101026
H	0.7035874443379918 0.3514306825189445 0.5651119932897501	0.102523
H	0.5784926609182988 0.3500898658091584 0.5603072851148219	0.104495
H	0.1446193805146797 0.3023611446232314 0.7169662597683233	0.104131
H	0.0188810858765264 0.3056466122420560 0.7241712775685490	0.116247
H	0.0143539275437640 0.2001617251869617 0.4854746777758835	0.116362
H	0.1405430315922794 0.2027261471624957 0.4859636279390319	0.104855
H	0.9217413740327051 0.3540188543905426 0.6570723733430082	0.100410
H	0.7964675595239368 0.3521245159775425 0.6632396781210589	0.101025
H	0.7964125556620082 0.1485693294810566 0.5651119932897501	0.102527
H	0.9215073390817012 0.1499101221908478 0.5603072851148219	0.104498
H	0.3023611446232314 0.3553805834853175 0.7169662597683233	0.104122
H	0.3056466122420560 0.4811189201234668 0.7241712775685490	0.116248
H	0.2001617251869617 0.4856460614562386 0.4854746777758835	0.116362
H	0.2027261471624957 0.3594569924077224 0.4859636279390319	0.104855
H	0.3540188543905426 0.5782586729672953 0.6570723733430082	0.100409
H	0.3521245159775425 0.7035324404760632 0.6632396781210589	0.101025
H	0.1485693294810566 0.7035874443379918 0.5651119932897501	0.102525
H	0.1499101221908478 0.5784926609182988 0.5603072851148219	0.104499
H	0.1976388793767706 0.1446193805146797 0.7169662597683233	0.104131
H	0.1943534117579462 0.0188810858765264 0.7241712775685490	0.116245
H	0.2998382868130391 0.0143539275437640 0.4854746777758835	0.116363
H	0.2972738408375035 0.1405430315922794 0.4859636279390319	0.104855
H	0.1459811456094572 0.9217413740327051 0.6570723733430082	0.100411
H	0.1478754720224567 0.7964675595239368 0.6632396781210589	0.101026
H	0.3514306825189445 0.7964125556620082 0.5651119932897501	0.102524
H	0.3500898658091584 0.9215073390817012 0.5603072851148219	0.104496
H	0.6446193685146788 0.6976388793767707 0.7830337402316767	0.104132
H	0.5188810318765288 0.6943533877579439 0.7758287224314510	0.116245
H	0.5143539385437615 0.7998382868130396 0.0145253072241116	0.116362
H	0.6405430075922777 0.7972738168375011 0.0140364000609702	0.104854
H	0.4217413270327049 0.6459811456094573 0.8429276266569918	0.100411
H	0.2964675835239388 0.6478754840224579 0.8367603218789411	0.101027
H	0.2964125556620080 0.8514306825189447 0.9348880067102499	0.102537
H	0.4215073870816977 0.8500898898091531 0.9396927148851781	0.104499
H	0.8553806794853180 0.8023611686232333 0.7830337402316767	0.104132
H	0.9811188721234704 0.8056466122420561 0.7758287224314510	0.116246
H	0.9856460134562416 0.7001617131869604 0.0145253072241116	0.116364
H	0.8594568964077215 0.7027261831624989 0.0140364000609702	0.104857
H	0.0782586729672952 0.8540188543905427 0.8429276266569918	0.100408
H	0.2035324164760612 0.8521245159775421 0.8367603218789411	0.101024
H	0.2035874443379918 0.6485693654810522 0.9348880067102499	0.102525
H	0.0784926549182986 0.6499101101908469 0.9396927148851781	0.104496
H	0.6976388793767707 0.8553806794853180 0.7830337402316767	0.104132
H	0.6943533877579439 0.9811188721234704 0.7758287224314510	0.116246
H	0.7998382868130396 0.9856460134562416 0.0145253072241116	0.116365
H	0.7972738168375011 0.8594568964077215 0.0140364000609702	0.104856
H	0.6459811456094573 0.0782586729672952 0.8429276266569918	0.100411
H	0.6478754840224579 0.2035324164760612 0.8367603218789411	0.101026
H	0.8514306825189447 0.2035874443379918 0.9348880067102499	0.102524
H	0.8500898898091531 0.0784926549182986 0.9396927148851781	0.104497
H	0.8023611686232333 0.6446193685146788 0.7830337402316767	0.104132
H	0.8056466122420561 0.5188810318765288 0.7758287224314510	0.116246
H	0.7001617131869604 0.5143539385437615 0.0145253072241116	0.116361
H	0.7027261831624989 0.6405430075922777 0.0140364000609702	0.104854
H	0.8540188543905427 0.4217413270327049 0.8429276266569918	0.100409
H	0.8521245159775421 0.2964675835239388 0.8367603218789411	0.101025
H	0.6485693654810522 0.2964125556620080 0.9348880067102499	0.102538
H	0.6499101101908469 0.4215073870816977 0.9396927148851781	0.104500
H	0.6446193685146788 0.8023611686232333 0.2830337722316721	0.104131
H	0.5188810318765288 0.8056466122420561 0.2758287534314498	0.116246
H	0.5143539385437615 0.7001617131869604 0.5145252912241176	0.116360
H	0.6405430075922777 0.7027261831624989 0.5140363720609675	0.104855
H	0.4217413270327049 0.8540188543905427 0.3429275956569927	0.100410
H	0.2964675835239388 0.8521245159775421 0.3367602898789384	0.101026
H	0.2964125556620080 0.6485693654810522 0.4348880377102489	0.102540
H	0.4215073870816977 0.6499101101908469 0.4396927768851759	0.104499
H	0.8553806794853180 0.6976388793767707 0.2830337722316721	0.104133
H	0.9811188721234704 0.6943533877579439 0.2758287534314498	0.116243
H	0.9856460134562416 0.7998382868130396 0.5145252912241176	0.116363
H	0.8594568964077215 0.7972738168375011 0.5140363720609675	0.104855
H	0.0782586729672952 0.6459811456094573 0.3429275956569927	0.100409
H	0.2035324164760612 0.6478754840224579 0.3367602898789384	0.101026
H	0.2035874443379918 0.8514306825189447 0.4348880377102489	0.102522
H	0.0784926549182986 0.8500898898091531 0.4396927768851759	0.104495
H	0.6976388793767707 0.6446193685146788 0.2830337722316721	0.104131
H	0.6943533877579439 0.5188810318765288 0.2758287534314498	0.116243
H	0.7998382868130396 0.5143539385437615 0.5145252912241176	0.116361
H	0.7972738168375011 0.6405430075922777 0.5140363720609675	0.104855
H	0.6459811456094573 0.4217413270327049 0.3429275956569927	0.100411
H	0.6478754840224579 0.2964675835239388 0.3367602898789384	0.101027
H	0.8514306825189447 0.2964125556620080 0.4348880377102489	0.102538
H	0.8500898898091531 0.4215073870816977 0.4396927768851759	0.104497
H	0.8023611686232333 0.8553806794853180 0.2830337722316721	0.104132
H	0.8056466122420561 0.9811188721234704 0.2758287534314498	0.116246
H	0.7001617131869604 0.9856460134562416 0.5145252912241176	0.116362
H	0.7027261831624989 0.8594568964077215 0.5140363720609675	0.104855
H	0.8540188543905427 0.0782586729672952 0.3429275956569927	0.100408
H	0.8521245159775421 0.2035324164760612 0.3367602898789384	0.101025
H	0.6485693654810522 0.2035874443379918 0.4348880377102489	0.102524
H	0.6499101101908469 0.0784926549182986 0.4396927768851759	0.104498
H	0.3553805834853175 0.3023611446232314 0.2169662597683234	0.104121
H	0.4811189201234668 0.3056466122420560 0.2241712925685539	0.116245
H	0.4856460614562386 0.2001617251869617 0.9854747397758885	0.116360
H	0.3594569924077224 0.2027261471624957 0.9859635969390335	0.104856
H	0.5782586729672953 0.3540188543905426 0.1570723883430059	0.100408
H	0.7035324404760632 0.3521245159775425 0.1632397251210592	0.101024
H	0.7035874443379918 0.1485693294810566 0.0651119542897504	0.102525
H	0.5784926609182988 0.1499101221908478 0.0603072461148225	0.104495
H	0.1446193805146797 0.1976388793767706 0.2169662597683234	0.104132
H	0.0188810858765264 0.1943534117579462 0.2241712925685539	0.116244
H	0.0143539275437640 0.2998382868130391 0.9854747397758885	0.116360
H	0.1405430315922794 0.2972738408375035 0.9859635969390335	0.104854
H	0.9217413740327051 0.1459811456094572 0.1570723883430059	0.100410
H	0.7964675595239368 0.1478754720224567 0.1632397251210592	0.101026
H	0.7964125556620082 0.3514306825189445 0.0651119542897504	0.102524
H	0.9215073390817012 0.3500898658091584 0.0603072461148225	0.104496
H	0.3023611446232314 0.1446193805146797 0.2169662597683234	0.104132
H	0.3056466122420560 0.0188810858765264 0.2241712925685539	0.116244
H	0.2001617251869617 0.0143539275437640 0.9854747397758885	0.116359
H	0.2027261471624957 0.1405430315922794 0.9859635969390335	0.104854
H	0.3540188543905426 0.9217413740327051 0.1570723883430059	0.100408
H	0.3521245159775425 0.7964675595239368 0.1632397251210592	0.101025
H	0.1485693294810566 0.7964125556620082 0.0651119542897504	0.102526
H	0.1499101221908478 0.9215073390817012 0.0603072461148225	0.104497
H	0.1976388793767706 0.3553805834853175 0.2169662597683234	0.104121
H	0.1943534117579462 0.4811189201234668 0.2241712925685539	0.116245
H	0.2998382868130391 0.4856460614562386 0.9854747397758885	0.116362
H	0.2972738408375035 0.3594569924077224 0.9859635969390335	0.104856
H	0.1459811456094572 0.5782586729672953 0.1570723883430059	0.100411
H	0.1478754720224567 0.7035324404760632 0.1632397251210592	0.101025
H	0.3514306825189445 0.7035874443379918 0.0651119542897504	0.102523
H	0.3500898658091584 0.5784926609182988 0.0603072461148225	0.104495
Cu	0.2500000000000000 0.2500000000000000 0.6006395648966096	0.728932
Cu	0.7500000000000000 0.7500000000000000 0.8993604351033904	0.728929
Cu	0.7500000000000000 0.7500000000000000 0.3993603731033928	0.728924
Cu	0.2500000000000000 0.2500000000000000 0.1006395878966076	0.728928
Ge	0.2500000000000000 0.2500000000000000 0.3511525307920896	1.786030
Ge	0.7500000000000000 0.7500000000000000 0.1488474842079079	1.786030
Ge	0.7500000000000000 0.7500000000000000 0.6488475622079076	1.786032
Ge	0.2500000000000000 0.2500000000000000 0.8511524377920924	1.786032
	  	
