#======================================================================

# CRYSTAL DATA

#----------------------------------------------------------------------

data_VESTA_phase_1


_pd_phase_name                         GeFSIX_4_Cu_i
_cell_length_a                         23.45083
_cell_length_b                         20.26893
_cell_length_c                         9.57739
_cell_angle_alpha                      90
_cell_angle_beta                       90
_cell_angle_gamma                      90
_symmetry_space_group_name_H-M         P 1
_symmetry_Int_Tables_number            1

loop_
_symmetry_equiv_pos_as_xyz
   x, y, z

loop_
   _atom_site_label
   _atom_site_fract_x
   _atom_site_fract_y
   _atom_site_fract_z
   _atom_site_charge
C	0.4171458691227969 0.5983070384698118 0.6296278943055068	0.102280
C	0.3732247360464421 0.5524421690353237 0.6278052987328954	-0.163273
C	0.2773848538030584 0.4490317864541600 0.6276661747963255	-0.114216
C	0.2313360119171607 0.4060536891450021 0.6263894793727144	-0.114057
C	0.1295345106238929 0.3194311672769954 0.6249917663022337	-0.163038
C	0.0827621226429737 0.2776365445672028 0.6281768068052784	0.094366
C	0.9171459521227930 0.0983070494698162 0.6296278943055068	0.102280
C	0.8732246940464456 0.0524421110353263 0.6278052987328954	-0.163273
C	0.7773848748030633 0.9490318334541605 0.6276661747963255	-0.114216
C	0.7313359919171590 0.9060537351449985 0.6263894793727144	-0.114056
C	0.6295345106238929 0.8194312142769957 0.6249917663022337	-0.163039
C	0.5827621076429688 0.7776366375671998 0.6281768068052784	0.094366
C	0.5828541308772032 0.4016929155301847 0.1296279023055077	0.102281
C	0.6267753059535544 0.4475578769646798 0.1278053137328930	-0.163274
C	0.7226151251969367 0.5509681665458395 0.1276661827963255	-0.114206
C	0.7686640080828410 0.5939463108549982 0.1263894873727148	-0.114070
C	0.8704654893761071 0.6805688327230045 0.1249917733022382	-0.163038
C	0.9172378923570312 0.7223634094328005 0.1281768218052761	0.094366
C	0.0828541418772075 0.9016930085301885 0.1296279023055077	0.102280
C	0.1267752639535579 0.9475577849646796 0.1278053137328930	-0.163274
C	0.2226151671969399 0.0509682135458401 0.1276661827963255	-0.114214
C	0.2686639670828410 0.0939462878549996 0.1263894873727148	-0.114055
C	0.3704655313761105 0.1805688437230021 0.1249917733022382	-0.163047
C	0.4172378923570313 0.2223634794327989 0.1281768218052761	0.094444
C	0.5828541308772032 0.5983070384698118 0.8703720746944942	0.102280
C	0.6267753059535544 0.5524421690353237 0.8721946702671056	-0.163273
C	0.7226151251969367 0.4490317864541600 0.8723338562036735	-0.114215
C	0.7686640080828410 0.4060536891450021 0.8736105516272846	-0.114057
C	0.8704654893761071 0.3194311672769954 0.8750082646977653	-0.163039
C	0.9172378923570312 0.2776365445672028 0.8718232241947206	0.094366
C	0.0828541418772075 0.0983070494698162 0.8703720746944942	0.102280
C	0.1267752639535579 0.0524421110353263 0.8721946702671056	-0.163273
C	0.2226151671969399 0.9490318334541605 0.8723338562036735	-0.114215
C	0.2686639670828410 0.9060537351449985 0.8736105516272846	-0.114054
C	0.3704655313761105 0.8194312142769958 0.8750082646977653	-0.163048
C	0.4172378923570313 0.7776366375671998 0.8718232241947206	0.094444
C	0.4171458691227969 0.4016929155301847 0.3703721056944927	0.102280
C	0.3732247360464421 0.4475578769646798 0.3721946702671057	-0.163274
C	0.2773848538030584 0.5509681665458395 0.3723338252036751	-0.114192
C	0.2313360119171607 0.5939463108549982 0.3736104896272870	-0.114081
C	0.1295345106238929 0.6805688327230045 0.3750082026977598	-0.163039
C	0.0827621226429737 0.7223634094328005 0.3718231621947228	0.094366
C	0.9171459521227930 0.9016930085301885 0.3703721056944927	0.102280
C	0.8732246940464456 0.9475577849646796 0.3721946702671057	-0.163274
C	0.7773848748030633 0.0509682135458401 0.3723338252036751	-0.114200
C	0.7313359919171590 0.0939462878549996 0.3736104896272870	-0.114068
C	0.6295345106238929 0.1805688437230021 0.3750082026977598	-0.163039
C	0.5827621076429688 0.2223634794327989 0.3718231621947228	0.094365
C	0.5828541308772032 0.4016929155301847 0.3703721056944927	0.102281
C	0.6267753059535544 0.4475578769646798 0.3721946702671057	-0.163274
C	0.7226151251969367 0.5509681665458395 0.3723338252036751	-0.114192
C	0.7686640080828410 0.5939463108549982 0.3736104896272870	-0.114081
C	0.8704654893761071 0.6805688327230045 0.3750082026977598	-0.163039
C	0.9172378923570312 0.7223634094328005 0.3718231621947228	0.094365
C	0.0828541418772075 0.9016930085301885 0.3703721056944927	0.102281
C	0.1267752639535579 0.9475577849646796 0.3721946702671057	-0.163274
C	0.2226151671969399 0.0509682135458401 0.3723338252036751	-0.114200
C	0.2686639670828410 0.0939462878549996 0.3736104896272870	-0.114066
C	0.3704655313761105 0.1805688437230021 0.3750082026977598	-0.163048
C	0.4172378923570313 0.2223634794327989 0.3718231621947228	0.094443
C	0.4171458691227969 0.5983070384698118 0.8703720746944942	0.102280
C	0.3732247360464421 0.5524421690353237 0.8721946702671056	-0.163273
C	0.2773848538030584 0.4490317864541600 0.8723338562036735	-0.114216
C	0.2313360119171607 0.4060536891450021 0.8736105516272846	-0.114057
C	0.1295345106238929 0.3194311672769954 0.8750082646977653	-0.163040
C	0.0827621226429737 0.2776365445672028 0.8718232241947206	0.094365
C	0.9171459521227930 0.0983070494698162 0.8703720746944942	0.102280
C	0.8732246940464456 0.0524421110353263 0.8721946702671056	-0.163273
C	0.7773848748030633 0.9490318334541605 0.8723338562036735	-0.114216
C	0.7313359919171590 0.9060537351449985 0.8736105516272846	-0.114057
C	0.6295345106238929 0.8194312142769958 0.8750082646977653	-0.163040
C	0.5827621076429688 0.7776366375671998 0.8718232241947206	0.094365
C	0.4171458691227969 0.4016929155301847 0.1296279023055077	0.102281
C	0.3732247360464421 0.4475578769646798 0.1278053137328930	-0.163274
C	0.2773848538030584 0.5509681665458395 0.1276661827963255	-0.114206
C	0.2313360119171607 0.5939463108549982 0.1263894873727148	-0.114070
C	0.1295345106238929 0.6805688327230045 0.1249917733022382	-0.163040
C	0.0827621226429737 0.7223634094328005 0.1281768218052761	0.094365
C	0.9171459521227930 0.9016930085301885 0.1296279023055077	0.102281
C	0.8732246940464456 0.9475577849646796 0.1278053137328930	-0.163273
C	0.7773848748030633 0.0509682135458401 0.1276661827963255	-0.114214
C	0.7313359919171590 0.0939462878549996 0.1263894873727148	-0.114057
C	0.6295345106238929 0.1805688437230021 0.1249917733022382	-0.163040
C	0.5827621076429688 0.2223634794327989 0.1281768218052761	0.094365
C	0.5828541308772032 0.5983070384698118 0.6296278943055068	0.102281
C	0.6267753059535544 0.5524421690353237 0.6278052987328954	-0.163273
C	0.7226151251969367 0.4490317864541600 0.6276661747963255	-0.114215
C	0.7686640080828410 0.4060536891450021 0.6263894793727144	-0.114057
C	0.8704654893761071 0.3194311672769954 0.6249917663022337	-0.163040
C	0.9172378923570312 0.2776365445672028 0.6281768068052784	0.094365
C	0.0828541418772075 0.0983070494698162 0.6296278943055068	0.102281
C	0.1267752639535579 0.0524421110353263 0.6278052987328954	-0.163273
C	0.2226151671969399 0.9490318334541605 0.6276661747963255	-0.114215
C	0.2686639670828410 0.9060537351449985 0.6263894793727144	-0.114054
C	0.3704655313761105 0.8194312142769958 0.6249917663022337	-0.163049
C	0.4172378923570313 0.7776366375671998 0.6281768068052784	0.094444
C	0.3490657587900006 0.5255751332689222 0.7500000149999977	0.117624
C	0.3019889620822123 0.4751117225761183 0.7500000149999977	0.072992
C	0.2055331243573371 0.3842818659217180 0.7500000149999977	0.065320
C	0.1549363382001954 0.3410090044622124 0.7500000149999977	0.104948
C	0.8490657167900048 0.0255751162689242 0.7500000149999977	0.117623
C	0.8019890240822103 0.9751116755761181 0.7500000149999977	0.072992
C	0.7055331243573373 0.8842818889217159 0.7500000149999977	0.065320
C	0.6549363382001954 0.8410089354622104 0.7500000149999977	0.104948
C	0.6509342412099989 0.4744249127310746 0.2500000000000000	0.117623
C	0.6980109759177897 0.5248882774238816 0.2500000000000000	0.072987
C	0.7944668756426627 0.6157181580782844 0.2500000000000000	0.065331
C	0.8450637027998116 0.6589909725377890 0.2500000000000000	0.104947
C	0.1509342522099967 0.9744249597310748 0.2500000000000000	0.117624
C	0.1980110589177860 0.0248882804238783 0.2500000000000000	0.072990
C	0.2944668756426629 0.1157181110782838 0.2500000000000000	0.065315
C	0.3450636617998047 0.1589910065377918 0.2500000000000000	0.104941
C	0.6509342412099989 0.5255751332689222 0.7500000149999977	0.117623
C	0.6980109759177897 0.4751117225761183 0.7500000149999977	0.072992
C	0.7944668756426627 0.3842818659217180 0.7500000149999977	0.065320
C	0.8450637027998116 0.3410090044622124 0.7500000149999977	0.104948
C	0.1509342522099967 0.0255751162689242 0.7500000149999977	0.117623
C	0.1980110589177860 0.9751116755761180 0.7500000149999977	0.072993
C	0.2944668756426629 0.8842818889217159 0.7500000149999977	0.065310
C	0.3450636617998047 0.8410089354622104 0.7500000149999977	0.104942
C	0.3490657587900006 0.4744249127310746 0.2500000000000000	0.117624
C	0.3019889620822123 0.5248882774238816 0.2500000000000000	0.072987
C	0.2055331243573371 0.6157181580782844 0.2500000000000000	0.065331
C	0.1549363382001954 0.6589909725377890 0.2500000000000000	0.104947
C	0.8490657167900048 0.9744249597310748 0.2500000000000000	0.117624
C	0.8019890240822103 0.0248882804238783 0.2500000000000000	0.072989
C	0.7055331243573373 0.1157181110782838 0.2500000000000000	0.065326
C	0.6549363382001954 0.1589910065377918 0.2500000000000000	0.104947
H	0.4351893512877096 0.6177242967853863 0.5324706370765083	0.112594
H	0.3597065420326685 0.5395579311172906 0.5241448712589545	0.106348
H	0.2934023035186900 0.4612132443668725 0.5259484337611221	0.085653
H	0.2157371967576995 0.3898104788150437 0.5249686166456160	0.104949
H	0.1455231048582120 0.3341461734676411 0.5230911204071645	0.123552
H	0.0628532577409690 0.2594287901865647 0.5323174139852358	0.112816
H	0.9351893092877062 0.1177243317853854 0.5324706370765083	0.112594
H	0.8597065010326685 0.0395578671172853 0.5241448712589546	0.106348
H	0.7934022825186920 0.9612132443668722 0.5259484337611221	0.085654
H	0.7157371547576958 0.8898104098150483 0.5249686166456160	0.104949
H	0.6455230948582112 0.8341461734676410 0.5230911204071645	0.123552
H	0.5628532887409682 0.7594287671865664 0.5323174139852358	0.112816
H	0.5648106487122904 0.3822757032146140 0.0324706990765064	0.112594
H	0.6402934579673316 0.4604421158827097 0.0241448712589545	0.106348
H	0.7065977174813080 0.5387867096331240 0.0259484957611205	0.085653
H	0.7842628452423042 0.6101894981849512 0.0249685556456143	0.104955
H	0.8544769051417888 0.6658537805323552 0.0230911204071644	0.123550
H	0.9371466702590320 0.7405712328134336 0.0323173829852362	0.112816
H	0.0648106547122908 0.8822757032146137 0.0324706990765064	0.112594
H	0.1402934989673314 0.9604421158827098 0.0241448712589545	0.106348
H	0.2065977174813082 0.0387867526331239 0.0259484957611205	0.085654
H	0.2842628032423006 0.1101895321849538 0.0249685556456143	0.104950
H	0.3544769051417890 0.1658538035323532 0.0230911204071644	0.123509
H	0.4371467112590321 0.2405712098134353 0.0323173829852362	0.112808
H	0.5648106487122904 0.6177242967853863 -0.0324706560765063	0.112594
H	0.6402934579673316 0.5395579311172906 -0.0241448982589603	0.106348
H	0.7065977174813080 0.4612132443668725 -0.0259484517611168	0.085653
H	0.7842628452423042 0.3898104788150437 -0.0249686096456118	0.104949
H	0.8544769051417888 0.3341461734676411 -0.0230911204071644	0.123552
H	0.9371466702590320 0.2594287901865647 -0.0323174209852396	0.112816
H	0.0648106547122908 0.1177243317853854 -0.0324706560765063	0.112594
H	0.1402934989673314 0.0395578671172853 -0.0241448982589603	0.106348
H	0.2065977174813082 0.9612132443668722 -0.0259484517611168	0.085653
H	0.2842628032423006 0.8898104098150483 -0.0249686096456118	0.104950
H	0.3544769051417890 0.8341461734676410 -0.0230911204071643	0.123510
H	0.4371467112590321 0.7594287671865664 -0.0323174209852396	0.112808
H	0.4351893512877096 0.3822757032146140 0.4675293319234927	0.112594
H	0.3597065420326685 0.4604421158827097 0.4758551597410444	0.106348
H	0.2934023035186900 0.5387867096331240 0.4740515352388784	0.085649
H	0.2157371967576995 0.6101894981849512 0.4750313523543851	0.104952
H	0.1455231048582120 0.6658537805323552 0.4769088485928366	0.123550
H	0.0628532577409690 0.7405712328134336 0.4676825860147647	0.112816
H	0.9351893092877062 0.8822757032146137 0.4675293319234927	0.112594
H	0.8597065010326685 0.9604421158827098 0.4758551597410444	0.106348
H	0.7934022825186920 0.0387867526331239 0.4740515352388784	0.085649
H	0.7157371547576958 0.1101895321849538 0.4750313523543851	0.104947
H	0.6455230948582112 0.1658538035323532 0.4769088485928366	0.123552
H	0.5628532887409682 0.2405712098134353 0.4676825860147647	0.112816
H	0.5648106487122904 0.3822757032146140 0.4675293319234927	0.112594
H	0.6402934579673316 0.4604421158827097 0.4758551597410444	0.106348
H	0.7065977174813080 0.5387867096331240 0.4740515352388784	0.085649
H	0.7842628452423042 0.6101894981849512 0.4750313523543851	0.104953
H	0.8544769051417888 0.6658537805323552 0.4769088485928366	0.123550
H	0.9371466702590320 0.7405712328134336 0.4676825860147647	0.112816
H	0.0648106547122908 0.8822757032146137 0.4675293319234927	0.112594
H	0.1402934989673314 0.9604421158827098 0.4758551597410444	0.106348
H	0.2065977174813082 0.0387867526331239 0.4740515352388784	0.085650
H	0.2842628032423006 0.1101895321849538 0.4750313523543851	0.104948
H	0.3544769051417890 0.1658538035323532 0.4769088485928366	0.123509
H	0.4371467112590321 0.2405712098134353 0.4676825860147647	0.112807
H	0.4351893512877096 0.6177242967853863 -0.0324706560765063	0.112594
H	0.3597065420326685 0.5395579311172906 -0.0241448982589603	0.106348
H	0.2934023035186900 0.4612132443668725 -0.0259484517611168	0.085653
H	0.2157371967576995 0.3898104788150437 -0.0249686096456118	0.104950
H	0.1455231048582120 0.3341461734676411 -0.0230911204071643	0.123552
H	0.0628532577409690 0.2594287901865647 -0.0323174209852396	0.112816
H	0.9351893092877062 0.1177243317853854 -0.0324706560765063	0.112594
H	0.8597065010326685 0.0395578671172853 -0.0241448982589603	0.106348
H	0.7934022825186920 0.9612132443668722 -0.0259484517611168	0.085653
H	0.7157371547576958 0.8898104098150483 -0.0249686096456118	0.104950
H	0.6455230948582112 0.8341461734676410 -0.0230911204071643	0.123552
H	0.5628532887409682 0.7594287671865664 -0.0323174209852396	0.112816
H	0.4351893512877096 0.3822757032146140 0.0324706990765064	0.112594
H	0.3597065420326685 0.4604421158827097 0.0241448712589545	0.106348
H	0.2934023035186900 0.5387867096331240 0.0259484957611205	0.085653
H	0.2157371967576995 0.6101894981849512 0.0249685556456143	0.104955
H	0.1455231048582120 0.6658537805323552 0.0230911204071644	0.123550
H	0.0628532577409690 0.7405712328134336 0.0323173829852362	0.112816
H	0.9351893092877062 0.8822757032146137 0.0324706990765064	0.112594
H	0.8597065010326685 0.9604421158827098 0.0241448712589545	0.106348
H	0.7934022825186920 0.0387867526331239 0.0259484957611205	0.085653
H	0.7157371547576958 0.1101895321849538 0.0249685556456143	0.104950
H	0.6455230948582112 0.1658538035323532 0.0230911204071644	0.123552
H	0.5628532887409682 0.2405712098134353 0.0323173829852362	0.112816
H	0.5648106487122904 0.6177242967853863 0.5324706370765083	0.112594
H	0.6402934579673316 0.5395579311172906 0.5241448712589546	0.106348
H	0.7065977174813080 0.4612132443668725 0.5259484337611221	0.085653
H	0.7842628452423042 0.3898104788150437 0.5249686166456160	0.104950
H	0.8544769051417888 0.3341461734676411 0.5230911204071645	0.123552
H	0.9371466702590320 0.2594287901865647 0.5323174139852358	0.112816
H	0.0648106547122908 0.1177243317853854 0.5324706370765083	0.112594
H	0.1402934989673314 0.0395578671172853 0.5241448712589545	0.106348
H	0.2065977174813082 0.9612132443668722 0.5259484337611221	0.085654
H	0.2842628032423006 0.8898104098150483 0.5249686166456160	0.104950
H	0.3544769051417890 0.8341461734676410 0.5230911204071645	0.123510
H	0.4371467112590321 0.7594287671865664 0.5323174139852358	0.112808
Cu	0.5000000000000000 0.6885662875681610 0.7500000149999977	0.659433
Cu	-0.0000000000000000 0.1885663455681585 0.7500000149999977	0.659431
Cu	0.5000000000000000 0.3114336424318407 0.2500000000000000	0.659433
Cu	-0.0000000000000000 0.8114337124318390 0.2500000000000000	0.659431
F	0.5000000000000000 0.6840406475851366 0.4499189066959822	-0.572765
F	-0.0000000000000000 0.1840406825851360 0.4499189066959822	-0.572765
F	0.5000000000000000 0.3159593294148579 0.9499189066959820	-0.572766
F	-0.0000000000000000 0.8159593524148634 0.9499189066959820	-0.572766
F	0.5000000000000000 0.6840406475851366 0.0500810793040167	-0.572765
F	-0.0000000000000000 0.1840406825851360 0.0500810793040167	-0.572765
F	0.5000000000000000 0.3159593294148579 0.5500810633040155	-0.572765
F	-0.0000000000000000 0.8159593524148634 0.5500810633040155	-0.572765
F	0.4446477962310585 0.7462797845491973 0.2500000000000000	-0.576074
F	0.5548471850189466 0.6188881178875706 0.2500000000000000	-0.567324
F	0.9446477962310584 0.2462797845491965 0.2500000000000000	-0.576075
F	0.0548472060189520 0.1188881178875706 0.2500000000000000	-0.567324
F	0.5553521627689417 0.2537201924508052 0.7500000149999977	-0.576074
F	0.4451528149810533 0.3811118821124296 0.7500000149999977	-0.567324
F	0.0553522147689459 0.7537202154508027 0.7500000149999977	-0.576074
F	0.9451528149810534 0.8811118821124294 0.7500000149999977	-0.567324
F	0.5553521627689417 0.7462797845491973 0.2500000000000000	-0.576075
F	0.4451528149810533 0.6188881178875706 0.2500000000000000	-0.567324
F	0.0553522147689459 0.2462797845491965 0.2500000000000000	-0.576075
F	0.9451528149810534 0.1188881178875706 0.2500000000000000	-0.567324
F	0.4446477962310585 0.2537201924508052 0.7500000149999977	-0.576074
F	0.5548471850189466 0.3811118821124296 0.7500000149999977	-0.567324
F	0.9446477962310584 0.7537202154508027 0.7500000149999977	-0.576074
F	0.0548472060189520 0.8811118821124294 0.7500000149999977	-0.567324
N	0.4393289630085502 0.6206482071716626 0.7500000149999977	-0.217242
N	0.5603571988921805 0.7568952167480689 0.7500000149999977	-0.225274
N	0.9393289220085429 0.1206481951716618 0.7500000149999977	-0.217242
N	0.0603571728921780 0.2568951937480639 0.7500000149999977	-0.225274
N	0.5606710369914502 0.3793517928283373 0.2500000000000000	-0.217242
N	0.4396428011078198 0.2431048062519362 0.2500000000000000	-0.225302
N	0.0606710369914498 0.8793517928283374 0.2500000000000000	-0.217242
N	0.9396428421078193 0.7431047832519311 0.2500000000000000	-0.225273
N	0.5606710369914502 0.6206482071716626 0.7500000149999977	-0.217242
N	0.4396428011078198 0.7568952167480689 0.7500000149999977	-0.225301
N	0.0606710369914498 0.1206481951716618 0.7500000149999977	-0.217242
N	0.9396428421078193 0.2568951937480639 0.7500000149999977	-0.225274
N	0.4393289630085502 0.3793517928283373 0.2500000000000000	-0.217242
N	0.5603571988921805 0.2431048062519362 0.2500000000000000	-0.225274
N	0.9393289220085429 0.8793517928283374 0.2500000000000000	-0.217242
N	0.0603571728921780 0.7431047832519311 0.2500000000000000	-0.225273
Ge	0.5000000000000000 0.6829445971460464 0.2500000000000000	1.784263
Ge	-0.0000000000000000 0.1829446211460483 0.2500000000000000	1.784263
Ge	0.5000000000000000 0.3170553558539532 0.7500000149999977	1.784263
Ge	-0.0000000000000000 0.8170554028539536 0.7500000149999977	1.784263
	  	
