#======================================================================

# CRYSTAL DATA

#----------------------------------------------------------------------

data_VESTA_phase_1


_pd_phase_name                         GeFSIX_7_Co
_cell_length_a                         18.70888
_cell_length_b                         18.70888
_cell_length_c                         8.16134
_cell_angle_alpha                      90
_cell_angle_beta                       90
_cell_angle_gamma                      90
_symmetry_space_group_name_H-M         P 1
_symmetry_Int_Tables_number            1

loop_
_symmetry_equiv_pos_as_xyz
   x, y, z

loop_
   _atom_site_label
   _atom_site_fract_x
   _atom_site_fract_y
   _atom_site_fract_z
   _atom_site_charge
C	0.6686424897232501 0.8681928513378370 0.6968563936402815	0.093749
C	0.6162951481431367 0.9207196442814346 0.7009926290093230	-0.172140
C	0.5817300716388617 0.8859215969472554 0.4297583763071200	-0.167187
C	0.6341908896054264 0.8337711254373456 0.4345397025373878	0.089013
C	0.8313575102767499 0.6318071486621630 0.6968563936402815	0.093749
C	0.8837049018568603 0.5792804067185661 0.7009926290093230	-0.172140
C	0.9182698273611406 0.6140784540527382 0.4297583763071200	-0.167188
C	0.8658091103945736 0.6662288745626544 0.4345397025373878	0.089013
C	0.6318071486621630 0.6686424897232501 0.6968563936402815	0.093749
C	0.5792804067185661 0.6162951481431367 0.7009926290093230	-0.172139
C	0.6140784540527382 0.5817300716388617 0.4297583763071200	-0.167187
C	0.6662288745626544 0.6341908896054264 0.4345397025373878	0.089013
C	0.8681928513378370 0.8313575102767499 0.6968563936402815	0.093749
C	0.9207196442814346 0.8837049018568603 0.7009926290093230	-0.172140
C	0.8859215969472554 0.9182698273611406 0.4297583763071200	-0.167186
C	0.8337711254373456 0.8658091103945736 0.4345397025373878	0.089013
C	0.3313574852767512 0.3681928013378328 0.3031436363597212	0.093777
C	0.3837048518568633 0.4207196442814346 0.2990074009906796	-0.172211
C	0.4182699283611382 0.3859215459472617 0.5702416236928801	-0.167196
C	0.3658090593945799 0.3337711254373452 0.5654603274626144	0.089033
C	0.1686425147232490 0.1318071856621698 0.3031436363597212	0.093776
C	0.1162951481431368 0.0792803557185656 0.2990074009906796	-0.172211
C	0.0817300526388565 0.1140784540527383 0.5702416236928801	-0.167188
C	0.1341909406054200 0.1662288625626538 0.5654603274626144	0.089005
C	0.3681928013378328 0.1686425147232490 0.3031436363597212	0.093776
C	0.4207196442814346 0.1162951481431368 0.2990074009906796	-0.172211
C	0.3859215459472617 0.0817300526388565 0.5702416236928801	-0.167188
C	0.3337711254373452 0.1341909406054200 0.5654603274626144	0.089006
C	0.1318071856621698 0.3313574852767512 0.3031436363597212	0.093778
C	0.0792803557185656 0.3837048518568633 0.2990074009906796	-0.172211
C	0.1140784540527383 0.4182699283611382 0.5702416236928801	-0.167195
C	0.1662288625626538 0.3658090593945799 0.5654603274626144	0.089033
C	0.4315023084364270 0.0715077049630965 0.4351539511099386	0.137296
C	0.4871285126258254 0.0169872261606257 0.4327745435925339	-0.122175
C	0.0684976915635730 0.4284922880369064 0.4351539511099386	0.137303
C	0.0128714553741719 0.4830127098393760 0.4327745435925339	-0.122207
C	0.4284922880369064 0.4315023084364270 0.4351539511099386	0.137303
C	0.4830127098393760 0.4871285126258254 0.4327745435925339	-0.122207
C	0.0715077049630965 0.0684976915635730 0.4351539511099386	0.137296
C	0.0169872261606257 0.0128714553741719 0.4327745435925339	-0.122176
C	0.5684976915635732 0.5715077119630936 0.5648460488900614	0.137291
C	0.5128715383741682 0.5169872401606195 0.5672254854074648	-0.122130
C	0.9315022584364298 0.9284922380369023 0.5648460488900614	0.137282
C	0.9871285126258253 0.9830128108393812 0.5672254854074648	-0.122164
C	0.5715077119630936 0.9315022584364298 0.5648460488900614	0.137282
C	0.5169872401606195 0.9871285126258253 0.5672254854074648	-0.122164
C	0.9284922380369023 0.5684976915635732 0.5648460488900614	0.137291
C	0.9830128108393812 0.5128715383741682 0.5672254854074648	-0.122130
H	0.7033856197814707 0.8585693685701467 0.8013259909429598	0.105676
H	0.6110727772900904 0.9534249407471390 0.8108791714734391	0.121031
H	0.5482721649029594 0.8896221652156251 0.3208896179618272	0.120210
H	0.6434165228503804 0.7986381726289121 0.3306018634768259	0.106463
H	0.7966143802185293 0.6414306314298533 0.8013259909429598	0.105676
H	0.8889272227099096 0.5465751102528617 0.8108791714734391	0.121031
H	0.9517278860970413 0.6103778857843756 0.3208896179618272	0.120211
H	0.8565834771496196 0.7013618273710879 0.3306018634768259	0.106463
H	0.6414306314298533 0.7033856197814707 0.8013259909429598	0.105676
H	0.5465751102528617 0.6110727772900904 0.8108791714734391	0.121032
H	0.6103778857843756 0.5482721649029594 0.3208896179618272	0.120211
H	0.7013618273710879 0.6434165228503804 0.3306018634768259	0.106463
H	0.8585693685701467 0.7966143802185293 0.8013259909429598	0.105675
H	0.9534249407471390 0.8889272227099096 0.8108791714734391	0.121031
H	0.8896221652156251 0.9517278860970413 0.3208896179618272	0.120211
H	0.7986381726289121 0.8565834771496196 0.3306018634768259	0.106463
H	0.2966144062185311 0.3585692925701475 0.1986739940570429	0.105699
H	0.3889271467099035 0.4534248897471383 0.1891207845265576	0.121042
H	0.4517278860970415 0.3896221652156248 0.6791103520381777	0.120212
H	0.3565835021496253 0.2986381986289147 0.6693981365231740	0.106449
H	0.2033856067814662 0.1414307334298545 0.1986739940570429	0.105699
H	0.1110728282900910 0.0465751262528631 0.1891207845265576	0.121042
H	0.0482721079029580 0.1103778607843773 0.6791103520381777	0.120211
H	0.1434165228503804 0.2013617893710844 0.6693981365231740	0.106464
H	0.3585692925701475 0.2033856067814662 0.1986739940570429	0.105699
H	0.4534248897471383 0.1110728282900910 0.1891207845265576	0.121042
H	0.3896221652156248 0.0482721079029580 0.6791103520381777	0.120211
H	0.2986381986289147 0.1434165228503804 0.6693981365231740	0.106464
H	0.1414307334298545 0.2966144062185311 0.1986739940570429	0.105699
H	0.0465751262528631 0.3889271467099035 0.1891207845265576	0.121042
H	0.1103778607843773 0.4517278860970415 0.6791103520381777	0.120212
H	0.2013617893710844 0.3565835021496253 0.6693981365231740	0.106449
H	0.5069110237955425 0.0014071528110314 0.3116750987766502	0.104050
H	0.9930890272044581 0.4985928191889663 0.3116750987766502	0.104054
H	0.4985928191889663 0.5069110237955425 0.3116750987766502	0.104054
H	0.0014071528110314 0.9930890272044581 0.3116750987766502	0.104050
H	0.4930889762044577 0.5014071308110367 0.6883249312233455	0.104027
H	0.0069110147955451 0.9985928191889663 0.6883249312233455	0.104048
H	0.5014071308110367 0.0069110147955451 0.6883249312233455	0.104048
H	0.9985928191889663 0.4930889762044577 0.6883249312233455	0.104027
Co	0.2500000000000000 0.2500000000000000 0.4340965384651760	0.576716
Co	0.7500000000000000 0.7500000000000000 0.5659034615348238	0.576724
Ge	0.2500000000000000 0.2500000000000000 0.9351511805346406	1.754721
Ge	0.7500000000000000 0.7500000000000000 0.0648488044653616	1.754719
F	0.2500000000000000 0.2500000000000000 0.1640123705645937	-0.513820
F	0.2500000000000000 0.2500000000000000 0.7061654438972753	-0.513598
F	0.7500000000000000 0.7500000000000000 0.8359876594354089	-0.513818
F	0.7500000000000000 0.7500000000000000 0.2938345561027246	-0.513595
F	0.3196358138489721 0.3181918668369911 0.9353591109148675	-0.551732
F	0.1803642111510265 0.1818081581630074 0.9353591109148675	-0.551733
F	0.1818081581630074 0.3196358138489721 0.9353591109148675	-0.551732
F	0.3181918668369911 0.1803642111510265 0.9353591109148675	-0.551733
F	0.6803642111510266 0.8181918668369910 0.0646408890851327	-0.551732
F	0.8196357888489734 0.6818081331630090 0.0646408890851327	-0.551732
F	0.8181918668369910 0.8196357888489734 0.0646408890851327	-0.551732
F	0.6818081331630090 0.6803642111510266 0.0646408890851327	-0.551732
N	0.3250338636557528 0.1774238031506626 0.4341870560078067	-0.190246
N	0.1749661613442457 0.3225762218493359 0.4341870560078067	-0.190255
N	0.3225762218493359 0.3250338636557528 0.4341870560078067	-0.190255
N	0.1774238031506626 0.1749661613442457 0.4341870560078067	-0.190245
N	0.6749661363442474 0.6774237781506640 0.5658129439921934	-0.190254
N	0.8250338636557526 0.8225762218493360 0.5658129439921934	-0.190254
N	0.6774237781506640 0.8250338636557526 0.5658129439921934	-0.190254
N	0.8225762218493360 0.6749661363442474 0.5658129439921934	-0.190253
	  	
