#======================================================================

# CRYSTAL DATA

#----------------------------------------------------------------------

data_VESTA_phase_1


_pd_phase_name                         GeFSIX_6_Co_i
_cell_length_a                         17.41853
_cell_length_b                         17.41853
_cell_length_c                         15.68494
_cell_angle_alpha                      90
_cell_angle_beta                       90
_cell_angle_gamma                      90
_symmetry_space_group_name_H-M         P 1
_symmetry_Int_Tables_number            1

loop_
_symmetry_equiv_pos_as_xyz
   x, y, z

loop_
   _atom_site_label
   _atom_site_fract_x
   _atom_site_fract_y
   _atom_site_fract_z
   _atom_site_charge
N	0.2439984235524200 0.1382665455207091 0.1279702200505241	-0.194597
N	0.2560015764475800 0.3617334684792922 0.1279702200505241	-0.194596
N	0.3617334684792922 0.2439984235524200 0.1279702200505241	-0.194596
N	0.1382665455207091 0.2560015764475800 0.1279702200505241	-0.194596
N	0.7560015494475814 0.6382665585207138 0.3720297649494782	-0.194597
N	0.7439984505524186 0.8617334414792862 0.3720297649494782	-0.194596
N	0.6382665585207138 0.7439984505524186 0.3720297649494782	-0.194596
N	0.8617334414792862 0.7560015494475814 0.3720297649494782	-0.194596
N	0.7560015494475814 0.8617334414792862 0.8720297649494781	-0.194597
N	0.7439984505524186 0.6382665585207138 0.8720297649494781	-0.194598
N	0.6382665585207138 0.7560015494475814 0.8720297649494781	-0.194597
N	0.8617334414792862 0.7439984505524186 0.8720297649494781	-0.194597
N	0.2439984235524200 0.3617334684792922 0.6279702350505219	-0.194597
N	0.2560015764475800 0.1382665455207091 0.6279702350505219	-0.194598
N	0.3617334684792922 0.2560015764475800 0.6279702350505219	-0.194597
N	0.1382665455207091 0.2439984235524200 0.6279702350505219	-0.194597
C	0.2009963453956920 0.1012273591328420 0.1866836384419432	0.093147
C	0.1925700719551178 0.0220008506067596 0.1857865551086855	-0.176442
C	0.2321111291320580 0.9780414175699995 0.1251194297295014	0.109816
C	0.2782591531963042 0.0173351190370684 0.0662973671416855	-0.174976
C	0.2816806419414722 0.0969402010220082 0.0683115683893852	0.096304
C	0.2259956929654711 0.8937357940747360 0.1237785290324002	0.060985
C	0.2916005051865438 0.8489415998327838 0.1207559909949480	-0.172987
C	0.2870809179207222 0.7679493300115824 0.1219090083651228	0.085090
C	0.1463729540373399 0.7790487679199269 0.1245841028746457	-0.123556
C	0.1527299574222890 0.8577632955820385 0.1268479642579322	-0.136413
C	0.2990036146043117 0.3987726538671554 0.1866836384419432	0.093146
C	0.3074298880448791 0.4779991303932425 0.1857865551086855	-0.176442
C	0.2678888708679421 0.5219585824300005 0.1251194297295014	0.109819
C	0.2217408598036932 0.4826648779629279 0.0662973671416855	-0.174976
C	0.2183193720585287 0.4030598059779960 0.0683115683893852	0.096302
C	0.2740043070345289 0.6062642059252640 0.1237785290324002	0.060992
C	0.2083995358134557 0.6510584001672162 0.1207559909949480	-0.173016
C	0.2129190550792791 0.7320506699884176 0.1219090083651228	0.085132
C	0.3536270319626590 0.7209512320800731 0.1245841028746457	-0.123540
C	0.3472700425777111 0.6422367044179615 0.1268479642579322	-0.136413
C	0.3987726538671554 0.2009963453956920 0.1866836384419432	0.093146
C	0.4779991303932425 0.1925700719551178 0.1857865551086855	-0.176442
C	0.5219585824300005 0.2321111291320580 0.1251194297295014	0.109817
C	0.4826648779629279 0.2782591531963042 0.0662973671416855	-0.174975
C	0.4030598059779960 0.2816806419414722 0.0683115683893852	0.096302
C	0.6062642059252640 0.2259956929654711 0.1237785290324002	0.060985
C	0.6510584001672162 0.2916005051865438 0.1207559909949480	-0.172986
C	0.7320506699884176 0.2870809179207222 0.1219090083651228	0.085090
C	0.7209512320800731 0.1463729540373399 0.1245841028746457	-0.123556
C	0.6422367044179615 0.1527299574222890 0.1268479642579322	-0.136412
C	0.1012273591328420 0.2990036146043117 0.1866836384419432	0.093146
C	0.0220008506067596 0.3074298880448791 0.1857865551086855	-0.176442
C	0.9780414175699995 0.2678888708679421 0.1251194297295014	0.109819
C	0.0173351190370684 0.2217408598036932 0.0662973671416855	-0.174977
C	0.0969402010220082 0.2183193720585287 0.0683115683893852	0.096303
C	0.8937357940747360 0.2740043070345289 0.1237785290324002	0.060992
C	0.8489415998327838 0.2083995358134557 0.1207559909949480	-0.173018
C	0.7679493300115824 0.2129190550792791 0.1219090083651228	0.085132
C	0.7790487679199269 0.3536270319626590 0.1245841028746457	-0.123540
C	0.8577632955820385 0.3472700425777111 0.1268479642579322	-0.136414
C	0.7990036676043053 0.6012273461328445 0.3133163775580580	0.093148
C	0.8074299410448802 0.5220008156067534 0.3142134138913156	-0.176442
C	0.7678888708679420 0.4780414175699995 0.3748805382704959	0.109818
C	0.7217408198036969 0.5173351760370695 0.4337026368583149	-0.174977
C	0.7183193320585255 0.5969402480220087 0.4316884716106110	0.096303
C	0.7740043870345282 0.3937358470747367 0.3762214629675992	0.060991
C	0.7083995218134548 0.3489415468327829 0.3792440010050512	-0.173015
C	0.7129190820792770 0.2679492500115832 0.3780909916348772	0.085128
C	0.8536270589626651 0.2790487409199283 0.3754158811253530	-0.123553
C	0.8472699895777103 0.3577632695820361 0.3731520677420704	-0.136412
C	0.7009963323956947 0.8987726538671555 0.3133163775580580	0.093146
C	0.6925700589551198 0.9779991303932422 0.3142134138913156	-0.176443
C	0.7321111291320580 0.0219585884300009 0.3748805382704959	0.109820
C	0.7782591801963031 0.9826648779629279 0.4337026368583149	-0.174976
C	0.7816806679414745 0.9030598589779966 0.4316884716106110	0.096302
C	0.7259956129654718 0.1062641799252620 0.3762214629675992	0.060992
C	0.7916004781865452 0.1510584401672125 0.3792440010050512	-0.173016
C	0.7870809179207230 0.2320507229884184 0.3780909916348772	0.085126
C	0.6463729410373349 0.2209512460800741 0.3754158811253530	-0.123554
C	0.6527300104222897 0.1422367044179616 0.3731520677420704	-0.136410
C	0.6012273461328445 0.7009963323956947 0.3133163775580580	0.093148
C	0.5220008156067534 0.6925700589551198 0.3142134138913156	-0.176444
C	0.4780414175699995 0.7321111291320580 0.3748805382704959	0.109820
C	0.5173351760370695 0.7782591801963031 0.4337026368583149	-0.174975
C	0.5969402480220087 0.7816806679414745 0.4316884716106110	0.096302
C	0.3937358470747367 0.7259956129654718 0.3762214629675992	0.060991
C	0.3489415468327829 0.7916004781865452 0.3792440010050512	-0.173016
C	0.2679492500115832 0.7870809179207230 0.3780909916348772	0.085128
C	0.2790487409199283 0.6463729410373349 0.3754158811253530	-0.123553
C	0.3577632695820361 0.6527300104222897 0.3731520677420704	-0.136412
C	0.8987726538671555 0.7990036676043053 0.3133163775580580	0.093146
C	0.9779991303932422 0.8074299410448802 0.3142134138913156	-0.176441
C	0.0219585884300009 0.7678888708679420 0.3748805382704959	0.109818
C	0.9826648779629279 0.7217408198036969 0.4337026368583149	-0.174976
C	0.9030598589779966 0.7183193320585255 0.4316884716106110	0.096302
C	0.1062641799252620 0.7740043870345282 0.3762214629675992	0.060992
C	0.1510584401672125 0.7083995218134548 0.3792440010050512	-0.173015
C	0.2320507229884184 0.7129190820792770 0.3780909916348772	0.085127
C	0.2209512460800741 0.8536270589626651 0.3754158811253530	-0.123554
C	0.1422367044179616 0.8472699895777103 0.3731520677420704	-0.136410
C	0.7990036676043053 0.8987726538671555 0.8133163455580558	0.093146
C	0.8074299410448802 0.9779991303932422 0.8142134768913171	-0.176442
C	0.7678888708679420 0.0219585884300009 0.8748806022704941	0.109819
C	0.7217408198036969 0.9826648779629279 0.9337026058583160	-0.174977
C	0.7183193320585255 0.9030598589779966 0.9316884396106082	0.096301
C	0.7740043870345282 0.1062641799252620 0.8762214629675994	0.060991
C	0.7083995218134548 0.1510584401672125 0.8792440330050539	-0.173014
C	0.7129190820792770 0.2320507229884184 0.8780910236348730	0.085128
C	0.8536270589626651 0.2209512460800741 0.8754159441253546	-0.123553
C	0.8472699895777103 0.1422367044179616 0.8731520997420660	-0.136411
C	0.7009963323956947 0.6012273461328445 0.8133163455580558	0.093147
C	0.6925700589551198 0.5220008156067534 0.8142134768913171	-0.176442
C	0.7321111291320580 0.4780414175699995 0.8748806022704941	0.109818
C	0.7782591801963031 0.5173351760370695 0.9337026058583160	-0.174976
C	0.7816806679414745 0.5969402480220087 0.9316884396106082	0.096303
C	0.7259956129654718 0.3937358470747367 0.8762214629675994	0.060992
C	0.7916004781865452 0.3489415468327829 0.8792440330050539	-0.173016
C	0.7870809179207230 0.2679492500115832 0.8780910236348730	0.085126
C	0.6463729410373349 0.2790487409199283 0.8754159441253546	-0.123554
C	0.6527300104222897 0.3577632695820361 0.8731520997420660	-0.136412
C	0.6012273461328445 0.7990036676043053 0.8133163455580558	0.093146
C	0.5220008156067534 0.8074299410448802 0.8142134768913171	-0.176441
C	0.4780414175699995 0.7678888708679420 0.8748806022704941	0.109819
C	0.5173351760370695 0.7217408198036969 0.9337026058583160	-0.174977
C	0.5969402480220087 0.7183193320585255 0.9316884396106082	0.096302
C	0.3937358470747367 0.7740043870345282 0.8762214629675994	0.060991
C	0.3489415468327829 0.7083995218134548 0.8792440330050539	-0.173016
C	0.2679492500115832 0.7129190820792770 0.8780910236348730	0.085128
C	0.2790487409199283 0.8536270589626651 0.8754159441253546	-0.123554
C	0.3577632695820361 0.8472699895777103 0.8731520997420660	-0.136412
C	0.8987726538671555 0.7009963323956947 0.8133163455580558	0.093147
C	0.9779991303932422 0.6925700589551198 0.8142134768913171	-0.176442
C	0.0219585884300009 0.7321111291320580 0.8748806022704941	0.109818
C	0.9826648779629279 0.7782591801963031 0.9337026058583160	-0.174975
C	0.9030598589779966 0.7816806679414745 0.9316884396106082	0.096301
C	0.1062641799252620 0.7259956129654718 0.8762214629675994	0.060992
C	0.1510584401672125 0.7916004781865452 0.8792440330050539	-0.173015
C	0.2320507229884184 0.7870809179207230 0.8780910236348730	0.085126
C	0.2209512460800740 0.6463729410373349 0.8754159441253546	-0.123553
C	0.1422367044179616 0.6527300104222897 0.8731520997420660	-0.136411
C	0.2009963453956920 0.3987726538671554 0.6866836544419442	0.093145
C	0.1925700719551178 0.4779991303932425 0.6857865231086829	-0.176442
C	0.2321111291320580 0.5219585824300005 0.6251193977295059	0.109817
C	0.2782591531963042 0.4826648779629279 0.5662973941416840	-0.174976
C	0.2816806419414722 0.4030598059779960 0.5683115603893918	0.096302
C	0.2259956929654711 0.6062642059252640 0.6237785370324006	0.060985
C	0.2916005051865438 0.6510584001672162 0.6207559669949461	-0.172986
C	0.2870809179207222 0.7320506699884176 0.6219089763651270	0.085090
C	0.1463729540373399 0.7209512320800731 0.6245840558746454	-0.123555
C	0.1527299574222890 0.6422367044179615 0.6268479002579340	-0.136412
C	0.2990036146043117 0.1012273591328420 0.6866836544419442	0.093148
C	0.3074298880448791 0.0220008506067596 0.6857865231086829	-0.176442
C	0.2678888708679421 0.9780414175699995 0.6251193977295059	0.109817
C	0.2217408598036932 0.0173351190370684 0.5662973941416840	-0.174977
C	0.2183193720585287 0.0969402010220082 0.5683115603893918	0.096303
C	0.2740043070345289 0.8937357940747360 0.6237785370324006	0.060993
C	0.2083995358134557 0.8489415998327838 0.6207559669949461	-0.173016
C	0.2129190550792791 0.7679493300115824 0.6219089763651270	0.085133
C	0.3536270319626590 0.7790487679199269 0.6245840558746454	-0.123538
C	0.3472700425777112 0.8577632955820385 0.6268479002579340	-0.136415
C	0.3987726538671554 0.2990036146043117 0.6866836544419442	0.093145
C	0.4779991303932425 0.3074298880448791 0.6857865231086829	-0.176441
C	0.5219585824300005 0.2678888708679421 0.6251193977295059	0.109817
C	0.4826648779629279 0.2217408598036932 0.5662973941416840	-0.174976
C	0.4030598059779960 0.2183193720585287 0.5683115603893918	0.096302
C	0.6062642059252640 0.2740043070345289 0.6237785370324006	0.060993
C	0.6510584001672162 0.2083995358134557 0.6207559669949461	-0.173016
C	0.7320506699884176 0.2129190550792791 0.6219089763651270	0.085135
C	0.7209512320800731 0.3536270319626590 0.6245840558746454	-0.123538
C	0.6422367044179615 0.3472700425777111 0.6268479002579340	-0.136414
C	0.1012273591328420 0.2009963453956920 0.6866836544419442	0.093147
C	0.0220008506067596 0.1925700719551178 0.6857865231086829	-0.176443
C	0.9780414175699995 0.2321111291320580 0.6251193977295059	0.109817
C	0.0173351190370684 0.2782591531963042 0.5662973941416840	-0.174976
C	0.0969402010220082 0.2816806419414722 0.5683115603893918	0.096302
C	0.8937357940747360 0.2259956929654711 0.6237785370324006	0.060985
C	0.8489415998327838 0.2916005051865438 0.6207559669949461	-0.172987
C	0.7679493300115824 0.2870809179207222 0.6219089763651270	0.085089
C	0.7790487679199269 0.1463729540373399 0.6245840558746454	-0.123555
C	0.8577632955820385 0.1527299574222890 0.6268479002579340	-0.136414
H	0.1744152609564579 0.1365381117537196 0.2359449044908539	0.107196
H	0.1570834099504384 0.9942047333288705 0.2339940113980867	0.115761
H	0.3096766010451041 0.9858716962394054 0.0173714418770166	0.116158
H	0.3136353297824422 0.1293031589231542 0.0205207559266285	0.106276
H	0.3479819509852929 0.8762446246636653 0.1200898165715533	0.107517
H	0.0899495384237055 0.7516873463386220 0.1252862457447653	0.109173
H	0.1013670086838098 0.8935964731679031 0.1290471825332429	0.100204
H	0.3255847120435433 0.3634619152462861 0.2359449044908539	0.107195
H	0.3429166300495580 0.5057952666711295 0.2339940113980867	0.115761
H	0.1903234119548934 0.5141283037605946 0.0173714418770166	0.116159
H	0.1863646702175578 0.3706968410768458 0.0205207559266285	0.106276
H	0.1520180630147082 0.6237553753363347 0.1200898165715533	0.107513
H	0.4100504545762902 0.7483126536613780 0.1252862457447653	0.109174
H	0.3986330043161948 0.6064035268320969 0.1290471825332429	0.100204
H	0.3634619152462861 0.1744152609564579 0.2359449044908539	0.107195
H	0.5057952666711295 0.1570834099504384 0.2339940113980867	0.115762
H	0.5141283037605946 0.3096766010451041 0.0173714418770166	0.116158
H	0.3706968410768458 0.3136353297824422 0.0205207559266285	0.106276
H	0.6237553753363347 0.3479819509852929 0.1200898165715533	0.107518
H	0.7483126536613780 0.0899495384237055 0.1252862457447653	0.109173
H	0.6064035268320969 0.1013670086838098 0.1290471825332429	0.100206
H	0.1365381117537196 0.3255847120435433 0.2359449044908539	0.107196
H	0.9942047333288705 0.3429166300495580 0.2339940113980867	0.115760
H	0.9858716962394054 0.1903234119548934 0.0173714418770166	0.116159
H	0.1293031589231542 0.1863646702175578 0.0205207559266285	0.106277
H	0.8762446246636653 0.1520180630147082 0.1200898165715533	0.107513
H	0.7516873463386220 0.4100504545762902 0.1252862457447653	0.109174
H	0.8935964731679031 0.3986330043161948 0.1290471825332429	0.100205
H	0.8255847120435432 0.6365381387537182 0.2640551115091475	0.107196
H	0.8429165490495618 0.4942047873288678 0.2660059886019132	0.115762
H	0.6903233989548959 0.4858716962394058 0.4826285601229836	0.116158
H	0.6863647232175587 0.6293031859231530 0.4794792420733712	0.106276
H	0.6520180490147067 0.3762445706636680 0.3799101914284474	0.107512
H	0.9100504015762894 0.2516873733386208 0.3747137462552341	0.109174
H	0.8986329773161963 0.3935964991678985 0.3709528254667579	0.100206
H	0.6744152879564568 0.8634618612462818 0.2640551115091475	0.107195
H	0.6570834509504382 0.0057952286711264 0.2660059886019132	0.115762
H	0.8096766010451041 0.0141283027605906 0.4826285601229836	0.116158
H	0.8136352767824413 0.8706968140768470 0.4794792420733712	0.106276
H	0.8479819509852933 0.1237554423363369 0.3799101914284474	0.107516
H	0.5899495454237098 0.2483125996613734 0.3747137462552341	0.109174
H	0.6013670226838037 0.1064035138320991 0.3709528254667579	0.100203
H	0.6365381387537182 0.6744152879564568 0.2640551115091475	0.107196
H	0.4942047873288678 0.6570834509504382 0.2660059886019132	0.115763
H	0.4858716962394058 0.8096766010451041 0.4826285601229836	0.116158
H	0.6293031859231530 0.8136352767824413 0.4794792420733712	0.106276
H	0.3762445706636680 0.8479819509852933 0.3799101914284474	0.107514
H	0.2516873733386208 0.5899495454237098 0.3747137462552341	0.109173
H	0.3935964991678985 0.6013670226838037 0.3709528254667579	0.100205
H	0.8634618612462818 0.8255847120435432 0.2640551115091475	0.107195
H	0.0057952286711264 0.8429165490495618 0.2660059886019132	0.115762
H	0.0141283027605906 0.6903233989548959 0.4826285601229836	0.116159
H	0.8706968140768470 0.6863647232175587 0.4794792420733712	0.106275
H	0.1237554423363369 0.6520180490147067 0.3799101914284474	0.107516
H	0.2483125996613734 0.9100504015762894 0.3747137462552341	0.109176
H	0.1064035138320991 0.8986329773161963 0.3709528254667579	0.100206
H	0.8255847120435432 0.8634618612462818 0.7640550805091484	0.107195
H	0.8429165490495618 0.0057952286711264 0.7660060036019181	0.115761
H	0.6903233989548959 0.0141283027605906 0.9826285911229826	0.116159
H	0.6863647232175587 0.8706968140768470 0.9794791780733734	0.106276
H	0.6520180490147067 0.1237554423363369 0.8799101594284449	0.107511
H	0.9100504015762894 0.2483125996613734 0.8747136832552325	0.109174
H	0.8986329773161963 0.1064035138320991 0.8709527934667552	0.100206
H	0.6744152879564568 0.6365381387537182 0.7640550805091484	0.107196
H	0.6570834509504382 0.4942047873288678 0.7660060036019181	0.115761
H	0.8096766010451041 0.4858716962394058 0.9826285911229826	0.116158
H	0.8136352767824413 0.6293031859231530 0.9794791780733734	0.106276
H	0.8479819509852933 0.3762445706636680 0.8799101594284449	0.107513
H	0.5899495454237098 0.2516873733386208 0.8747136832552325	0.109174
H	0.6013670226838037 0.3935964991678985 0.8709527934667552	0.100206
H	0.6365381387537182 0.8255847120435432 0.7640550805091484	0.107196
H	0.4942047873288678 0.8429165490495618 0.7660060036019181	0.115761
H	0.4858716962394058 0.6903233989548959 0.9826285911229826	0.116159
H	0.6293031859231530 0.6863647232175587 0.9794791780733734	0.106276
H	0.3762445706636680 0.6520180490147067 0.8799101594284449	0.107512
H	0.2516873733386208 0.9100504015762894 0.8747136832552325	0.109174
H	0.3935964991678985 0.8986329773161963 0.8709527934667552	0.100207
H	0.8634618612462818 0.6744152879564568 0.7640550805091484	0.107195
H	0.0057952286711264 0.6570834509504382 0.7660060036019181	0.115762
H	0.0141283027605906 0.8096766010451041 0.9826285911229826	0.116159
H	0.8706968140768470 0.8136352767824413 0.9794791780733734	0.106276
H	0.1237554423363369 0.8479819509852933 0.8799101594284449	0.107515
H	0.2483125996613734 0.5899495454237098 0.8747136832552325	0.109174
H	0.1064035138320991 0.6013670226838037 0.8709527934667552	0.100207
H	0.1744152609564579 0.3634619152462861 0.7359449194908516	0.107195
H	0.1570834099504384 0.5057952666711295 0.7339939963980819	0.115762
H	0.3096766010451041 0.5141283037605946 0.5173714398770164	0.116158
H	0.3136353297824422 0.3706968410768458 0.5205207579266284	0.106276
H	0.3479819509852929 0.6237553753363347 0.6200898405715551	0.107521
H	0.0899495384237055 0.7483126536613780 0.6252863167447675	0.109172
H	0.1013670086838098 0.6064035268320969 0.6290472065332448	0.100205
H	0.3255847120435433 0.1365381117537196 0.7359449194908516	0.107196
H	0.3429166300495580 0.9942047333288705 0.7339939963980819	0.115762
H	0.1903234119548934 0.9858716962394054 0.5173714398770164	0.116159
H	0.1863646702175578 0.1293031589231542 0.5205207579266284	0.106277
H	0.1520180630147082 0.8762446246636653 0.6200898405715551	0.107514
H	0.4100504545762902 0.7516873463386220 0.6252863167447675	0.109173
H	0.3986330043161948 0.8935964731679031 0.6290472065332448	0.100207
H	0.3634619152462861 0.3255847120435433 0.7359449194908516	0.107195
H	0.5057952666711295 0.3429166300495580 0.7339939963980819	0.115762
H	0.5141283037605946 0.1903234119548934 0.5173714398770164	0.116160
H	0.3706968410768458 0.1863646702175578 0.5205207579266284	0.106276
H	0.6237553753363347 0.1520180630147082 0.6200898405715551	0.107515
H	0.7483126536613780 0.4100504545762902 0.6252863167447675	0.109171
H	0.6064035268320969 0.3986330043161948 0.6290472065332448	0.100208
H	0.1365381117537196 0.1744152609564579 0.7359449194908516	0.107196
H	0.9942047333288705 0.1570834099504384 0.7339939963980819	0.115763
H	0.9858716962394054 0.3096766010451041 0.5173714398770164	0.116158
H	0.1293031589231542 0.3136353297824422 0.5205207579266284	0.106277
H	0.8762446246636653 0.3479819509852929 0.6200898405715551	0.107522
H	0.7516873463386220 0.0899495384237055 0.6252863167447675	0.109174
H	0.8935964731679031 0.1013670086838098 0.6290472065332448	0.100207
F	0.3096865615318006 0.1635812093648353 0.3782062926173445	-0.565909
F	0.1903134654681981 0.3364187906351648 0.3782062926173445	-0.565908
F	0.3364187906351648 0.3096865615318006 0.3782062926173445	-0.565909
F	0.1635812093648353 0.1903134654681981 0.3782062926173445	-0.565909
F	0.6903134384681999 0.6635811553648379 0.1217937073826557	-0.565909
F	0.8096865615318001 0.8364188446351621 0.1217937073826557	-0.565909
F	0.6635811553648379 0.8096865615318001 0.1217937073826557	-0.565908
F	0.8364188446351621 0.6903134384681999 0.1217937073826557	-0.565910
F	0.6903134384681999 0.8364188446351621 0.6217936753826528	-0.565908
F	0.8096865615318001 0.6635811553648379 0.6217936753826528	-0.565909
F	0.6635811553648379 0.6903134384681999 0.6217936753826528	-0.565909
F	0.8364188446351621 0.8096865615318001 0.6217936753826528	-0.565909
F	0.3096865615318006 0.3364187906351648 0.8782063246173472	-0.565909
F	0.1903134654681981 0.1635812093648353 0.8782063246173472	-0.565909
F	0.3364187906351648 0.1903134654681981 0.8782063246173472	-0.565910
F	0.1635812093648353 0.3096865615318006 0.8782063246173472	-0.565908
F	0.2500000000000000 0.2500000000000000 0.2612724558021974	-0.511435
F	0.2500000000000000 0.2500000000000000 0.4950301685030405	-0.513132
F	0.7500000000000000 0.7500000000000000 0.2387275601978039	-0.511435
F	0.7500000000000000 0.7500000000000000 0.0049698384969636	-0.513132
F	0.7500000000000000 0.7500000000000000 0.7387275121978001	-0.511435
F	0.7500000000000000 0.7500000000000000 0.5049698634969622	-0.513132
F	0.2500000000000000 0.2500000000000000 0.7612724878021999	-0.511435
F	0.2500000000000000 0.2500000000000000 -0.0049698634969621	-0.513132
Co	0.2500000000000000 0.2500000000000000 0.1282834008536936	0.588100
Co	0.7500000000000000 0.7500000000000000 0.3717166151463077	0.588099
Co	0.7500000000000000 0.7500000000000000 0.8717165841463089	0.588101
Co	0.2500000000000000 0.2500000000000000 0.6282834158536911	0.588101
Ge	0.2500000000000000 0.2500000000000000 0.3782169299278677	1.785396
Ge	0.7500000000000000 0.7500000000000000 0.1217830780721329	1.785396
Ge	0.7500000000000000 0.7500000000000000 0.6217830390721332	1.785396
Ge	0.2500000000000000 0.2500000000000000 0.8782169609278668	1.785396
	  	
