#======================================================================

# CRYSTAL DATA

#----------------------------------------------------------------------

data_VESTA_phase_1


_pd_phase_name                         GeFSIX_6_Cd_i
_cell_length_a                         18.15186
_cell_length_b                         18.15186
_cell_length_c                         16.12432
_cell_angle_alpha                      90
_cell_angle_beta                       90
_cell_angle_gamma                      90
_symmetry_space_group_name_H-M         P 1
_symmetry_Int_Tables_number            1

loop_
_symmetry_equiv_pos_as_xyz
   x, y, z

loop_
   _atom_site_label
   _atom_site_fract_x
   _atom_site_fract_y
   _atom_site_fract_z
   _atom_site_charge
N	0.2429058777889884 0.1219880843488297 0.1273645695797034	-0.243826
N	0.2570941222110117 0.3780119296511713 0.1273645695797034	-0.243825
N	0.3780119296511713 0.2429058777889884 0.1273645695797034	-0.243826
N	0.1219880843488297 0.2570941222110117 0.1273645695797034	-0.243826
N	0.7570940952110127 0.6219880973488341 0.3726354154202989	-0.243838
N	0.7429059047889873 0.8780119026511659 0.3726354154202989	-0.243892
N	0.6219880973488341 0.7429059047889873 0.3726354154202989	-0.243904
N	0.8780119026511659 0.7570940952110127 0.3726354154202989	-0.243826
N	0.7570940952110127 0.8780119026511659 0.8726354154202992	-0.243823
N	0.7429059047889873 0.6219880973488341 0.8726354154202992	-0.243903
N	0.6219880973488341 0.7570940952110127 0.8726354154202992	-0.243836
N	0.8780119026511659 0.7429059047889873 0.8726354154202992	-0.243891
N	0.2429058777889884 0.3780119296511713 0.6273645845797008	-0.243824
N	0.2570941222110117 0.1219880843488297 0.6273645845797008	-0.243825
N	0.3780119296511713 0.2570941222110117 0.6273645845797008	-0.243825
N	0.1219880843488297 0.2429058777889884 0.6273645845797008	-0.243824
C	0.2064567127998589 0.0866885476540013 0.1882447683201735	0.100819
C	0.1978654003313810 0.0105982474828179 0.1881619899129374	-0.180797
C	0.2307290597868385 0.9687864546920661 0.1249475064888307	0.110675
C	0.2695908807186503 0.0064374834778334 0.0628669915649681	-0.179452
C	0.2733010632316932 0.0829153215602929 0.0652565923935262	0.102721
C	0.2254354804059495 0.8876682811572655 0.1239292664863022	0.061822
C	0.2888459160722220 0.8453220693513039 0.1205391363849301	-0.174876
C	0.2854206102248222 0.7675082548050918 0.1218515515318283	0.085750
C	0.1502123551075602 0.7768998208448290 0.1246848706331815	-0.125591
C	0.1554802041883022 0.8525278912265426 0.1272142896105511	-0.136357
C	0.2935432472001449 0.4133114653459961 0.1882447683201735	0.100818
C	0.3021345596686159 0.4894017335171840 0.1881619899129374	-0.180795
C	0.2692709402131616 0.5312135453079339 0.1249475064888307	0.110676
C	0.2304091322813473 0.4935625135221626 0.0628669915649681	-0.179453
C	0.2266989507683077 0.4170846854397113 0.0652565923935262	0.102719
C	0.2745645195940508 0.6123317188427345 0.1239292664863022	0.061822
C	0.2111541249277779 0.6546779306486961 0.1205391363849301	-0.174874
C	0.2145793627751790 0.7324917451949082 0.1218515515318283	0.085749
C	0.3497876308924386 0.7231001791551710 0.1246848706331815	-0.125593
C	0.3445197958116978 0.6474721087734574 0.1272142896105511	-0.136356
C	0.4133114653459961 0.2064567127998589 0.1882447683201735	0.100818
C	0.4894017335171840 0.1978654003313810 0.1881619899129374	-0.180796
C	0.5312135453079339 0.2307290597868385 0.1249475064888307	0.110675
C	0.4935625135221626 0.2695908807186503 0.0628669915649681	-0.179451
C	0.4170846854397113 0.2733010632316932 0.0652565923935262	0.102720
C	0.6123317188427345 0.2254354804059495 0.1239292664863022	0.061822
C	0.6546779306486961 0.2888459160722220 0.1205391363849301	-0.174875
C	0.7324917451949082 0.2854206102248222 0.1218515515318283	0.085750
C	0.7231001791551710 0.1502123551075602 0.1246848706331815	-0.125591
C	0.6474721087734574 0.1554802041883023 0.1272142896105511	-0.136356
C	0.0866885476540013 0.2935432472001449 0.1882447683201735	0.100819
C	0.0105982474828179 0.3021345596686159 0.1881619899129374	-0.180795
C	0.9687864546920661 0.2692709402131616 0.1249475064888307	0.110676
C	0.0064374834778334 0.2304091322813473 0.0628669915649681	-0.179454
C	0.0829153215602929 0.2266989507683077 0.0652565923935262	0.102721
C	0.8876682811572655 0.2745645195940508 0.1239292664863022	0.061822
C	0.8453220693513039 0.2111541249277779 0.1205391363849301	-0.174876
C	0.7675082548050918 0.2145793627751789 0.1218515515318283	0.085749
C	0.7768998208448290 0.3497876308924386 0.1246848706331815	-0.125592
C	0.8525278912265426 0.3445197958116978 0.1272142896105511	-0.136357
C	0.7935433002001391 0.5866885346540044 0.3117552476798280	0.100820
C	0.8021346126686164 0.5105982124828112 0.3118379790870637	-0.180791
C	0.7692709402131608 0.4687864546920662 0.3750524615111668	0.110669
C	0.7304090922813512 0.5064375404778344 0.4371330124350323	-0.179478
C	0.7266989107683042 0.5829153685602928 0.4347434476064699	0.102766
C	0.7745645995940500 0.3876683341572667 0.3760707255136969	0.061821
C	0.7111541109277770 0.3453220163513037 0.3794608556150691	-0.174875
C	0.7145793897751778 0.2675081748050921 0.3781484484681718	0.085750
C	0.8497876578924444 0.2768997938448308 0.3753151133668172	-0.125591
C	0.8445197428116973 0.3525278652265405 0.3727857423894514	-0.136358
C	0.7064566997998609 0.9133114653459956 0.3117552476798280	0.100839
C	0.6978653873313836 0.9894017335171843 0.3118379790870637	-0.180795
C	0.7307290597868392 0.0312135513079345 0.3750524615111668	0.110677
C	0.7695909077186488 0.9935625135221630 0.4371330124350323	-0.179451
C	0.7733010892316958 0.9170847384397125 0.4347434476064699	0.102743
C	0.7254354004059500 0.1123316928427321 0.3760707255136969	0.061822
C	0.7888458890722230 0.1546779706486917 0.3794608556150692	-0.174875
C	0.7854206102248222 0.2324917981949089 0.3781484484681718	0.085749
C	0.6502123421075556 0.2231001931551718 0.3753151133668172	-0.125592
C	0.6554802571883027 0.1474721087734570 0.3727857423894514	-0.136355
C	0.5866885346540044 0.7064566997998609 0.3117552476798280	0.100843
C	0.5105982124828112 0.6978653873313836 0.3118379790870637	-0.180791
C	0.4687864546920662 0.7307290597868392 0.3750524615111668	0.110670
C	0.5064375404778344 0.7695909077186488 0.4371330124350323	-0.179475
C	0.5829153685602928 0.7733010892316958 0.4347434476064699	0.102790
C	0.3876683341572667 0.7254354004059500 0.3760707255136969	0.061820
C	0.3453220163513037 0.7888458890722230 0.3794608556150691	-0.174876
C	0.2675081748050921 0.7854206102248222 0.3781484484681718	0.085749
C	0.2768997938448308 0.6502123421075556 0.3753151133668172	-0.125591
C	0.3525278652265405 0.6554802571883027 0.3727857423894514	-0.136357
C	0.9133114653459956 0.7935433002001391 0.3117552476798280	0.100818
C	0.9894017335171843 0.8021346126686164 0.3118379790870637	-0.180794
C	0.0312135513079345 0.7692709402131608 0.3750524615111668	0.110675
C	0.9935625135221630 0.7304090922813512 0.4371330124350323	-0.179453
C	0.9170847384397125 0.7266989107683042 0.4347434476064699	0.102720
C	0.1123316928427321 0.7745645995940500 0.3760707255136969	0.061822
C	0.1546779706486917 0.7111541109277770 0.3794608556150691	-0.174874
C	0.2324917981949089 0.7145793897751778 0.3781484484681718	0.085749
C	0.2231001931551718 0.8497876578924444 0.3753151133668172	-0.125592
C	0.1474721087734570 0.8445197428116973 0.3727857423894514	-0.136356
C	0.7935433002001391 0.9133114653459956 0.8117552156798251	0.100827
C	0.8021346126686164 0.9894017335171843 0.8118380420870657	-0.180837
C	0.7692709402131608 0.0312135513079345 0.8750525255111652	0.110676
C	0.7304090922813512 0.9935625135221630 0.9371329814350325	-0.179397
C	0.7266989107683042 0.9170847384397125 0.9347434156064675	0.102700
C	0.7745645995940500 0.1123316928427321 0.8760707255136974	0.061820
C	0.7111541109277770 0.1546779706486917 0.8794608876150721	-0.174875
C	0.7145793897751778 0.2324917981949089 0.8781484804681677	0.085749
C	0.8497876578924444 0.2231001931551718 0.8753151763668194	-0.125592
C	0.8445197428116973 0.1474721087734570 0.8727857743894472	-0.136356
C	0.7064566997998609 0.5866885346540044 0.8117552156798251	0.100851
C	0.6978653873313836 0.5105982124828112 0.8118380420870657	-0.180832
C	0.7307290597868392 0.4687864546920662 0.8750525255111652	0.110668
C	0.7695909077186488 0.5064375404778344 0.9371329814350325	-0.179419
C	0.7733010892316958 0.5829153685602928 0.9347434156064675	0.102771
C	0.7254354004059500 0.3876683341572667 0.8760707255136974	0.061819
C	0.7888458890722230 0.3453220163513037 0.8794608876150721	-0.174878
C	0.7854206102248222 0.2675081748050921 0.8781484804681677	0.085749
C	0.6502123421075556 0.2768997938448308 0.8753151763668194	-0.125591
C	0.6554802571883027 0.3525278652265405 0.8727857743894472	-0.136357
C	0.5866885346540044 0.7935433002001391 0.8117552156798251	0.100829
C	0.5105982124828112 0.8021346126686164 0.8118380420870657	-0.180832
C	0.4687864546920662 0.7692709402131608 0.8750525255111652	0.110669
C	0.5064375404778344 0.7304090922813512 0.9371329814350325	-0.179422
C	0.5829153685602928 0.7266989107683042 0.9347434156064675	0.102748
C	0.3876683341572667 0.7745645995940500 0.8760707255136974	0.061819
C	0.3453220163513037 0.7111541109277769 0.8794608876150721	-0.174878
C	0.2675081748050921 0.7145793897751778 0.8781484804681677	0.085750
C	0.2768997938448308 0.8497876578924444 0.8753151763668194	-0.125592
C	0.3525278652265405 0.8445197428116973 0.8727857743894472	-0.136357
C	0.9133114653459956 0.7064566997998609 0.8117552156798251	0.100851
C	0.9894017335171843 0.6978653873313836 0.8118380420870657	-0.180836
C	0.0312135513079345 0.7307290597868392 0.8750525255111652	0.110675
C	0.9935625135221630 0.7695909077186488 0.9371329814350325	-0.179393
C	0.9170847384397125 0.7733010892316958 0.9347434156064675	0.102724
C	0.1123316928427321 0.7254354004059500 0.8760707255136974	0.061821
C	0.1546779706486917 0.7888458890722230 0.8794608876150721	-0.174876
C	0.2324917981949089 0.7854206102248222 0.8781484804681677	0.085749
C	0.2231001931551718 0.6502123421075556 0.8753151763668194	-0.125591
C	0.1474721087734570 0.6554802571883027 0.8727857743894472	-0.136357
C	0.2064567127998589 0.4133114653459961 0.6882447843201749	0.100826
C	0.1978654003313810 0.4894017335171840 0.6881619579129344	-0.180838
C	0.2307290597868385 0.5312135453079339 0.6249474744888348	0.110676
C	0.2695908807186502 0.4935625135221626 0.5628670185649675	-0.179395
C	0.2733010632316932 0.4170846854397113 0.5652565843935325	0.102701
C	0.2254354804059495 0.6123317188427345 0.6239292744863026	0.061821
C	0.2888459160722220 0.6546779306486961 0.6205391123849279	-0.174877
C	0.2854206102248222 0.7324917451949081 0.6218515195318323	0.085750
C	0.1502123551075602 0.7231001791551710 0.6246848236331806	-0.125592
C	0.1554802041883023 0.6474721087734574 0.6272142256105528	-0.136356
C	0.2935432472001449 0.0866885476540013 0.6882447843201749	0.100829
C	0.3021345596686159 0.0105982474828179 0.6881619579129343	-0.180837
C	0.2692709402131616 0.9687864546920661 0.6249474744888348	0.110675
C	0.2304091322813473 0.0064374834778334 0.5628670185649675	-0.179397
C	0.2266989507683077 0.0829153215602929 0.5652565843935325	0.102702
C	0.2745645195940508 0.8876682811572655 0.6239292744863026	0.061820
C	0.2111541249277779 0.8453220693513039 0.6205391123849279	-0.174876
C	0.2145793627751790 0.7675082548050918 0.6218515195318323	0.085750
C	0.3497876308924386 0.7768998208448290 0.6246848236331806	-0.125591
C	0.3445197958116978 0.8525278912265426 0.6272142256105528	-0.136358
C	0.4133114653459961 0.2935432472001449 0.6882447843201749	0.100827
C	0.4894017335171840 0.3021345596686159 0.6881619579129343	-0.180836
C	0.5312135453079339 0.2692709402131616 0.6249474744888348	0.110674
C	0.4935625135221626 0.2304091322813473 0.5628670185649675	-0.179396
C	0.4170846854397113 0.2266989507683077 0.5652565843935325	0.102702
C	0.6123317188427345 0.2745645195940508 0.6239292744863028	0.061821
C	0.6546779306486961 0.2111541249277779 0.6205391123849279	-0.174877
C	0.7324917451949082 0.2145793627751790 0.6218515195318323	0.085750
C	0.7231001791551710 0.3497876308924386 0.6246848236331806	-0.125592
C	0.6474721087734574 0.3445197958116978 0.6272142256105528	-0.136356
C	0.0866885476540013 0.2064567127998589 0.6882447843201749	0.100829
C	0.0105982474828179 0.1978654003313810 0.6881619579129343	-0.180839
C	0.9687864546920661 0.2307290597868385 0.6249474744888348	0.110676
C	0.0064374834778334 0.2695908807186502 0.5628670185649675	-0.179396
C	0.0829153215602929 0.2733010632316932 0.5652565843935325	0.102702
C	0.8876682811572655 0.2254354804059495 0.6239292744863026	0.061820
C	0.8453220693513039 0.2888459160722220 0.6205391123849279	-0.174877
C	0.7675082548050918 0.2854206102248222 0.6218515195318323	0.085749
C	0.7768998208448290 0.1502123551075602 0.6246848236331806	-0.125591
C	0.8525278912265426 0.1554802041883022 0.6272142256105528	-0.136358
H	0.1851693800879242 0.1207396306471002 0.2387839671769524	0.103023
H	0.1677725920517186 0.9839349654608756 0.2384031311833146	0.115277
H	0.2951926709337107 0.9763637553634622 0.0119227450582523	0.114567
H	0.2999692583685640 0.1143738949453864 0.0157442101859270	0.102044
H	0.3427324622998353 0.8721121300724891 0.1193363393179687	0.108647
H	0.0963785198010453 0.7499901099029072 0.1254978516292892	0.107140
H	0.1059173017640283 0.8865395406895590 0.1297961294923507	0.102345
H	0.3148305929120773 0.3792603963529056 0.2387839671769524	0.103022
H	0.3322274479482774 0.5160650345391244 0.2384031311833146	0.115276
H	0.2048073420662872 0.5236362446365378 0.0119227450582523	0.114568
H	0.2000307416314361 0.3856261050546136 0.0157442101859270	0.102043
H	0.1572675517001655 0.6278878699275109 0.1193363393179687	0.108645
H	0.4036214731989506 0.7500098900970928 0.1254978516292892	0.107140
H	0.3940827112359765 0.6134604593104410 0.1297961294923507	0.102346
H	0.3792603963529056 0.1851693800879242 0.2387839671769524	0.103022
H	0.5160650345391244 0.1677725920517186 0.2384031311833146	0.115278
H	0.5236362446365378 0.2951926709337107 0.0119227450582523	0.114567
H	0.3856261050546136 0.2999692583685640 0.0157442101859270	0.102043
H	0.6278878699275109 0.3427324622998353 0.1193363393179687	0.108648
H	0.7500098900970928 0.0963785198010453 0.1254978516292892	0.107140
H	0.6134604593104410 0.1059173017640283 0.1297961294923507	0.102346
H	0.1207396306471002 0.3148305929120773 0.2387839671769524	0.103023
H	0.9839349654608756 0.3322274479482774 0.2384031311833146	0.115276
H	0.9763637553634622 0.2048073420662872 0.0119227450582523	0.114568
H	0.1143738949453864 0.2000307416314361 0.0157442101859270	0.102044
H	0.8721121300724891 0.1572675517001655 0.1193363393179687	0.108645
H	0.7499901099029072 0.4036214731989506 0.1254978516292892	0.107141
H	0.8865395406895590 0.3940827112359765 0.1297961294923507	0.102345
H	0.8148305929120768 0.6207396576470988 0.2612160488230490	0.103023
H	0.8322273669482815 0.4839350194608725 0.2615968688166854	0.115276
H	0.7048073290662901 0.4763637553634626 0.4880772569417482	0.114568
H	0.7000307946314368 0.6143739219453846 0.4842557878140728	0.102038
H	0.6572675377001642 0.3721120760724914 0.3806636686820323	0.108646
H	0.9036214201989502 0.2499901369029056 0.3745021403707101	0.107141
H	0.8940826842359777 0.3865395666895539 0.3702038785076498	0.102347
H	0.6851694070879232 0.8792603423529012 0.2612160488230490	0.103024
H	0.6677726330517185 0.0160649965391216 0.2615968688166854	0.115277
H	0.7951926709337099 0.0236362436365340 0.4880772569417482	0.114567
H	0.7999692053685632 0.8856260780546154 0.4842557878140728	0.102044
H	0.8427324622998358 0.1278879369275130 0.3806636686820323	0.108646
H	0.5963785268010490 0.2500098360970885 0.3745021403707101	0.107138
H	0.6059173157640223 0.1134604463104438 0.3702038785076498	0.102344
H	0.6207396576470988 0.6851694070879232 0.2612160488230490	0.103024
H	0.4839350194608725 0.6677726330517185 0.2615968688166854	0.115277
H	0.4763637553634626 0.7951926709337099 0.4880772569417482	0.114567
H	0.6143739219453846 0.7999692053685632 0.4842557878140728	0.102038
H	0.3721120760724914 0.8427324622998358 0.3806636686820323	0.108647
H	0.2499901369029056 0.5963785268010490 0.3745021403707101	0.107140
H	0.3865395666895539 0.6059173157640223 0.3702038785076498	0.102345
H	0.8792603423529012 0.8148305929120768 0.2612160488230490	0.103023
H	0.0160649965391216 0.8322273669482815 0.2615968688166854	0.115277
H	0.0236362436365340 0.7048073290662901 0.4880772569417482	0.114568
H	0.8856260780546154 0.7000307946314368 0.4842557878140728	0.102043
H	0.1278879369275130 0.6572675377001642 0.3806636686820323	0.108645
H	0.2500098360970885 0.9036214201989502 0.3745021403707101	0.107140
H	0.1134604463104438 0.8940826842359777 0.3702038785076498	0.102346
H	0.8148305929120768 0.8792603423529012 0.7612160178230496	0.103022
H	0.8322273669482815 0.0160649965391216 0.7615968838166896	0.115283
H	0.7048073290662901 0.0236362436365340 0.9880772879417469	0.114557
H	0.7000307946314368 0.8856260780546154 0.9842557238140746	0.102044
H	0.6572675377001642 0.1278879369275130 0.8806636366820293	0.108646
H	0.9036214201989502 0.2500098360970885 0.8745020773707087	0.107141
H	0.8940826842359777 0.1134604463104438 0.8702038465076473	0.102346
H	0.6851694070879232 0.6207396576470988 0.7612160178230497	0.103024
H	0.6677726330517185 0.4839350194608725 0.7615968838166896	0.115282
H	0.7951926709337099 0.4763637553634626 0.9880772879417469	0.114557
H	0.7999692053685632 0.6143739219453846 0.9842557238140746	0.102039
H	0.8427324622998358 0.3721120760724914 0.8806636366820293	0.108645
H	0.5963785268010490 0.2499901369029056 0.8745020773707087	0.107138
H	0.6059173157640223 0.3865395666895539 0.8702038465076473	0.102346
H	0.6207396576470988 0.8148305929120768 0.7612160178230496	0.103023
H	0.4839350194608725 0.8322273669482815 0.7615968838166896	0.115281
H	0.4763637553634626 0.7048073290662901 0.9880772879417469	0.114558
H	0.6143739219453846 0.7000307946314368 0.9842557238140746	0.102038
H	0.3721120760724914 0.6572675377001642 0.8806636366820293	0.108646
H	0.2499901369029056 0.9036214201989502 0.8745020773707087	0.107141
H	0.3865395666895539 0.8940826842359777 0.8702038465076473	0.102346
H	0.8792603423529012 0.6851694070879232 0.7612160178230496	0.103023
H	0.0160649965391216 0.6677726330517185 0.7615968838166896	0.115284
H	0.0236362436365340 0.7951926709337099 0.9880772879417469	0.114557
H	0.8856260780546154 0.7999692053685632 0.9842557238140746	0.102045
H	0.1278879369275130 0.8427324622998358 0.8806636366820293	0.108646
H	0.2500098360970885 0.5963785268010490 0.8745020773707087	0.107138
H	0.1134604463104438 0.6059173157640223 0.8702038465076473	0.102346
H	0.1851693800879242 0.3792603963529056 0.7387839821769504	0.103022
H	0.1677725920517186 0.5160650345391244 0.7384031161833104	0.115283
H	0.2951926709337107 0.5236362446365378 0.5119227430582521	0.114557
H	0.2999692583685640 0.3856261050546136 0.5157442121859273	0.102044
H	0.3427324622998353 0.6278878699275109 0.6193363633179707	0.108647
H	0.0963785198010453 0.7500098900970928 0.6254979226292913	0.107139
H	0.1059173017640283 0.6134604593104410 0.6297961534923527	0.102345
H	0.3148305929120773 0.1207396306471002 0.7387839821769504	0.103023
H	0.3322274479482774 0.9839349654608756 0.7384031161833104	0.115283
H	0.2048073420662872 0.9763637553634622 0.5119227430582521	0.114558
H	0.2000307416314361 0.1143738949453864 0.5157442121859273	0.102045
H	0.1572675517001655 0.8721121300724891 0.6193363633179707	0.108644
H	0.4036214731989506 0.7499901099029072 0.6254979226292913	0.107139
H	0.3940827112359765 0.8865395406895590 0.6297961534923527	0.102348
H	0.3792603963529056 0.3148305929120773 0.7387839821769504	0.103022
H	0.5160650345391244 0.3322274479482774 0.7384031161833104	0.115283
H	0.5236362446365378 0.2048073420662872 0.5119227430582521	0.114558
H	0.3856261050546136 0.2000307416314361 0.5157442121859273	0.102045
H	0.6278878699275109 0.1572675517001655 0.6193363633179707	0.108646
H	0.7500098900970928 0.4036214731989506 0.6254979226292913	0.107141
H	0.6134604593104410 0.3940827112359765 0.6297961534923527	0.102347
H	0.1207396306471002 0.1851693800879242 0.7387839821769504	0.103023
H	0.9839349654608756 0.1677725920517186 0.7384031161833104	0.115284
H	0.9763637553634622 0.2951926709337107 0.5119227430582521	0.114556
H	0.1143738949453864 0.2999692583685640 0.5157442121859273	0.102045
H	0.8721121300724891 0.3427324622998353 0.6193363633179707	0.108645
H	0.7499901099029072 0.0963785198010453 0.6254979226292913	0.107138
H	0.8865395406895590 0.1059173017640283 0.6297961534923527	0.102346
F	0.3275461743951920 0.1857748670792777 0.3775809805373253	-0.570414
F	0.1724538526048070 0.3142251329207223 0.3775809805373253	-0.570413
F	0.3142251329207223 0.3275461743951920 0.3775809805373253	-0.570413
F	0.1857748670792777 0.1724538526048070 0.3775809805373253	-0.570415
F	0.6724538256048084 0.6857748130792801 0.1224190194626747	-0.570414
F	0.8275461743951916 0.8142251869207199 0.1224190194626747	-0.570414
F	0.6857748130792801 0.8275461743951916 0.1224190194626747	-0.570412
F	0.8142251869207199 0.6724538256048084 0.1224190194626747	-0.570415
F	0.6724538256048084 0.8142251869207199 0.6224189874626723	-0.570415
F	0.8275461743951916 0.6857748130792801 0.6224189874626723	-0.570416
F	0.6857748130792801 0.6724538256048084 0.6224189874626723	-0.570417
F	0.8142251869207199 0.8275461743951916 0.6224189874626723	-0.570415
F	0.3275461743951920 0.3142251329207223 0.8775810125373277	-0.570416
F	0.1724538526048070 0.1857748670792777 0.8775810125373277	-0.570416
F	0.3142251329207223 0.1724538526048070 0.8775810125373277	-0.570417
F	0.1857748670792777 0.3275461743951920 0.8775810125373277	-0.570414
F	0.2500000000000000 0.2500000000000000 0.2635800563193851	-0.520045
F	0.2500000000000000 0.2500000000000000 0.4913977410107170	-0.521724
F	0.7500000000000000 0.7500000000000000 0.2364199596806163	-0.520045
F	0.7500000000000000 0.7500000000000000 0.0086022659892872	-0.521724
F	0.7500000000000000 0.7500000000000000 0.7364199116806123	-0.520040
F	0.7500000000000000 0.7500000000000000 0.5086022909892861	-0.521721
F	0.2500000000000000 0.2500000000000000 0.7635800883193878	-0.520040
F	0.2500000000000000 0.2500000000000000 0.9913977090107139	-0.521721
Cd	0.2500000000000000 0.2500000000000000 0.1274514919270597	0.824194
Cd	0.7500000000000000 0.7500000000000000 0.3725485240729416	0.824227
Cd	0.7500000000000000 0.7500000000000000 0.8725484930729425	0.824220
Cd	0.2500000000000000 0.2500000000000000 0.6274515069270575	0.824188
Ge	0.2500000000000000 0.2500000000000000 0.3774654927042855	1.803508
Ge	0.7500000000000000 0.7500000000000000 0.1225345152957153	1.803509
Ge	0.7500000000000000 0.7500000000000000 0.6225344762957160	1.803512
Ge	0.2500000000000000 0.2500000000000000 0.8774655237042840	1.803511
	  	
