#======================================================================

# CRYSTAL DATA

#----------------------------------------------------------------------

data_VESTA_phase_1


_pd_phase_name                         GeFSIX_16_Cu_i
_cell_length_a                         24.90917
_cell_length_b                         24.90917
_cell_length_c                         7.89311
_cell_angle_alpha                      90
_cell_angle_beta                       90
_cell_angle_gamma                      90
_symmetry_space_group_name_H-M         P 1
_symmetry_Int_Tables_number            1

loop_
_symmetry_equiv_pos_as_xyz
   x, y, z

loop_
   _atom_site_label
   _atom_site_fract_x
   _atom_site_fract_y
   _atom_site_fract_z
   _atom_site_charge
C	0.4784646155961076 0.3904070164891820 0.3691145934236760	0.101735
C	0.4774784783904702 0.3346938863769017 0.3648565031147182	-0.168413
C	0.9547166545186733 0.6139576805175070 0.9428885890259251	-0.124397
C	0.9548617798471386 0.5582197704883993 0.9436868240352305	-0.123963
C	0.5215354224038882 0.6095930215108141 0.3691145934236760	0.101735
C	0.5225215216095299 0.6653061516230946 0.3648565031147182	-0.168413
C	0.0452832694813272 0.3860422804824934 0.9428885890259251	-0.124396
C	0.0451382391528595 0.4417802675116038 0.9436868240352305	-0.123963
C	0.6095930215108141 0.4784646155961076 0.3691145934236760	0.101735
C	0.6653061516230946 0.4774784783904702 0.3648565031147182	-0.168413
C	0.3860422804824934 0.9547166545186733 0.9428885890259251	-0.124396
C	0.4417802675116038 0.9548617798471386 0.9436868240352305	-0.123963
C	0.3904070164891820 0.5215354224038882 0.3691145934236760	0.101735
C	0.3346938863769017 0.5225215216095299 0.3648565031147182	-0.168413
C	0.6139576805175070 0.0452832694813272 0.9428885890259251	-0.124397
C	0.5582197704883993 0.0451382391528595 0.9436868240352305	-0.123963
C	0.5215354224038882 0.3904070164891820 0.6308854065763241	0.101735
C	0.5225215216095299 0.3346938863769017 0.6351434648852796	-0.168413
C	0.0452832694813272 0.6139576805175070 0.0571114229740759	-0.124397
C	0.0451382391528595 0.5582197704883993 0.0563131519647678	-0.123963
C	0.4784646155961076 0.6095930215108141 0.6308854065763241	0.101735
C	0.4774784783904702 0.6653061516230946 0.6351434648852796	-0.168414
C	0.9547166545186733 0.3860422804824934 0.0571114229740759	-0.124396
C	0.9548617798471386 0.4417802675116038 0.0563131519647678	-0.123963
C	0.3904070164891820 0.4784646155961076 0.6308854065763241	0.101735
C	0.3346938863769017 0.4774784783904702 0.6351434648852796	-0.168413
C	0.6139576805175070 0.9547166545186733 0.0571114229740759	-0.124397
C	0.5582197704883993 0.9548617798471386 0.0563131519647678	-0.123963
C	0.6095930215108141 0.5215354224038882 0.6308854065763241	0.101735
C	0.6653061516230946 0.5225215216095299 0.6351434648852796	-0.168414
C	0.3860422804824934 0.0452832694813272 0.0571114229740759	-0.124396
C	0.4417802675116038 0.0451382391528595 0.0563131519647678	-0.123963
C	0.5452833074813307 0.8860422424824973 0.5571114429740704	-0.124396
C	0.5451382201528614 0.9417802675116038 0.5563131439647668	-0.123963
C	0.0215353764038916 0.1095929645108200 0.1308854065763241	0.101735
C	0.0225215196095295 0.1653061136230985 0.1351434808852806	-0.168413
C	0.4547167305186727 0.1139577285175036 0.5571114429740704	-0.124396
C	0.4548617418471428 0.0582197174883985 0.5563131439647668	-0.123963
C	0.9784645775961118 0.8904069784891859 0.1308854065763241	0.101735
C	0.9774784783904701 0.8346938863769015 0.1351434808852806	-0.168413
C	0.1139577285175036 0.5452833074813307 0.5571114429740704	-0.124396
C	0.0582197174883985 0.5451382201528614 0.5563131439647668	-0.123963
C	0.8904069784891859 0.0215353764038916 0.1308854065763241	0.101735
C	0.8346938863769015 0.0225215196095295 0.1351434808852806	-0.168413
C	0.8860422424824973 0.4547167305186727 0.5571114429740704	-0.124396
C	0.9417802675116038 0.4548617418471428 0.5563131439647668	-0.123963
C	0.1095929645108200 0.9784645775961118 0.1308854065763241	0.101735
C	0.1653061136230985 0.9774784783904701 0.1351434808852806	-0.168413
C	0.4547167305186727 0.8860422424824973 0.4428885890259252	-0.124396
C	0.4548617418471428 0.9417802675116038 0.4436868560352328	-0.123963
C	0.9784645775961118 0.1095929645108200 0.8691146254236715	0.101735
C	0.9774784783904701 0.1653061136230985 0.8648565031147177	-0.168413
C	0.5452833074813307 0.1139577285175036 0.4428885890259252	-0.124396
C	0.5451382201528614 0.0582197174883985 0.4436868560352328	-0.123963
C	0.0215353764038916 0.8904069784891859 0.8691146254236715	0.101735
C	0.0225215196095295 0.8346938863769015 0.8648565031147177	-0.168414
C	0.8860422424824973 0.5452833074813307 0.4428885890259252	-0.124396
C	0.9417802675116038 0.5451382201528614 0.4436868560352328	-0.123963
C	0.1095929645108200 0.0215353764038916 0.8691146254236715	0.101735
C	0.1653061136230985 0.0225215196095295 0.8648565031147177	-0.168413
C	0.1139577285175036 0.4547167305186727 0.4428885890259252	-0.124396
C	0.0582197174883985 0.4548617418471428 0.4436868560352328	-0.123963
C	0.8904069784891859 0.9784645775961118 0.8691146254236715	0.101735
C	0.8346938863769015 0.9774784783904701 0.8648565031147177	-0.168414
C	0.5000000000000000 0.3055354034733169 0.5000000000000000	0.175528
C	0.5000000000000000 0.2485916509416656 0.5000000000000000	-0.115591
C	0.5000000000000000 0.1996421505988984 0.5000000000000000	-0.093755
C	0.5000000000000000 0.1427532798478156 0.5000000000000000	0.123590
C	0.5000000000000000 0.0295201328173081 0.5000000000000000	0.063927
C	0.0000000000000000 0.8055353844733115 0.0000000000000000	0.175528
C	0.0000000000000000 0.7485916309416641 0.0000000000000000	-0.115591
C	0.0000000000000000 0.6996421125989027 0.0000000000000000	-0.093755
C	0.0000000000000000 0.6427532418478128 0.0000000000000000	0.123590
C	0.0000000000000000 0.5295201468173093 0.0000000000000000	0.063927
C	0.5000000000000000 0.6944645775266853 0.5000000000000000	0.175528
C	0.5000000000000000 0.7514084070583319 0.5000000000000000	-0.115591
C	0.5000000000000000 0.8003578494011012 0.5000000000000000	-0.093755
C	0.5000000000000000 0.8572467201521841 0.5000000000000000	0.123590
C	0.5000000000000000 0.9704798531826907 0.5000000000000000	0.063926
C	0.0000000000000000 0.1944645965266833 0.0000000000000000	0.175528
C	0.0000000000000000 0.2514083490583344 0.0000000000000000	-0.115591
C	0.0000000000000000 0.3003578294010998 0.0000000000000000	-0.093755
C	0.0000000000000000 0.3572467201521844 0.0000000000000000	0.123590
C	0.0000000000000000 0.4704798911826938 0.0000000000000000	0.063926
C	0.6944645775266853 0.5000000000000000 0.5000000000000000	0.175528
C	0.7514084070583319 0.5000000000000000 0.5000000000000000	-0.115591
C	0.8003578494011012 0.5000000000000000 0.5000000000000000	-0.093755
C	0.8572467201521841 0.5000000000000000 0.5000000000000000	0.123590
C	0.9704798531826907 0.5000000000000000 0.5000000000000000	0.063927
C	0.1944645965266833 0.0000000000000000 0.0000000000000000	0.175528
C	0.2514083490583344 0.0000000000000000 0.0000000000000000	-0.115591
C	0.3003578294010998 0.0000000000000000 0.0000000000000000	-0.093755
C	0.3572467201521844 0.0000000000000000 0.0000000000000000	0.123590
C	0.4704798911826938 0.0000000000000000 0.0000000000000000	0.063927
C	0.3055354034733169 0.5000000000000000 0.5000000000000000	0.175528
C	0.2485916509416656 0.5000000000000000 0.5000000000000000	-0.115591
C	0.1996421505988984 0.5000000000000000 0.5000000000000000	-0.093755
C	0.1427532798478156 0.5000000000000000 0.5000000000000000	0.123590
C	0.0295201328173081 0.5000000000000000 0.5000000000000000	0.063926
C	0.8055353844733115 0.0000000000000000 0.0000000000000000	0.175528
C	0.7485916309416641 0.0000000000000000 0.0000000000000000	-0.115591
C	0.6996421125989027 0.0000000000000000 0.0000000000000000	-0.093755
C	0.6427532418478128 0.0000000000000000 0.0000000000000000	0.123590
C	0.5295201468173093 0.0000000000000000 0.0000000000000000	0.063927
H	0.4623269536826739 0.4139963462794539 0.2642635639544486	0.105554
H	0.4596449370645386 0.3140665786470547 0.2572199990115344	0.128661
H	0.9197887035465360 0.6359086820362798 0.8968733067456145	0.111540
H	0.9200758433052547 0.5363266089685689 0.8959160512274422	0.106228
H	0.5376730463173257 0.5860036537205464 0.2642635639544486	0.105554
H	0.5403551009354643 0.6859334973529444 0.2572199990115344	0.128661
H	0.0802112774534661 0.3640913179637202 0.8968733067456145	0.111540
H	0.0799241856947440 0.4636734300314306 0.8959160512274422	0.106227
H	0.5860036537205464 0.4623269536826739 0.2642635639544486	0.105554
H	0.6859334973529444 0.4596449370645386 0.2572199990115344	0.128661
H	0.3640913179637202 0.9197887035465360 0.8968733067456145	0.111540
H	0.4636734300314306 0.9200758433052547 0.8959160512274422	0.106228
H	0.4139963462794539 0.5376730463173257 0.2642635639544486	0.105554
H	0.3140665786470547 0.5403551009354643 0.2572199990115344	0.128661
H	0.6359086820362798 0.0802112774534661 0.8968733067456145	0.111540
H	0.5363266089685689 0.0799241856947440 0.8959160512274422	0.106228
H	0.5376730463173257 0.4139963462794539 0.7357364200455498	0.105554
H	0.5403551009354643 0.3140665786470547 0.7427800009884656	0.128661
H	0.0802112774534661 0.6359086820362798 0.1031266692543833	0.111540
H	0.0799241856947440 0.5363266089685689 0.1040839487725576	0.106228
H	0.4623269536826739 0.5860036537205464 0.7357364200455498	0.105554
H	0.4596449370645386 0.6859334973529444 0.7427800009884656	0.128661
H	0.9197887035465360 0.3640913179637202 0.1031266692543833	0.111540
H	0.9200758433052547 0.4636734300314306 0.1040839487725576	0.106228
H	0.4139963462794539 0.4623269536826739 0.7357364200455498	0.105554
H	0.3140665786470547 0.4596449370645386 0.7427800009884656	0.128661
H	0.6359086820362798 0.9197887035465360 0.1031266692543833	0.111540
H	0.5363266089685689 0.9200758433052547 0.1040839487725576	0.106228
H	0.5860036537205464 0.5376730463173257 0.7357364200455498	0.105554
H	0.6859334973529444 0.5403551009354643 0.7427800009884656	0.128661
H	0.3640913179637202 0.0802112774534661 0.1031266692543833	0.111540
H	0.4636734300314306 0.0799241856947440 0.1040839487725576	0.106228
H	0.5802112964534640 0.8640913179637202 0.6031266612543829	0.111540
H	0.5799241566947453 0.9636734300314308 0.6040839807725604	0.106228
H	0.0376730563173268 0.0860036247205473 0.2357364360455511	0.105554
H	0.0403551059354614 0.1859334403529434 0.2427800329884610	0.128661
H	0.4197887415465391 0.1359087110362787 0.6031266612543829	0.111540
H	0.4200758043052553 0.0363265939685641 0.6040839807725604	0.106227
H	0.9623269536826743 0.9139964232794493 0.2357364360455511	0.105554
H	0.9596448990645357 0.8140666166470579 0.2427800329884610	0.128661
H	0.1359087110362787 0.5802112964534640 0.6031266612543829	0.111540
H	0.0363265939685641 0.5799241566947453 0.6040839807725604	0.106228
H	0.9139964232794493 0.0376730563173268 0.2357364360455511	0.105554
H	0.8140666166470579 0.0403551059354614 0.2427800329884610	0.128661
H	0.8640913179637203 0.4197887415465391 0.6031266612543829	0.111540
H	0.9636734300314308 0.4200758043052553 0.6040839807725604	0.106227
H	0.0860036247205473 0.9623269536826743 0.2357364360455511	0.105554
H	0.1859334403529434 0.9596448990645357 0.2427800329884610	0.128661
H	0.4197887415465391 0.8640913179637202 0.3968733067456147	0.111540
H	0.4200758043052553 0.9636734300314308 0.3959160832274379	0.106228
H	0.9623269536826743 0.0860036247205473 0.7642635479544475	0.105554
H	0.9596448990645357 0.1859334403529434 0.7572199670115388	0.128661
H	0.5802112964534640 0.1359087110362787 0.3968733067456147	0.111540
H	0.5799241566947453 0.0363265939685641 0.3959160832274379	0.106228
H	0.0376730563173268 0.9139964232794493 0.7642635479544475	0.105554
H	0.0403551059354614 0.8140666166470579 0.7572199670115388	0.128661
H	0.8640913179637202 0.5802112964534640 0.3968733067456147	0.111540
H	0.9636734300314308 0.5799241566947453 0.3959160832274379	0.106228
H	0.0860036247205473 0.0376730563173268 0.7642635479544475	0.105554
H	0.1859334403529434 0.0403551059354614 0.7572199670115388	0.128661
H	0.1359087110362787 0.4197887415465391 0.3968733067456147	0.111540
H	0.0363265939685641 0.4200758043052553 0.3959160832274379	0.106228
H	0.9139964232794493 0.9623269536826743 0.7642635479544475	0.105554
H	0.8140666166470579 0.9596448990645357 0.7572199670115388	0.128661
Cu	0.5000000000000000 0.5000000000000000 0.5000000000000000	0.736580
Cu	0.0000000000000000 0.0000000000000000 0.0000000000000000	0.736580
Ge	0.5000000000000000 0.5000000000000000 0.0000000000000000	1.774467
Ge	0.0000000000000000 0.0000000000000000 0.5000000000000000	1.774467
F	0.5000000000000000 0.5000000000000000 0.2317049227911477	-0.537351
F	0.0000000000000000 0.0000000000000000 0.7317048907911523	-0.537351
F	0.5000000000000000 0.5000000000000000 0.7682950132088540	-0.537351
F	0.0000000000000000 0.0000000000000000 0.2682950772088522	-0.537351
F	0.5520163176466631 0.5520163176466631 0.0000000000000000	-0.556163
F	0.0520162706466626 0.0520162706466626 0.5000000000000000	-0.556163
F	0.4479837583533434 0.4479837583533434 0.0000000000000000	-0.556163
F	0.9479837203533400 0.9479837203533400 0.5000000000000000	-0.556163
F	0.4479837583533434 0.5520163176466631 0.0000000000000000	-0.556163
F	0.9479837203533400 0.0520162706466626 0.5000000000000000	-0.556163
F	0.5520163176466631 0.4479837583533434 0.0000000000000000	-0.556163
F	0.0520162706466626 0.9479837203533400 0.5000000000000000	-0.556163
N	0.5000000000000000 0.4177499613143659 0.5000000000000000	-0.230513
N	0.0000000000000000 0.9177499993143693 0.0000000000000000	-0.230513
N	0.5000000000000000 0.5822500386856339 0.5000000000000000	-0.230513
N	0.0000000000000000 0.0822500476856312 0.0000000000000000	-0.230513
N	0.5822500386856339 0.5000000000000000 0.5000000000000000	-0.230513
N	0.0822500476856312 0.0000000000000000 0.0000000000000000	-0.230513
N	0.4177499613143659 0.5000000000000000 0.5000000000000000	-0.230513
N	0.9177499993143693 0.0000000000000000 0.0000000000000000	-0.230513
	  	
