#======================================================================

# CRYSTAL DATA

#----------------------------------------------------------------------

data_VESTA_phase_1


_pd_phase_name                         GeFSIX_1_Zn
_cell_length_a                         11.35861
_cell_length_b                         11.35861
_cell_length_c                         7.93020
_cell_angle_alpha                      90
_cell_angle_beta                       90
_cell_angle_gamma                      90
_symmetry_space_group_name_H-M         P 1
_symmetry_Int_Tables_number            1

loop_
_symmetry_equiv_pos_as_xyz
   x, y, z

loop_
   _atom_site_label
   _atom_site_fract_x
   _atom_site_fract_y
   _atom_site_fract_z
   _atom_site_charge
C	0.2508465974402134 0.4576652677896455 0.3666285737086258	0.104555
C	0.1284550273709163 0.4570940405479947 0.3616931178487838	-0.173117
C	0.7491534895597904 0.5423347752103541 0.3666285737086258	0.104555
C	0.8715450166290872 0.5429059594520056 0.3616931178487838	-0.173117
C	0.5423347752103541 0.2508465974402134 0.3666285737086258	0.104555
C	0.5429059594520056 0.1284550273709163 0.3616931178487838	-0.173117
C	0.4576652677896455 0.7491534895597904 0.3666285737086258	0.104555
C	0.4570940405479947 0.8715450166290872 0.3616931178487838	-0.173117
C	0.7491534895597904 0.4576652677896455 0.6333713962913716	0.104556
C	0.8715450166290872 0.4570940405479947 0.6383068531512101	-0.173115
C	0.2508465974402134 0.5423347752103541 0.6333713962913716	0.104556
C	0.1284550273709163 0.5429059594520056 0.6383068531512101	-0.173115
C	0.4576652677896455 0.2508465974402134 0.6333713962913716	0.104556
C	0.4570940405479947 0.1284550273709163 0.6383068531512101	-0.173115
C	0.5423347752103541 0.7491534895597904 0.6333713962913716	0.104556
C	0.5429059594520056 0.8715450166290872 0.6383068531512101	-0.173115
C	0.0648872820521684 0.5000000000000000 0.5000000000000000	0.100725
C	0.9351127939478308 0.5000000000000000 0.5000000000000000	0.100726
C	0.5000000000000000 0.0648872820521684 0.5000000000000000	0.100725
C	0.5000000000000000 0.9351127939478308 0.5000000000000000	0.100726
H	0.3024866265356100 0.4243940334896587 0.2606076610282279	0.100649
H	0.0832356558056836 0.4212910898516432 0.2518300208034461	0.121788
H	0.6975133304643899 0.5756059665103415 0.2606076610282279	0.100649
H	0.9167643601943176 0.5787089101483568 0.2518300208034461	0.121788
H	0.5756059665103415 0.3024866265356100 0.2606076610282279	0.100649
H	0.5787089101483568 0.0832356558056836 0.2518300208034461	0.121789
H	0.4243940334896587 0.6975133304643899 0.2606076610282279	0.100649
H	0.4212910898516432 0.9167643601943176 0.2518300208034461	0.121789
H	0.6975133304643899 0.4243940334896587 0.7393923099717726	0.100649
H	0.9167643601943176 0.4212910898516432 0.7481700381965556	0.121786
H	0.3024866265356100 0.5756059665103415 0.7393923099717726	0.100649
H	0.0832356558056836 0.5787089101483568 0.7481700381965556	0.121786
H	0.4243940334896587 0.3024866265356100 0.7393923099717726	0.100649
H	0.4212910898516432 0.0832356558056836 0.7481700381965556	0.121787
H	0.5756059665103415 0.6975133304643899 0.7393923099717726	0.100649
H	0.5787089101483568 0.9167643601943176 0.7481700381965556	0.121787
Zn	0.5000000000000000 0.5000000000000000 0.5000000000000000	0.734486
Ge	0.5000000000000000 0.5000000000000000 -0.0000000000000000	1.773600
F	0.5000000000000000 0.5000000000000000 0.7639289154981439	-0.513094
F	0.5000000000000000 0.5000000000000000 0.2360710845018560	-0.513094
F	0.3866358921327124 0.3866358921327124 -0.0000000000000000	-0.548429
F	0.6133641078672878 0.6133641078672878 -0.0000000000000000	-0.548429
F	0.6133641078672878 0.3866358921327124 -0.0000000000000000	-0.548429
F	0.3866358921327124 0.6133641078672878 -0.0000000000000000	-0.548429
N	0.3110134460014735 0.5000000000000000 0.5000000000000000	-0.230522
N	0.6889865759985284 0.5000000000000000 0.5000000000000000	-0.230522
N	0.5000000000000000 0.3110134460014735 0.5000000000000000	-0.230522
N	0.5000000000000000 0.6889865759985284 0.5000000000000000	-0.230522
	  	
