#======================================================================

# CRYSTAL DATA

#----------------------------------------------------------------------

data_VESTA_phase_1


_pd_phase_name                         GeFSIX_5_Zn_i
_cell_length_a                         19.96161
_cell_length_b                         19.96161
_cell_length_c                         15.62961
_cell_angle_alpha                      90
_cell_angle_beta                       90
_cell_angle_gamma                      90
_symmetry_space_group_name_H-M         P 1
_symmetry_Int_Tables_number            1

loop_
_symmetry_equiv_pos_as_xyz
   x, y, z

loop_
   _atom_site_label
   _atom_site_fract_x
   _atom_site_fract_y
   _atom_site_fract_z
   _atom_site_charge
F	0.3208739090307288 0.1922926290047347 0.3513789129039502	-0.554526
F	0.1791260789692702 0.3077073709952654 0.3513789129039502	-0.554530
F	0.3077073709952654 0.3208739090307288 0.3513789129039502	-0.554529
F	0.1922926290047347 0.1791260789692702 0.3513789129039502	-0.554527
F	0.6791261149692661 0.6922926530047367 0.1486210870960498	-0.554527
F	0.8208738850307339 0.8077073469952633 0.1486210870960498	-0.554529
F	0.6922926530047367 0.8208738850307338 0.1486210870960498	-0.554529
F	0.8077073469952633 0.6791261149692661 0.1486210870960498	-0.554527
F	0.6791261149692661 0.8077073469952633 0.6486211190960524	-0.554530
F	0.8208738850307339 0.6922926530047367 0.6486211190960524	-0.554526
F	0.6922926530047367 0.6791261149692662 0.6486211190960524	-0.554527
F	0.8077073469952633 0.8208738850307339 0.6486211190960524	-0.554529
F	0.3208739090307288 0.3077073709952654 0.8513788809039476	-0.554530
F	0.1791260789692702 0.1922926290047347 0.8513788809039476	-0.554529
F	0.3077073709952654 0.1791260789692702 0.8513788809039476	-0.554528
F	0.1922926290047347 0.3208739090307288 0.8513788809039476	-0.554531
F	0.2500000000000000 0.2500000000000000 0.4697936315778834	-0.509213
F	0.2500000000000000 0.2500000000000000 0.2326752679599171	-0.510696
F	0.7500000000000000 0.7500000000000000 0.0302063954221152	-0.509214
F	0.7500000000000000 0.7500000000000000 0.2673247160400815	-0.510698
F	0.7500000000000000 0.7500000000000000 0.5302063994221156	-0.509212
F	0.7500000000000000 0.7500000000000000 0.7673247160400818	-0.510699
F	0.2500000000000000 0.2500000000000000 0.9697936005778844	-0.509214
F	0.2500000000000000 0.2500000000000000 0.7326752839599182	-0.510697
N	0.3574339413734655 0.2474243412180264 0.6013288198002057	-0.231647
N	0.1425660586265345 0.2525756587819737 0.6013288198002057	-0.231685
N	0.2525756587819737 0.3574339413734655 0.6013288198002057	-0.231649
N	0.2474243412180264 0.1425660586265345 0.6013288198002057	-0.231683
N	0.6425660826265363 0.7474243172180244 0.8986711801997943	-0.231694
N	0.8574339173734637 0.7525756827819756 0.8986711801997943	-0.231698
N	0.7474243172180244 0.8574339173734637 0.8986711801997943	-0.231698
N	0.7525756827819756 0.6425660826265363 0.8986711801997943	-0.231693
N	0.6425660826265363 0.7525756827819756 0.3986712111997936	-0.231692
N	0.8574339173734637 0.7474243172180244 0.3986712111997936	-0.231695
N	0.7474243172180244 0.6425660826265363 0.3986712111997936	-0.231691
N	0.7525756827819756 0.8574339173734637 0.3986712111997936	-0.231696
N	0.3574339413734655 0.2525756587819737 0.1013288198002055	-0.231666
N	0.1425660586265345 0.2474243412180264 0.1013288198002055	-0.231702
N	0.2525756587819737 0.1425660586265345 0.1013288198002055	-0.231702
N	0.2474243412180264 0.3574339413734655 0.1013288198002055	-0.231665
C	0.3905534809544315 0.2180277093706312 0.6663071407673800	0.103643
C	0.4600564303447778 0.2166010067264740 0.6700832567623546	-0.178505
C	0.4978614560769190 0.2471433131596014 0.6052013273868359	0.106701
C	0.4624285274357334 0.2774690491602306 0.5379448171965989	-0.179695
C	0.3928254314625718 0.2763832273750562 0.5379795025080354	0.103913
C	0.5716015177520293 0.2478470336992180 0.6083054526109180	0.054882
C	0.6075819041296472 0.1917677173023313 0.6374198475272328	-0.130398
C	0.6771714110758987 0.1925754219085441 0.6400618541734441	-0.122920
C	0.7131504227272206 0.2497868762055693 0.6149570548901916	0.066573
C	0.6771590009241727 0.3061210548508714 0.5869151070625134	-0.117411
C	0.6076095867733422 0.3049686994709517 0.5829625092343630	-0.127548
C	0.1094464950455737 0.2819723146293710 0.6663071407673800	0.103660
C	0.0399435096552245 0.2833990172735282 0.6700832567623546	-0.178464
C	0.0021385229230828 0.2528566868403986 0.6052013273868359	0.106690
C	0.0375714995642651 0.2225309508397695 0.5379448171965989	-0.179691
C	0.1071745325374252 0.2236167966249456 0.5379795025080354	0.103921
C	0.9283984342479739 0.2521529423007799 0.6083054526109180	0.054897
C	0.8924181438703497 0.3082323176976681 0.6374198475272328	-0.130399
C	0.8228285889241013 0.3074245900914498 0.6400618541734441	-0.122921
C	0.7868495772727794 0.2502130997944288 0.6149570548901916	0.066590
C	0.8228410460758276 0.1938789451491287 0.5869151070625134	-0.117487
C	0.8923905092266586 0.1950313355290476 0.5829625092343630	-0.127556
C	0.2819723146293710 0.3905534809544315 0.6663071407673800	0.103645
C	0.2833990172735282 0.4600564303447778 0.6700832567623546	-0.178507
C	0.2528566868403986 0.4978614560769190 0.6052013273868359	0.106699
C	0.2225309508397695 0.4624285274357334 0.5379448171965989	-0.179692
C	0.2236167966249456 0.3928254314625718 0.5379795025080354	0.103914
C	0.2521529423007799 0.5716015177520293 0.6083054526109180	0.054882
C	0.3082323176976681 0.6075819041296472 0.6374198475272328	-0.130398
C	0.3074245900914498 0.6771714110758987 0.6400618541734441	-0.122921
C	0.2502130997944288 0.7131504227272206 0.6149570548901916	0.066571
C	0.1938789451491287 0.6771590009241727 0.5869151070625134	-0.117410
C	0.1950313355290476 0.6076095867733422 0.5829625092343630	-0.127550
C	0.2180277093706312 0.1094464950455737 0.6663071407673800	0.103659
C	0.2166010067264740 0.0399435096552245 0.6700832567623546	-0.178462
C	0.2471433131596014 0.0021385229230828 0.6052013273868359	0.106691
C	0.2774690491602306 0.0375714995642651 0.5379448171965989	-0.179693
C	0.2763832273750562 0.1071745325374252 0.5379795025080354	0.103920
C	0.2478470336992180 0.9283984342479739 0.6083054526109180	0.054897
C	0.1917677173023313 0.8924181438703497 0.6374198475272328	-0.130399
C	0.1925754219085441 0.8228285889241013 0.6400618541734441	-0.122920
C	0.2497868762055693 0.7868495772727794 0.6149570548901916	0.066592
C	0.3061210548508714 0.8228410460758276 0.5869151070625134	-0.117488
C	0.3049686994709517 0.8923905092266586 0.5829625092343630	-0.127555
C	0.6094464950455735 0.7180277573706282 0.8336928592326200	0.103659
C	0.5399435216552255 0.7166010307264690 0.8299167432376454	-0.178459
C	0.5021385439230809 0.7471433611595982 0.8947986726131641	0.106676
C	0.5375715685642671 0.7774690011602264 0.9620551828034011	-0.179645
C	0.6071745925374230 0.7763832513750515 0.9620204974919646	0.103960
C	0.4283984822479706 0.7478471056992168 0.8916945473890820	0.054885
C	0.3924180958703528 0.6917676823023318 0.8625801524727672	-0.130396
C	0.3228285169240951 0.6925753859085482 0.8599381458265559	-0.122920
C	0.2868496252727834 0.7497869002055714 0.8850429451098084	0.066574
C	0.3228409510758231 0.8061210548508714 0.9130848929374866	-0.117412
C	0.3923904372266525 0.8049686284709494 0.9170374907656370	-0.127532
C	0.8905535049544265 0.7819722426293718 0.8336928592326200	0.103665
C	0.9600564783447745 0.7833989692735310 0.8299167432376454	-0.178484
C	0.9978615040769160 0.7528566388404018 0.8947986726131641	0.106706
C	0.9624284794357368 0.7225309988397736 0.9620551828034011	-0.179701
C	0.8928254074625770 0.7236167486249485 0.9620204974919646	0.103976
C	0.0716015537520253 0.7521528943007832 0.8916945473890820	0.054914
C	0.1075818921296462 0.8082323176976682 0.8625801524727672	-0.130403
C	0.1771714590759029 0.8074245660914550 0.8599381458265559	-0.122921
C	0.2131503747272165 0.7502130997944286 0.8850429451098084	0.066575
C	0.1771590249241748 0.6938789451491286 0.9130848929374866	-0.117409
C	0.1076095627733473 0.6950313245290503 0.9170374907656370	-0.127558
C	0.7180277573706282 0.8905535049544265 0.8336928592326200	0.103666
C	0.7166010307264690 0.9600564783447745 0.8299167432376454	-0.178480
C	0.7471433611595982 0.9978615040769160 0.8947986726131641	0.106705
C	0.7774690011602264 0.9624284794357368 0.9620551828034011	-0.179704
C	0.7763832513750515 0.8928254074625770 0.9620204974919646	0.103977
C	0.7478471056992168 0.0716015537520253 0.8916945473890820	0.054915
C	0.6917676823023318 0.1075818921296462 0.8625801524727672	-0.130404
C	0.6925753859085482 0.1771714590759029 0.8599381458265559	-0.122920
C	0.7497869002055714 0.2131503747272165 0.8850429451098084	0.066573
C	0.8061210548508714 0.1771590249241748 0.9130848929374866	-0.117408
C	0.8049686284709494 0.1076095627733473 0.9170374907656370	-0.127557
C	0.7819722426293718 0.6094464950455735 0.8336928592326200	0.103659
C	0.7833989692735310 0.5399435216552255 0.8299167432376454	-0.178462
C	0.7528566388404018 0.5021385439230809 0.8947986726131641	0.106677
C	0.7225309988397736 0.5375715685642671 0.9620551828034011	-0.179641
C	0.7236167486249485 0.6071745925374230 0.9620204974919646	0.103961
C	0.7521528943007832 0.4283984822479706 0.8916945473890820	0.054885
C	0.8082323176976682 0.3924180958703528 0.8625801524727672	-0.130395
C	0.8074245660914550 0.3228285169240951 0.8599381458265559	-0.122921
C	0.7502130997944286 0.2868496252727834 0.8850429451098084	0.066576
C	0.6938789451491286 0.3228409510758231 0.9130848929374866	-0.117413
C	0.6950313245290503 0.3923904372266525 0.9170374907656370	-0.127533
C	0.6094464950455735 0.7819722426293718 0.3336928902326191	0.103661
C	0.5399435216552255 0.7833989692735310 0.3299167432376454	-0.178462
C	0.5021385439230809 0.7528566388404018 0.3947986726131643	0.106676
C	0.5375715685642671 0.7225309988397736 0.4620552138034070	-0.179641
C	0.6071745925374230 0.7236167486249485 0.4620204974919646	0.103960
C	0.4283984822479706 0.7521528943007832 0.3916945473890819	0.054885
C	0.3924180958703528 0.8082323176976682 0.3625801214727679	-0.130394
C	0.3228285169240951 0.8074245660914550 0.3599381768265551	-0.122921
C	0.2868496252727834 0.7502130997944286 0.3850428511098078	0.066575
C	0.3228409510758231 0.6938789451491286 0.4130849239374857	-0.117411
C	0.3923904372266525 0.6950313245290503 0.4170374907656366	-0.127533
C	0.8905535049544265 0.7180277573706282 0.3336928902326191	0.103664
C	0.9600564783447745 0.7166010307264690 0.3299167432376454	-0.178479
C	0.9978615040769160 0.7471433611595982 0.3947986726131643	0.106708
C	0.9624284794357368 0.7774690011602264 0.4620552138034070	-0.179705
C	0.8928254074625770 0.7763832513750515 0.4620204974919646	0.103977
C	0.0716015537520253 0.7478471056992168 0.3916945473890819	0.054915
C	0.1075818921296462 0.6917676823023318 0.3625801214727679	-0.130403
C	0.1771714590759029 0.6925753859085482 0.3599381768265551	-0.122922
C	0.2131503747272165 0.7497869002055714 0.3850428511098078	0.066575
C	0.1771590249241748 0.8061210548508714 0.4130849239374857	-0.117410
C	0.1076095627733473 0.8049686284709494 0.4170374907656366	-0.127555
C	0.7180277573706282 0.6094464950455735 0.3336928902326191	0.103660
C	0.7166010307264690 0.5399435216552255 0.3299167432376454	-0.178460
C	0.7471433611595982 0.5021385439230809 0.3947986726131643	0.106678
C	0.7774690011602264 0.5375715685642671 0.4620552138034070	-0.179643
C	0.7763832513750515 0.6071745925374230 0.4620204974919646	0.103960
C	0.7478471056992168 0.4283984822479706 0.3916945473890819	0.054885
C	0.6917676823023318 0.3924180958703528 0.3625801214727679	-0.130394
C	0.6925753859085482 0.3228285169240951 0.3599381768265551	-0.122920
C	0.7497869002055714 0.2868496252727834 0.3850428511098078	0.066576
C	0.8061210548508714 0.3228409510758231 0.4130849239374857	-0.117412
C	0.8049686284709494 0.3923904372266525 0.4170374907656366	-0.127532
C	0.7819722426293718 0.8905535049544265 0.3336928902326191	0.103666
C	0.7833989692735310 0.9600564783447745 0.3299167432376454	-0.178482
C	0.7528566388404018 0.9978615040769160 0.3947986726131643	0.106706
C	0.7225309988397736 0.9624284794357368 0.4620552138034070	-0.179702
C	0.7236167486249485 0.8928254074625770 0.4620204974919646	0.103978
C	0.7521528943007832 0.0716015537520253 0.3916945473890819	0.054915
C	0.8082323176976682 0.1075818921296462 0.3625801214727679	-0.130404
C	0.8074245660914550 0.1771714590759029 0.3599381768265551	-0.122922
C	0.7502130997944286 0.2131503747272165 0.3850428511098078	0.066573
C	0.6938789451491286 0.1771590249241748 0.4130849239374857	-0.117409
C	0.6950313245290503 0.1076095627733473 0.4170374907656366	-0.127556
C	0.3905534809544315 0.2819723146293710 0.1663071257673823	0.103652
C	0.4600564303447778 0.2833990172735282 0.1700832257623554	-0.178508
C	0.4978614560769190 0.2528566868403986 0.1052013273868358	0.106694
C	0.4624285274357334 0.2225309508397695 0.0379447821965999	-0.179667
C	0.3928254314625718 0.2236167966249456 0.0379794945080347	0.103863
C	0.5716015177520293 0.2521529423007799 0.1083054446109174	0.054882
C	0.6075819041296472 0.3082323176976681 0.1374198475272330	-0.130396
C	0.6771714110758987 0.3074245900914498 0.1400618071734437	-0.122921
C	0.7131504227272206 0.2502130997944288 0.1149571258901939	0.066574
C	0.6771590009241727 0.1938789451491287 0.0869150910625121	-0.117410
C	0.6076095867733422 0.1950313355290476 0.0829625242343611	-0.127549
C	0.1094464950455737 0.2180277093706312 0.1663071257673823	0.103666
C	0.0399435096552245 0.2166010067264740 0.1700832257623554	-0.178460
C	0.0021385229230828 0.2471433131596014 0.1052013273868358	0.106684
C	0.0375714995642651 0.2774690491602306 0.0379447821965999	-0.179671
C	0.1071745325374252 0.2763832273750562 0.0379794945080347	0.103872
C	0.9283984342479739 0.2478470336992180 0.1083054446109174	0.054898
C	0.8924181438703497 0.1917677173023313 0.1374198475272330	-0.130399
C	0.8228285889241013 0.1925754219085441 0.1400618071734437	-0.122922
C	0.7868495772727794 0.2497868762055693 0.1149571258901939	0.066591
C	0.8228410460758276 0.3061210548508714 0.0869150910625121	-0.117488
C	0.8923905092266586 0.3049686994709517 0.0829625242343611	-0.127554
C	0.2819723146293710 0.1094464950455737 0.1663071257673823	0.103665
C	0.2833990172735282 0.0399435096552245 0.1700832257623554	-0.178463
C	0.2528566868403986 0.0021385229230828 0.1052013273868358	0.106685
C	0.2225309508397695 0.0375714995642651 0.0379447821965999	-0.179667
C	0.2236167966249456 0.1071745325374252 0.0379794945080347	0.103872
C	0.2521529423007799 0.9283984342479739 0.1083054446109174	0.054897
C	0.3082323176976681 0.8924181438703497 0.1374198475272330	-0.130398
C	0.3074245900914498 0.8228285889241013 0.1400618071734437	-0.122923
C	0.2502130997944288 0.7868495772727794 0.1149571258901939	0.066592
C	0.1938789451491287 0.8228410460758276 0.0869150910625121	-0.117489
C	0.1950313355290476 0.8923905092266586 0.0829625242343611	-0.127555
C	0.2180277093706312 0.3905534809544315 0.1663071257673823	0.103654
C	0.2166010067264740 0.4600564303447778 0.1700832257623554	-0.178504
C	0.2471433131596014 0.4978614560769190 0.1052013273868358	0.106693
C	0.2774690491602306 0.4624285274357334 0.0379447821965999	-0.179670
C	0.2763832273750562 0.3928254314625718 0.0379794945080347	0.103863
C	0.2478470336992180 0.5716015177520293 0.1083054446109174	0.054882
C	0.1917677173023313 0.6075819041296472 0.1374198475272330	-0.130397
C	0.1925754219085441 0.6771714110758987 0.1400618071734437	-0.122920
C	0.2497868762055693 0.7131504227272206 0.1149571258901939	0.066572
C	0.3061210548508714 0.6771590009241727 0.0869150910625121	-0.117409
C	0.3049686994709517 0.6076095867733422 0.0829625242343611	-0.127548
H	0.3601438580656456 0.1964000327325918 0.7173688159205909	0.100144
H	0.4845094141703241 0.1935796940853442 0.7250436324512977	0.113891
H	0.4888336397620389 0.3006887707142565 0.4845915314762791	0.114031
H	0.3640864632833933 0.2984231324892556 0.4856164737123165	0.099717
H	0.5804430705990579 0.1467617042669361 0.6566675632153997	0.099761
H	0.7042853882685206 0.1487157626211679 0.6630796203961412	0.100778
H	0.7042200277676276 0.3504928431827490 0.5654267230373325	0.101454
H	0.5805505344950169 0.3492167168202240 0.5610180696429647	0.103497
H	0.1398561059343515 0.3035999912674103 0.7173688159205909	0.100127
H	0.0154905918296694 0.3064203299146579 0.7250436324512977	0.113886
H	0.0111663492379637 0.1993112412857444 0.4845915314762791	0.114029
H	0.1359135607166087 0.2015768555107433 0.4856164737123165	0.099716
H	0.9195569764009425 0.3532382957330641 0.6566675632153997	0.099761
H	0.7957146117314794 0.3512842253788310 0.6630796203961412	0.100777
H	0.7957799722323724 0.1495071688172522 0.5654267230373325	0.101468
H	0.9194494655049831 0.1507832711797822 0.5610180696429647	0.103553
H	0.3035999912674103 0.3601438580656456 0.7173688159205909	0.100144
H	0.3064203299146579 0.4845094141703241 0.7250436324512977	0.113893
H	0.1993112412857444 0.4888336397620389 0.4845915314762791	0.114030
H	0.2015768555107433 0.3640864632833933 0.4856164737123165	0.099717
H	0.3532382957330641 0.5804430705990579 0.6566675632153997	0.099760
H	0.3512842253788310 0.7042853882685206 0.6630796203961412	0.100776
H	0.1495071688172522 0.7042200277676276 0.5654267230373325	0.101457
H	0.1507832711797822 0.5805505344950169 0.5610180696429647	0.103500
H	0.1964000327325918 0.1398561059343515 0.7173688159205909	0.100127
H	0.1935796940853442 0.0154905918296694 0.7250436324512977	0.113883
H	0.3006887707142565 0.0111663492379637 0.4845915314762791	0.114030
H	0.2984231324892556 0.1359135607166087 0.4856164737123165	0.099716
H	0.1467617042669361 0.9195569764009425 0.6566675632153997	0.099762
H	0.1487157626211679 0.7957146117314794 0.6630796203961412	0.100778
H	0.3504928431827490 0.7957799722323724 0.5654267230373325	0.101466
H	0.3492167168202240 0.9194494655049831 0.5610180696429647	0.103550
H	0.6398560939343508 0.6964000327325919 0.7826311840794091	0.100127
H	0.5154905378296721 0.6935796700853425 0.7749563675487023	0.113884
H	0.5111663602379606 0.8006887707142567 0.0154084535237160	0.113966
H	0.6359135367166067 0.7984231084892539 0.0143835542876858	0.099710
H	0.4195569294009419 0.6467617042669361 0.8433324367846003	0.099762
H	0.2957146357314809 0.6487157746211691 0.8369203796038588	0.100778
H	0.2957799722323725 0.8504928431827485 0.9345732769626675	0.101456
H	0.4194495135049803 0.8492167408202191 0.9389819303570353	0.103485
H	0.8601439540656460 0.8036000152674121 0.7826311840794091	0.100127
H	0.9845093661703270 0.8064203299146575 0.7749563675487023	0.113889
H	0.9888335917620426 0.6993112292857433 0.0154084535237160	0.113980
H	0.8640863672833925 0.7015768915107461 0.0143835542876858	0.099712
H	0.0804430705990580 0.8532382957330639 0.8433324367846003	0.099760
H	0.2042853642685190 0.8512842253788309 0.8369203796038588	0.100776
H	0.2042200277676274 0.6495072048172483 0.9345732769626675	0.101457
H	0.0805505284950161 0.6507832591797809 0.9389819303570353	0.103498
H	0.6964000327325919 0.8601439540656460 0.7826311840794091	0.100127
H	0.6935796700853425 0.9845093661703270 0.7749563675487023	0.113888
H	0.8006887707142567 0.9888335917620426 0.0154084535237160	0.113981
H	0.7984231084892539 0.8640863672833925 0.0143835542876858	0.099712
H	0.6467617042669361 0.0804430705990580 0.8433324367846003	0.099763
H	0.6487157746211691 0.2042853642685190 0.8369203796038588	0.100777
H	0.8504928431827485 0.2042200277676274 0.9345732769626675	0.101455
H	0.8492167408202191 0.0805505284950161 0.9389819303570353	0.103498
H	0.8036000152674121 0.6398560939343508 0.7826311840794091	0.100127
H	0.8064203299146575 0.5154905378296721 0.7749563675487023	0.113885
H	0.6993112292857433 0.5111663602379606 0.0154084535237160	0.113965
H	0.7015768915107461 0.6359135367166067 0.0143835542876858	0.099710
H	0.8532382957330639 0.4195569294009419 0.8433324367846003	0.099759
H	0.8512842253788309 0.2957146357314809 0.8369203796038588	0.100777
H	0.6495072048172483 0.2957799722323725 0.9345732769626675	0.101458
H	0.6507832591797809 0.4194495135049803 0.9389819303570353	0.103485
H	0.6398560939343508 0.8036000152674121 0.2826312160794049	0.100126
H	0.5154905378296721 0.8064203299146575 0.2749563985487012	0.113885
H	0.5111663602379606 0.6993112292857433 0.5154084375237220	0.113964
H	0.6359135367166067 0.7015768915107461 0.5143835262876836	0.099711
H	0.4195569294009419 0.8532382957330639 0.3433324057846012	0.099760
H	0.2957146357314809 0.8512842253788309 0.3369203476038564	0.100777
H	0.2957799722323725 0.6495072048172483 0.4345733079626665	0.101459
H	0.4194495135049803 0.6507832591797809 0.4389819923570333	0.103484
H	0.8601439540656460 0.6964000327325919 0.2826312160794049	0.100128
H	0.9845093661703270 0.6935796700853425 0.2749563985487012	0.113886
H	0.9888335917620426 0.8006887707142567 0.5154084375237220	0.113979
H	0.8640863672833925 0.7984231084892539 0.5143835262876836	0.099710
H	0.0804430705990580 0.6467617042669361 0.3433324057846012	0.099761
H	0.2042853642685190 0.6487157746211691 0.3369203476038564	0.100777
H	0.2042200277676274 0.8504928431827485 0.4345733079626665	0.101454
H	0.0805505284950161 0.8492167408202191 0.4389819923570333	0.103497
H	0.6964000327325919 0.6398560939343508 0.2826312160794049	0.100126
H	0.6935796700853425 0.5154905378296721 0.2749563985487012	0.113882
H	0.8006887707142567 0.5111663602379606 0.5154084375237220	0.113965
H	0.7984231084892539 0.6359135367166067 0.5143835262876836	0.099712
H	0.6467617042669361 0.4195569294009419 0.3433324057846012	0.099761
H	0.6487157746211691 0.2957146357314809 0.3369203476038564	0.100778
H	0.8504928431827485 0.2957799722323725 0.4345733079626665	0.101456
H	0.8492167408202191 0.4194495135049803 0.4389819923570333	0.103481
H	0.8036000152674121 0.8601439540656460 0.2826312160794049	0.100128
H	0.8064203299146575 0.9845093661703270 0.2749563985487012	0.113888
H	0.6993112292857433 0.9888335917620426 0.5154084375237220	0.113978
H	0.7015768915107461 0.8640863672833925 0.5143835262876836	0.099710
H	0.8532382957330639 0.0804430705990580 0.3433324057846012	0.099760
H	0.8512842253788309 0.2042853642685190 0.3369203476038564	0.100776
H	0.6495072048172483 0.2042200277676274 0.4345733079626665	0.101456
H	0.6507832591797809 0.0805505284950161 0.4389819923570333	0.103499
H	0.3601438580656456 0.3035999912674103 0.2173688159205907	0.100143
H	0.4845094141703241 0.3064203299146579 0.2250436474513025	0.113891
H	0.4888336397620389 0.1993112412857444 0.9845915934762841	0.114025
H	0.3640864632833933 0.2015768555107433 0.9856164427123174	0.099764
H	0.5804430705990579 0.3532382957330641 0.1566675782153974	0.099759
H	0.7042853882685206 0.3512842253788310 0.1630796673961414	0.100776
H	0.7042200277676276 0.1495071688172522 0.0654266840373328	0.101457
H	0.5805505344950169 0.1507832711797822 0.0610180306429650	0.103496
H	0.1398561059343515 0.1964000327325918 0.2173688159205907	0.100126
H	0.0154905918296694 0.1935796940853442 0.2250436474513025	0.113882
H	0.0111663492379637 0.3006887707142565 0.9845915934762841	0.114024
H	0.1359135607166087 0.2984231324892556 0.9856164427123174	0.099760
H	0.9195569764009425 0.1467617042669361 0.1566675782153974	0.099762
H	0.7957146117314794 0.1487157626211679 0.1630796673961414	0.100778
H	0.7957799722323724 0.3504928431827490 0.0654266840373328	0.101465
H	0.9194494655049831 0.3492167168202240 0.0610180306429650	0.103550
H	0.3035999912674103 0.1398561059343515 0.2173688159205907	0.100127
H	0.3064203299146579 0.0154905918296694 0.2250436474513025	0.113883
H	0.1993112412857444 0.0111663492379637 0.9845915934762841	0.114023
H	0.2015768555107433 0.1359135607166087 0.9856164427123174	0.099761
H	0.3532382957330641 0.9195569764009425 0.1566675782153974	0.099759
H	0.3512842253788310 0.7957146117314794 0.1630796673961414	0.100777
H	0.1495071688172522 0.7957799722323724 0.0654266840373328	0.101467
H	0.1507832711797822 0.9194494655049831 0.0610180306429650	0.103551
H	0.1964000327325918 0.3601438580656456 0.2173688159205907	0.100142
H	0.1935796940853442 0.4845094141703241 0.2250436474513025	0.113890
H	0.3006887707142565 0.4888336397620389 0.9845915934762841	0.114027
H	0.2984231324892556 0.3640864632833933 0.9856164427123174	0.099764
H	0.1467617042669361 0.5804430705990579 0.1566675782153974	0.099762
H	0.1487157626211679 0.7042853882685206 0.1630796673961414	0.100777
H	0.3504928431827490 0.7042200277676276 0.0654266840373328	0.101455
H	0.3492167168202240 0.5805505344950169 0.0610180306429650	0.103496
Zn	0.2500000000000000 0.2500000000000000 0.6008630066464501	0.733643
Zn	0.7500000000000000 0.7500000000000000 0.8991369933535499	0.733649
Zn	0.7500000000000000 0.7500000000000000 0.3991369313535518	0.733645
Zn	0.2500000000000000 0.2500000000000000 0.1008630296464486	0.733654
Ge	0.2500000000000000 0.2500000000000000 0.3513099876870908	1.780921
Ge	0.7500000000000000 0.7500000000000000 0.1486900273129068	1.780921
Ge	0.7500000000000000 0.7500000000000000 0.6486901053129064	1.780921
Ge	0.2500000000000000 0.2500000000000000 0.8513098946870936	1.780922
	  	
