#======================================================================

# CRYSTAL DATA

#----------------------------------------------------------------------

data_VESTA_phase_1


_pd_phase_name                         GeFSIX_16_Co_i
_cell_length_a                         24.77762
_cell_length_b                         24.77762
_cell_length_c                         7.94213
_cell_angle_alpha                      90
_cell_angle_beta                       90
_cell_angle_gamma                      90
_symmetry_space_group_name_H-M         P 1
_symmetry_Int_Tables_number            1

loop_
_symmetry_equiv_pos_as_xyz
   x, y, z

loop_
   _atom_site_label
   _atom_site_fract_x
   _atom_site_fract_y
   _atom_site_fract_z
   _atom_site_charge
C	0.4783536494080183 0.3927553264074112 0.3698263739317104	0.092188
C	0.4775465701634443 0.3367725740558679 0.3658127943889016	-0.166068
C	0.9545554871664788 0.6145644531535365 0.9427601109939654	-0.124496
C	0.9546689589539392 0.5585279504661383 0.9435632260876254	-0.123448
C	0.5216463885919775 0.6072447115925851 0.3698263739317104	0.092194
C	0.5224534298365555 0.6632274639441280 0.3658127943889016	-0.166093
C	0.0454444368335220 0.3854355078464637 0.9427601109939654	-0.124465
C	0.0453310600460586 0.4414720875338651 0.9435632260876254	-0.123450
C	0.6072447115925851 0.4783536494080183 0.3698263739317104	0.092194
C	0.6632274639441280 0.4775465701634443 0.3658127943889016	-0.166093
C	0.3854355078464637 0.9545554871664788 0.9427601109939654	-0.124496
C	0.4414720875338651 0.9546689589539392 0.9435632260876254	-0.123448
C	0.3927553264074112 0.5216463885919775 0.3698263739317104	0.092188
C	0.3367725740558679 0.5224534298365555 0.3658127943889016	-0.166068
C	0.6145644531535365 0.0454444368335220 0.9427601109939654	-0.124465
C	0.5585279504661383 0.0453310600460586 0.9435632260876254	-0.123450
C	0.5216463885919775 0.3927553264074112 0.6301736260682895	0.092188
C	0.5224534298365555 0.3367725740558679 0.6341871736110959	-0.166068
C	0.0454444368335220 0.6145644531535365 0.0572399010060356	-0.124465
C	0.0453310600460586 0.5585279504661383 0.0564367499123724	-0.123450
C	0.4783536494080183 0.6072447115925851 0.6301736260682895	0.092194
C	0.4775465701634443 0.6632274639441280 0.6341871736110959	-0.166093
C	0.9545554871664788 0.3854355078464637 0.0572399010060356	-0.124495
C	0.9546689589539392 0.4414720875338651 0.0564367499123724	-0.123448
C	0.3927553264074111 0.4783536494080183 0.6301736260682895	0.092188
C	0.3367725740558679 0.4775465701634443 0.6341871736110959	-0.166068
C	0.6145644531535365 0.9545554871664788 0.0572399010060356	-0.124495
C	0.5585279504661383 0.9546689589539392 0.0564367499123724	-0.123448
C	0.6072447115925851 0.5216463885919775 0.6301736260682895	0.092194
C	0.6632274639441280 0.5224534298365555 0.6341871736110959	-0.166093
C	0.3854355078464637 0.0454444368335220 0.0572399010060356	-0.124464
C	0.4414720875338651 0.0453310600460586 0.0564367499123724	-0.123450
C	0.5454444748335252 0.8854354698464678 0.5572399210060301	-0.124501
C	0.5453310410460608 0.9414720875338648 0.5564367419123719	-0.123516
C	0.0216463425919809 0.1072446545925908 0.1301736260682896	0.092188
C	0.0224534278365556 0.1632274259441322 0.1341871896110972	-0.166067
C	0.4545555631664779 0.1145645011535335 0.5572399210060301	-0.124501
C	0.4546689209539434 0.0585278974661371 0.5564367419123719	-0.123515
C	0.9783536114080225 0.8927552884074149 0.1301736260682896	0.092188
C	0.9775465701634445 0.8367725740558680 0.1341871896110972	-0.166068
C	0.1145645011535335 0.5454444748335252 0.5572399210060301	-0.124501
C	0.0585278974661371 0.5453310410460608 0.5564367419123719	-0.123516
C	0.8927552884074149 0.0216463425919809 0.1301736260682896	0.092188
C	0.8367725740558680 0.0224534278365556 0.1341871896110972	-0.166068
C	0.8854354698464678 0.4545555631664779 0.5572399210060301	-0.124501
C	0.9414720875338648 0.4546689209539434 0.5564367419123719	-0.123515
C	0.1072446545925908 0.9783536114080225 0.1301736260682896	0.092188
C	0.1632274259441322 0.9775465701634445 0.1341871896110972	-0.166067
C	0.4545555631664779 0.8854354698464678 0.4427601109939654	-0.124501
C	0.4546689209539434 0.9414720875338648 0.4435632580876284	-0.123516
C	0.9783536114080225 0.1072446545925908 0.8698264059317060	0.092188
C	0.9775465701634445 0.1632274259441322 0.8658127943889015	-0.166068
C	0.5454444748335252 0.1145645011535335 0.4427601109939654	-0.124501
C	0.5453310410460608 0.0585278974661371 0.4435632580876284	-0.123516
C	0.0216463425919809 0.8927552884074149 0.8698264059317060	0.092188
C	0.0224534278365556 0.8367725740558680 0.8658127943889015	-0.166068
C	0.8854354698464678 0.5454444748335252 0.4427601109939654	-0.124501
C	0.9414720875338648 0.5453310410460608 0.4435632580876284	-0.123516
C	0.1072446545925908 0.0216463425919809 0.8698264059317060	0.092188
C	0.1632274259441322 0.0224534278365556 0.8658127943889015	-0.166068
C	0.1145645011535335 0.4545555631664779 0.4427601109939654	-0.124501
C	0.0585278974661371 0.4546689209539434 0.4435632580876284	-0.123516
C	0.8927552884074149 0.9783536114080225 0.8698264059317060	0.092188
C	0.8367725740558680 0.9775465701634445 0.8658127943889015	-0.166068
C	0.5000000000000000 0.3072222546030465 0.5000000000000000	0.173106
C	0.5000000000000000 0.2499960522759012 0.5000000000000000	-0.120272
C	0.5000000000000000 0.2007457915938011 0.5000000000000000	-0.088269
C	0.5000000000000000 0.1435098352079092 0.5000000000000000	0.119842
C	0.5000000000000000 0.0296678201274068 0.5000000000000000	0.064978
C	-0.0000000000000000 0.8072222356030413 0.0000000000000000	0.173107
C	-0.0000000000000000 0.7499960322758994 0.0000000000000000	-0.120277
C	-0.0000000000000000 0.7007457535938050 0.0000000000000000	-0.088256
C	-0.0000000000000000 0.6435097972079060 0.0000000000000000	0.119738
C	-0.0000000000000000 0.5296678341274083 0.0000000000000000	0.064949
C	0.5000000000000000 0.6927777263969556 0.5000000000000000	0.173123
C	0.5000000000000000 0.7500040057240966 0.5000000000000000	-0.120272
C	0.5000000000000000 0.7992542084061990 0.5000000000000000	-0.088270
C	0.5000000000000000 0.8564901647920908 0.5000000000000000	0.119842
C	0.5000000000000000 0.9703321658725917 0.5000000000000000	0.064979
C	-0.0000000000000000 0.1927777453969533 0.0000000000000000	0.173107
C	-0.0000000000000000 0.2500039477240986 0.0000000000000000	-0.120278
C	-0.0000000000000000 0.2992541884061972 0.0000000000000000	-0.088256
C	-0.0000000000000000 0.3564901647920908 0.0000000000000000	0.119737
C	-0.0000000000000000 0.4703322038725951 0.0000000000000000	0.064950
C	0.6927777263969556 0.5000000000000000 0.5000000000000000	0.173123
C	0.7500040057240966 0.5000000000000000 0.5000000000000000	-0.120272
C	0.7992542084061990 0.5000000000000000 0.5000000000000000	-0.088270
C	0.8564901647920908 0.5000000000000000 0.5000000000000000	0.119842
C	0.9703321658725917 0.5000000000000000 0.5000000000000000	0.064978
C	0.1927777453969533 0.0000000000000000 0.0000000000000000	0.173107
C	0.2500039477240986 0.0000000000000000 0.0000000000000000	-0.120278
C	0.2992541884061972 0.0000000000000000 0.0000000000000000	-0.088256
C	0.3564901647920908 0.0000000000000000 0.0000000000000000	0.119737
C	0.4703322038725951 0.0000000000000000 0.0000000000000000	0.064949
C	0.3072222546030465 0.5000000000000000 0.5000000000000000	0.173106
C	0.2499960522759012 0.5000000000000000 0.5000000000000000	-0.120272
C	0.2007457915938011 0.5000000000000000 0.5000000000000000	-0.088269
C	0.1435098352079092 0.5000000000000000 0.5000000000000000	0.119842
C	0.0296678201274068 0.5000000000000000 0.5000000000000000	0.064979
C	0.8072222356030413 0.0000000000000000 0.0000000000000000	0.173107
C	0.7499960322758994 0.0000000000000000 0.0000000000000000	-0.120277
C	0.7007457535938050 0.0000000000000000 0.0000000000000000	-0.088256
C	0.6435097972079060 0.0000000000000000 0.0000000000000000	0.119738
C	0.5296678341274083 0.0000000000000000 0.0000000000000000	0.064950
H	0.4621193297823405 0.4163742556644398 0.2656205603019481	0.106860
H	0.4597421056198028 0.3160655389148226 0.2585146019843491	0.128299
H	0.9195539179947918 0.6366696800724819 0.8966909177766325	0.111796
H	0.9197466634468103 0.5365228791478865 0.8955905918717877	0.105890
H	0.5378806702176597 0.5836257443355605 0.2656205603019481	0.106858
H	0.5402579323802004 0.6839345370851765 0.2585146019843491	0.128311
H	0.0804460630052102 0.3633303199275181 0.8966909177766325	0.111720
H	0.0802533655531884 0.4634771598521134 0.8955905918717877	0.105888
H	0.5836257443355605 0.4621193297823405 0.2656205603019481	0.106858
H	0.6839345370851765 0.4597421056198028 0.2585146019843491	0.128311
H	0.3633303199275181 0.9195539179947918 0.8966909177766325	0.111795
H	0.4634771598521134 0.9197466634468103 0.8955905918717877	0.105889
H	0.4163742556644398 0.5378806702176597 0.2656205603019481	0.106859
H	0.3160655389148226 0.5402579323802004 0.2585146019843491	0.128299
H	0.6366696800724819 0.0804460630052102 0.8966909177766325	0.111720
H	0.5365228791478865 0.0802533655531884 0.8955905918717877	0.105889
H	0.5378806702176597 0.4163742556644398 0.7343794236980506	0.106860
H	0.5402579323802004 0.3160655389148226 0.7414853980156507	0.128298
H	0.0804460630052102 0.6366696800724819 0.1033090582233653	0.111719
H	0.0802533655531884 0.5365228791478865 0.1044094081282124	0.105889
H	0.4621193297823405 0.5836257443355605 0.7343794236980506	0.106859
H	0.4597421056198028 0.6839345370851765 0.7414853980156507	0.128310
H	0.9195539179947918 0.3633303199275181 0.1033090582233653	0.111795
H	0.9197466634468103 0.4634771598521134 0.1044094081282124	0.105890
H	0.4163742556644398 0.4621193297823405 0.7343794236980506	0.106860
H	0.3160655389148226 0.4597421056198028 0.7414853980156507	0.128298
H	0.6366696800724819 0.9195539179947918 0.1033090582233653	0.111795
H	0.5365228791478865 0.9197466634468103 0.1044094081282124	0.105890
H	0.5836257443355605 0.5378806702176597 0.7343794236980506	0.106859
H	0.6839345370851765 0.5402579323802004 0.7414853980156507	0.128310
H	0.3633303199275181 0.0804460630052102 0.1033090582233653	0.111719
H	0.4634771598521134 0.0802533655531884 0.1044094081282124	0.105889
H	0.5804460820052082 0.8633303199275181 0.6033090502233649	0.111770
H	0.5802533365531897 0.9634771598521131 0.6044094401282150	0.105898
H	0.0378806802176603 0.0836257153355615 0.2343794396980520	0.106859
H	0.0402579373801971 0.1839344800851754 0.2414854300156462	0.128298
H	0.4195539559947951 0.1366697090724811 0.6033090502233649	0.111770
H	0.4197466244468107 0.0365228641478814 0.6044094401282150	0.105897
H	0.9621193297823403 0.9163743326644352 0.2343794396980520	0.106859
H	0.9597420676197996 0.8160655769148258 0.2414854300156462	0.128298
H	0.1366697090724811 0.5804460820052082 0.6033090502233649	0.111770
H	0.0365228641478814 0.5802533365531897 0.6044094401282150	0.105897
H	0.9163743326644352 0.0378806802176603 0.2343794396980520	0.106860
H	0.8160655769148258 0.0402579373801971 0.2414854300156462	0.128298
H	0.8633303199275181 0.4195539559947951 0.6033090502233649	0.111770
H	0.9634771598521131 0.4197466244468107 0.6044094401282150	0.105898
H	0.0836257153355615 0.9621193297823403 0.2343794396980520	0.106859
H	0.1839344800851754 0.9597420676197996 0.2414854300156462	0.128298
H	0.4195539559947951 0.8633303199275181 0.3966909177766325	0.111769
H	0.4197466244468107 0.9634771598521131 0.3955906238717831	0.105899
H	0.9621193297823403 0.0836257153355615 0.7656205443019467	0.106859
H	0.9597420676197996 0.1839344800851754 0.7585145699843537	0.128298
H	0.5804460820052082 0.1366697090724811 0.3966909177766325	0.111769
H	0.5802533365531897 0.0365228641478814 0.3955906238717831	0.105898
H	0.0378806802176603 0.9163743326644352 0.7656205443019467	0.106860
H	0.0402579373801971 0.8160655769148258 0.7585145699843537	0.128298
H	0.8633303199275181 0.5804460820052082 0.3966909177766325	0.111769
H	0.9634771598521131 0.5802533365531897 0.3955906238717831	0.105899
H	0.0836257153355615 0.0378806802176603 0.7656205443019467	0.106860
H	0.1839344800851754 0.0402579373801971 0.7585145699843537	0.128298
H	0.1366697090724811 0.4195539559947951 0.3966909177766325	0.111769
H	0.0365228641478814 0.4197466244468107 0.3955906238717831	0.105898
H	0.9163743326644352 0.9621193297823403 0.7656205443019467	0.106860
H	0.8160655769148258 0.9597420676197996 0.7585145699843537	0.128298
Co	0.5000000000000000 0.5000000000000000 0.5000000000000000	0.575480
Co	-0.0000000000000000 0.0000000000000000 0.0000000000000000	0.575480
Ge	0.5000000000000000 0.5000000000000000 0.0000000000000000	1.758188
Ge	-0.0000000000000000 0.0000000000000000 0.5000000000000000	1.758188
F	0.5000000000000000 0.5000000000000000 0.2313409803785092	-0.507317
F	-0.0000000000000000 0.0000000000000000 0.7313409483785137	-0.507317
F	0.5000000000000000 0.5000000000000000 0.7686589556214926	-0.507317
F	-0.0000000000000000 0.0000000000000000 0.2686590196214907	-0.507317
F	0.5521497930339866 0.5521497930339866 0.0000000000000000	-0.550251
F	0.0521497460339864 0.0521497460339864 0.5000000000000000	-0.550251
F	0.4478502829660196 0.4478502829660196 0.0000000000000000	-0.550251
F	0.9478502449660166 0.9478502449660166 0.5000000000000000	-0.550251
F	0.4478502829660196 0.5521497930339866 0.0000000000000000	-0.550251
F	0.9478502449660166 0.0521497460339864 0.5000000000000000	-0.550251
F	0.5521497930339866 0.4478502829660196 0.0000000000000000	-0.550251
F	0.0521497460339864 0.9478502449660166 0.5000000000000000	-0.550251
N	0.5000000000000000 0.4204921397263053 0.5000000000000000	-0.190755
N	-0.0000000000000000 0.9204921777263082 0.0000000000000000	-0.190755
N	0.5000000000000000 0.5795078602736949 0.5000000000000000	-0.190755
N	-0.0000000000000000 0.0795078692736920 0.0000000000000000	-0.190755
N	0.5795078602736949 0.5000000000000000 0.5000000000000000	-0.190755
N	0.0795078692736920 0.0000000000000000 0.0000000000000000	-0.190755
N	0.4204921397263053 0.5000000000000000 0.5000000000000000	-0.190755
N	0.9204921777263082 0.0000000000000000 0.0000000000000000	-0.190755
	  	
