#======================================================================

# CRYSTAL DATA

#----------------------------------------------------------------------

data_VESTA_phase_1


_pd_phase_name                         GeFSIX_3_Ni
_cell_length_a                         14.06885
_cell_length_b                         14.06885
_cell_length_c                         7.75581
_cell_angle_alpha                      90
_cell_angle_beta                       90
_cell_angle_gamma                      90
_symmetry_space_group_name_H-M         P 1
_symmetry_Int_Tables_number            1

loop_
_symmetry_equiv_pos_as_xyz
   x, y, z

loop_
   _atom_site_label
   _atom_site_fract_x
   _atom_site_fract_y
   _atom_site_fract_z
   _atom_site_charge
C	0.2710903361071834 0.4505274197606478 0.6431881741213945	0.065909
C	0.2289096638928165 0.0494725842393525 0.6431881741213945	0.065909
C	0.2289096638928165 0.4505274197606478 0.3568117938786029	0.065912
C	0.2710903361071834 0.0494725842393525 0.3568117938786029	0.065913
C	0.0494725842393525 0.2710903361071834 0.3568117938786029	0.065915
C	0.4505274197606478 0.2289096638928165 0.3568117938786029	0.065914
C	0.4505274197606478 0.2710903361071834 0.6431881741213945	0.065918
C	0.0494725842393525 0.2289096638928165 0.6431881741213945	0.065918
C	0.9505273517606496 0.2289096638928165 0.6431881741213945	0.065933
C	0.5494726482393504 0.2710903361071834 0.6431881741213945	0.065934
C	0.5494726482393504 0.2289096638928165 0.3568117938786029	0.065936
C	0.9505273517606496 0.2710903361071834 0.3568117938786029	0.065936
C	0.7289096808928142 0.0494725842393525 0.3568117938786029	0.065915
C	0.7710903191071858 0.4505274197606478 0.3568117938786029	0.065914
C	0.7710903191071858 0.0494725842393525 0.6431881741213945	0.065918
C	0.7289096808928142 0.4505274197606478 0.6431881741213945	0.065917
C	0.4505274197606478 0.7289096808928142 0.6431881741213945	0.065910
C	0.0494725842393525 0.7710903191071858 0.6431881741213945	0.065910
C	0.0494725842393525 0.7289096808928142 0.3568117938786029	0.065913
C	0.4505274197606478 0.7710903191071858 0.3568117938786029	0.065913
C	0.2289096638928165 0.5494726482393504 0.3568117938786029	0.065939
C	0.2710903361071834 0.9505273517606496 0.3568117938786029	0.065938
C	0.2710903361071834 0.5494726482393504 0.6431881741213945	0.065941
C	0.2289096638928165 0.9505273517606496 0.6431881741213945	0.065941
C	0.7710903191071858 0.9505273517606496 0.6431881741213945	0.065933
C	0.7289096808928142 0.5494726482393504 0.6431881741213945	0.065934
C	0.7289096808928142 0.9505273517606496 0.3568117938786029	0.065935
C	0.7710903191071858 0.5494726482393504 0.3568117938786029	0.065936
C	0.5494726482393504 0.7710903191071858 0.3568117938786029	0.065939
C	0.9505273517606496 0.7289096808928142 0.3568117938786029	0.065938
C	0.9505273517606496 0.7710903191071858 0.6431881741213945	0.065941
C	0.5494726482393504 0.7289096808928142 0.6431881741213945	0.065941
H	0.2877335527304036 0.4115972872013950 0.7606722949364140	0.108082
H	0.2122664132695936 0.0884027127986050 0.7606722949364140	0.108082
H	0.2122664132695936 0.4115972872013950 0.2393276740635871	0.108083
H	0.2877335527304036 0.0884027127986050 0.2393276740635871	0.108082
H	0.0884027127986050 0.2877335527304036 0.2393276740635871	0.108082
H	0.4115972872013950 0.2122664132695936 0.2393276740635871	0.108082
H	0.4115972872013950 0.2877335527304036 0.7606722949364140	0.108081
H	0.0884027127986050 0.2122664132695936 0.7606722949364140	0.108081
H	0.9115973552014006 0.2122664132695936 0.7606722949364140	0.108079
H	0.5884026447985994 0.2877335527304036 0.7606722949364140	0.108079
H	0.5884026447985994 0.2122664132695936 0.2393276740635871	0.108080
H	0.9115973552014006 0.2877335527304036 0.2393276740635871	0.108079
H	0.7122663792695979 0.0884027127986050 0.2393276740635871	0.108082
H	0.7877336207304021 0.4115972872013950 0.2393276740635871	0.108082
H	0.7877336207304021 0.0884027127986050 0.7606722949364140	0.108081
H	0.7122663792695979 0.4115972872013950 0.7606722949364140	0.108081
H	0.4115972872013950 0.7122663792695979 0.7606722949364140	0.108082
H	0.0884027127986050 0.7877336207304021 0.7606722949364140	0.108082
H	0.0884027127986050 0.7122663792695979 0.2393276740635871	0.108083
H	0.4115972872013950 0.7877336207304021 0.2393276740635871	0.108082
H	0.2122664132695936 0.5884026447985994 0.2393276740635871	0.108079
H	0.2877335527304036 0.9115973552014006 0.2393276740635871	0.108079
H	0.2877335527304036 0.5884026447985994 0.7606722949364140	0.108078
H	0.2122664132695936 0.9115973552014006 0.7606722949364140	0.108078
H	0.7877336207304021 0.9115973552014006 0.7606722949364140	0.108079
H	0.7122663792695979 0.5884026447985994 0.7606722949364140	0.108079
H	0.7122663792695979 0.9115973552014006 0.2393276740635871	0.108080
H	0.7877336207304021 0.5884026447985994 0.2393276740635871	0.108079
H	0.5884026447985994 0.7877336207304021 0.2393276740635871	0.108079
H	0.9115973552014006 0.7122663792695979 0.2393276740635871	0.108079
H	0.9115973552014006 0.7877336207304021 0.7606722949364140	0.108078
H	0.5884026447985994 0.7122663792695979 0.7606722949364140	0.108078
Ni	0.2500000000000000 0.2500000000000000 0.5000000000000000	0.752843
Ni	0.7500000340000028 0.2500000000000000 0.5000000000000000	0.752844
Ni	0.2500000000000000 0.7500000340000028 0.5000000000000000	0.752844
Ni	0.7500000340000028 0.7500000340000028 0.5000000000000000	0.752846
Ge	0.2500000000000000 0.2500000000000000 0.0000000000000000	1.753679
Ge	0.7500000340000028 0.2500000000000000 0.0000000000000000	1.753679
Ge	0.2500000000000000 0.7500000340000028 0.0000000000000000	1.753679
Ge	0.7500000340000028 0.7500000340000028 0.0000000000000000	1.753680
F	0.2500000000000000 0.2500000000000000 0.7571678003183078	-0.518818
F	0.2500000000000000 0.2500000000000000 0.2428321996816923	-0.518818
F	0.3408720104932809 0.3408720104932809 -0.0023020656378064	-0.516906
F	0.1591279895067191 0.1591279895067191 -0.0023020656378064	-0.516905
F	0.1591279895067191 0.3408720104932809 0.0023020866378045	-0.516905
F	0.3408720104932809 0.1591279895067191 0.0023020866378045	-0.516905
F	0.7500000340000028 0.2500000000000000 0.7571678003183078	-0.518818
F	0.7500000340000028 0.2500000000000000 0.2428321996816923	-0.518818
F	0.8408720444932837 0.3408720104932809 0.0023020866378045	-0.516907
F	0.6591279555067163 0.1591279895067191 0.0023020866378045	-0.516905
F	0.6591279555067163 0.3408720104932809 -0.0023020656378064	-0.516906
F	0.8408720444932837 0.1591279895067191 -0.0023020656378064	-0.516906
F	0.2500000000000000 0.7500000340000028 0.7571678003183078	-0.518818
F	0.2500000000000000 0.7500000340000028 0.2428321996816923	-0.518818
F	0.3408720104932809 0.8408720444932837 0.0023020866378045	-0.516907
F	0.1591279895067191 0.6591279555067163 0.0023020866378045	-0.516905
F	0.1591279895067191 0.8408720444932837 -0.0023020656378064	-0.516906
F	0.3408720104932809 0.6591279555067163 -0.0023020656378064	-0.516906
F	0.7500000340000028 0.7500000340000028 0.7571678003183078	-0.518818
F	0.7500000340000028 0.7500000340000028 0.2428321996816923	-0.518818
F	0.8408720444932837 0.8408720444932837 -0.0023020656378064	-0.516907
F	0.6591279555067163 0.6591279555067163 -0.0023020656378064	-0.516905
F	0.6591279555067163 0.8408720444932837 0.0023020866378045	-0.516906
F	0.8408720444932837 0.6591279555067163 0.0023020866378045	-0.516906
N	0.4007536639924036 0.2500000000000000 0.5000000000000000	-0.198326
N	0.0992463360075963 0.2500000000000000 0.5000000000000000	-0.198326
N	0.2500000000000000 0.4007536639924036 0.5000000000000000	-0.198325
N	0.2500000000000000 0.0992463360075963 0.5000000000000000	-0.198324
N	0.9007536639924039 0.2500000000000000 0.5000000000000000	-0.198331
N	0.5992463360075961 0.2500000000000000 0.5000000000000000	-0.198330
N	0.7500000340000028 0.4007536639924036 0.5000000000000000	-0.198326
N	0.7500000340000028 0.0992463360075963 0.5000000000000000	-0.198326
N	0.4007536639924036 0.7500000340000028 0.5000000000000000	-0.198325
N	0.0992463360075963 0.7500000340000028 0.5000000000000000	-0.198325
N	0.2500000000000000 0.9007536639924039 0.5000000000000000	-0.198332
N	0.2500000000000000 0.5992463360075961 0.5000000000000000	-0.198331
N	0.9007536639924039 0.7500000340000028 0.5000000000000000	-0.198332
N	0.5992463360075961 0.7500000340000028 0.5000000000000000	-0.198331
N	0.7500000340000028 0.9007536639924039 0.5000000000000000	-0.198331
N	0.7500000340000028 0.5992463360075961 0.5000000000000000	-0.198330
	  	
