#======================================================================

# CRYSTAL DATA

#----------------------------------------------------------------------

data_VESTA_phase_1


_pd_phase_name                         GeFSIX_1_Fe
_cell_length_a                         11.47689
_cell_length_b                         11.47689
_cell_length_c                         7.84181
_cell_angle_alpha                      90
_cell_angle_beta                       90
_cell_angle_gamma                      90
_symmetry_space_group_name_H-M         P 1
_symmetry_Int_Tables_number            1

loop_
_symmetry_equiv_pos_as_xyz
   x, y, z

loop_
   _atom_site_label
   _atom_site_fract_x
   _atom_site_fract_y
   _atom_site_fract_z
   _atom_site_charge
C	0.2485314416212390 0.4572177298121565 0.3662594669358822	0.105983
C	0.1274058636715459 0.4565766688315823 0.3609945257474189	-0.174708
C	0.7514686453787648 0.5427823131878431 0.3662594669358822	0.105983
C	0.8725941803284579 0.5434233311684175 0.3609945257474189	-0.174708
C	0.5427823131878431 0.2485314416212390 0.3662594669358822	0.105983
C	0.5434233311684175 0.1274058636715459 0.3609945257474189	-0.174708
C	0.4572177298121565 0.7514686453787648 0.3662594669358822	0.105983
C	0.4565766688315823 0.8725941803284579 0.3609945257474189	-0.174708
C	0.7514686453787648 0.4572177298121565 0.6337405030641160	0.105983
C	0.8725941803284579 0.4565766688315823 0.6390054452525757	-0.174705
C	0.2485314416212390 0.5427823131878431 0.6337405030641160	0.105983
C	0.1274058636715459 0.5434233311684175 0.6390054452525757	-0.174704
C	0.4572177298121565 0.2485314416212390 0.6337405030641160	0.105983
C	0.4565766688315823 0.1274058636715459 0.6390054452525757	-0.174705
C	0.5427823131878431 0.7514686453787648 0.6337405030641160	0.105984
C	0.5434233311684175 0.8725941803284579 0.6390054452525757	-0.174706
C	0.0643084724304734 0.5000000000000000 0.5000000000000000	0.099082
C	0.9356916035695256 0.5000000000000000 0.5000000000000000	0.099087
C	0.5000000000000000 0.0643084724304734 0.5000000000000000	0.099082
C	0.5000000000000000 0.9356916035695256 0.5000000000000000	0.099087
H	0.2997923071760099 0.4235525152007141 0.2600210603748909	0.096240
H	0.0825668306357302 0.4203173280831087 0.2505728812922379	0.120079
H	0.7002076498239906 0.5764474847992859 0.2600210603748909	0.096240
H	0.9174331853642711 0.5796826719168912 0.2505728812922379	0.120079
H	0.5764474847992859 0.2997923071760099 0.2600210603748909	0.096240
H	0.5796826719168912 0.0825668306357302 0.2505728812922379	0.120081
H	0.4235525152007141 0.7002076498239906 0.2600210603748909	0.096240
H	0.4203173280831087 0.9174331853642711 0.2505728812922379	0.120081
H	0.7002076498239906 0.4235525152007141 0.7399789106251105	0.096240
H	0.9174331853642711 0.4203173280831087 0.7494271777077633	0.120078
H	0.2997923071760099 0.5764474847992859 0.7399789106251105	0.096240
H	0.0825668306357302 0.5796826719168912 0.7494271777077633	0.120077
H	0.4235525152007141 0.2997923071760099 0.7399789106251105	0.096240
H	0.4203173280831087 0.0825668306357302 0.7494271777077633	0.120079
H	0.5764474847992859 0.7002076498239906 0.7399789106251105	0.096240
H	0.5796826719168912 0.9174331853642711 0.7494271777077633	0.120079
Fe	0.5000000000000000 0.5000000000000000 0.5000000000000000	0.784352
Ge	0.5000000000000000 0.5000000000000000 -0.0000000000000000	1.773515
F	0.5000000000000000 0.5000000000000000 0.7590021760592168	-0.491062
F	0.5000000000000000 0.5000000000000000 0.2409978239407830	-0.491062
F	0.3883694309552922 0.3883694309552922 -0.0000000000000000	-0.540465
F	0.6116305690447076 0.6116305690447076 -0.0000000000000000	-0.540465
F	0.6116305690447076 0.3883694309552922 -0.0000000000000000	-0.540465
F	0.3883694309552922 0.6116305690447076 -0.0000000000000000	-0.540465
N	0.3084842886340761 0.5000000000000000 0.5000000000000000	-0.247746
N	0.6915157333659260 0.5000000000000000 0.5000000000000000	-0.247746
N	0.5000000000000000 0.3084842886340761 0.5000000000000000	-0.247746
N	0.5000000000000000 0.6915157333659260 0.5000000000000000	-0.247746
	  	
