#======================================================================

# CRYSTAL DATA

#----------------------------------------------------------------------

data_VESTA_phase_1


_pd_phase_name                         GeFSIX_7_Ni
_cell_length_a                         19.11120
_cell_length_b                         19.11120
_cell_length_c                         7.99112
_cell_angle_alpha                      90
_cell_angle_beta                       90
_cell_angle_gamma                      90
_symmetry_space_group_name_H-M         P 1
_symmetry_Int_Tables_number            1

loop_
_symmetry_equiv_pos_as_xyz
   x, y, z

loop_
   _atom_site_label
   _atom_site_fract_x
   _atom_site_fract_y
   _atom_site_fract_z
   _atom_site_charge
C	0.6660974677569722 0.8711256171554268 0.6978805326623490	0.102515
C	0.6149260465800828 0.9227669251797074 0.7024515281535777	-0.175256
C	0.5797940528893947 0.8874374353846610 0.4275089313681251	-0.170397
C	0.6314488117283611 0.8364862409237702 0.4328950249062364	0.098494
C	0.8339025322430278 0.6288743828445732 0.6978805326623490	0.102515
C	0.8850740034199143 0.5772331258202933 0.7024515281535777	-0.175257
C	0.9202058461106076 0.6125626156153325 0.4275089313681251	-0.170397
C	0.8685511882716389 0.6635137590762298 0.4328950249062364	0.098493
C	0.6288743828445732 0.6660974677569722 0.6978805326623490	0.102515
C	0.5772331258202933 0.6149260465800828 0.7024515281535777	-0.175256
C	0.6125626156153325 0.5797940528893947 0.4275089313681251	-0.170396
C	0.6635137590762298 0.6314488117283611 0.4328950249062364	0.098494
C	0.8711256171554268 0.8339025322430278 0.6978805326623490	0.102515
C	0.9227669251797074 0.8850740034199143 0.7024515281535777	-0.175256
C	0.8874374353846610 0.9202058461106076 0.4275089313681251	-0.170396
C	0.8364862409237702 0.8685511882716389 0.4328950249062364	0.098494
C	0.3339025072430293 0.3711255671554227 0.3021194973376537	0.102526
C	0.3850739534199173 0.4227669251797074 0.2975485018464248	-0.175233
C	0.4202059471106053 0.3874373843846670 0.5724910686318749	-0.170393
C	0.3685511372716452 0.3364862409237703 0.5671050050937662	0.098498
C	0.1660974927569706 0.1288744198445798 0.3021194973376537	0.102526
C	0.1149260465800826 0.0772330748202926 0.2975485018464248	-0.175233
C	0.0797940338893896 0.1125626156153329 0.5724910686318749	-0.170394
C	0.1314488627283547 0.1635137470762286 0.5671050050937662	0.098496
C	0.3711255671554227 0.1660974927569706 0.3021194973376537	0.102526
C	0.4227669251797074 0.1149260465800826 0.2975485018464248	-0.175233
C	0.3874373843846670 0.0797940338893896 0.5724910686318749	-0.170393
C	0.3364862409237703 0.1314488627283547 0.5671050050937662	0.098496
C	0.1288744198445798 0.3339025072430293 0.3021194973376537	0.102526
C	0.0772330748202926 0.3850739534199173 0.2975485018464248	-0.175233
C	0.1125626156153329 0.4202059471106053 0.5724910686318749	-0.170393
C	0.1635137470762286 0.3685511372716452 0.5671050050937662	0.098498
C	0.4327122144943268 0.0703672118867821 0.4355655008219930	0.139940
C	0.4871800558014780 0.0168623131786294 0.4319976674971604	-0.122164
C	0.0672877855056733 0.4296327811132209 0.4355655008219930	0.139940
C	0.0128199121985193 0.4831376228213725 0.4319976674971604	-0.122164
C	0.4296327811132209 0.4327122144943268 0.4355655008219930	0.139940
C	0.4831376228213725 0.4871800558014780 0.4319976674971604	-0.122164
C	0.0703672118867821 0.0672877855056733 0.4355655008219930	0.139941
C	0.0168623131786294 0.0128199121985193 0.4319976674971604	-0.122164
C	0.5672877855056735 0.5703672188867792 0.5644344991780071	0.139930
C	0.5128199951985156 0.5168623271786236 0.5680023615028383	-0.122141
C	0.9327121644943295 0.9296327311132166 0.5644344991780071	0.139930
C	0.9871800558014779 0.9831377238213771 0.5680023615028383	-0.122140
C	0.5703672188867792 0.9327121644943295 0.5644344991780071	0.139930
C	0.5168623271786236 0.9871800558014779 0.5680023615028383	-0.122140
C	0.9296327311132166 0.5672877855056735 0.5644344991780071	0.139930
C	0.9831377238213771 0.5128199951985156 0.5680023615028383	-0.122140
H	0.7005631356968623 0.8621434628879380 0.8040660151423674	0.100062
H	0.6103319822517105 0.9553971896955935 0.8138202202080542	0.116831
H	0.5463444354648154 0.8903606931641768 0.3174139427590888	0.117169
H	0.6400385209098466 0.8014374773728664 0.3277295591135000	0.100683
H	0.7994368643031377 0.6378565371120620 0.8040660151423674	0.100062
H	0.8896680177482895 0.5446028613044072 0.8138202202080542	0.116832
H	0.9536556155351853 0.6096393578358239 0.3174139427590888	0.117169
H	0.8599614790901534 0.6985625226271336 0.3277295591135000	0.100683
H	0.6378565371120620 0.7005631356968623 0.8040660151423674	0.100062
H	0.5446028613044072 0.6103319822517105 0.8138202202080542	0.116831
H	0.6096393578358239 0.5463444354648154 0.3174139427590888	0.117169
H	0.6985625226271336 0.6400385209098466 0.3277295591135000	0.100683
H	0.8621434628879380 0.7994368643031377 0.8040660151423674	0.100062
H	0.9553971896955935 0.8896680177482895 0.8138202202080542	0.116831
H	0.8903606931641768 0.9536556155351853 0.3174139427590888	0.117169
H	0.8014374773728664 0.8599614790901534 0.3277295591135000	0.100683
H	0.2994368903031397 0.3621433868879387 0.1959339698576351	0.100059
H	0.3896679417482832 0.4553971386955929 0.1861797357919422	0.116796
H	0.4536556155351852 0.3903606931641769 0.6825860272409161	0.117168
H	0.3599615040901586 0.3014375033728686 0.6722704408865001	0.100677
H	0.2005631226968576 0.1378566391120634 0.1959339698576351	0.100058
H	0.1103320332517111 0.0446028773044084 0.1861797357919422	0.116796
H	0.0463443784648143 0.1096393328358251 0.6825860272409161	0.117168
H	0.1400385209098469 0.1985624846271305 0.6722704408865001	0.100676
H	0.3621433868879387 0.2005631226968576 0.1959339698576351	0.100058
H	0.4553971386955929 0.1103320332517111 0.1861797357919422	0.116796
H	0.3903606931641769 0.0463443784648143 0.6825860272409161	0.117168
H	0.3014375033728686 0.1400385209098469 0.6722704408865001	0.100676
H	0.1378566391120634 0.2994368903031397 0.1959339698576351	0.100059
H	0.0446028773044084 0.3896679417482832 0.1861797357919422	0.116796
H	0.1096393328358251 0.4536556155351852 0.6825860272409161	0.117168
H	0.1985624846271305 0.3599615040901586 0.6722704408865001	0.100677
H	0.5059604967248601 0.0021246526191818 0.3075950508422554	0.102839
H	0.9940395542751406 0.4978753193808160 0.3075950508422554	0.102839
H	0.4978753193808160 0.5059604967248601 0.3075950508422554	0.102839
H	0.0021246526191818 0.9940395542751406 0.3075950508422554	0.102839
H	0.4940395032751397 0.5021246306191870 0.6924049791577402	0.102837
H	0.0059604877248630 0.9978753193808160 0.6924049791577402	0.102837
H	0.5021246306191870 0.0059604877248630 0.6924049791577402	0.102837
H	0.9978753193808160 0.4940395032751397 0.6924049791577402	0.102837
Ni	0.2500000000000000 0.2500000000000000 0.4342471146908194	0.757797
Ni	0.7500000000000000 0.7500000000000000 0.5657528853091806	0.757795
Ge	0.2500000000000000 0.2500000000000000 0.9349422319727841	1.769267
Ge	0.7500000000000000 0.7500000000000000 0.0650577530272182	1.769269
F	0.2500000000000000 0.2500000000000000 0.1728850079644237	-0.521824
F	0.2500000000000000 0.2500000000000000 0.6966596802788171	-0.521180
F	0.7500000000000000 0.7500000000000000 0.8271150220355790	-0.521825
F	0.7500000000000000 0.7500000000000000 0.3033403197211832	-0.521177
F	0.3176885634131027 0.3163198816097939 0.9349578870595000	-0.540927
F	0.1823114615868958 0.1836801433902046 0.9349578870595000	-0.540925
F	0.1836801433902046 0.3176885634131027 0.9349578870595000	-0.540926
F	0.3163198816097939 0.1823114615868958 0.9349578870595000	-0.540925
F	0.6823114615868958 0.8163198816097941 0.0650421129405001	-0.540928
F	0.8176885384131042 0.6836801183902059 0.0650421129405001	-0.540928
F	0.8163198816097941 0.8176885384131042 0.0650421129405001	-0.540928
F	0.6836801183902059 0.6823114615868958 0.0650421129405001	-0.540928
N	0.3283685324275550 0.1743113792564260 0.4345249720864953	-0.240809
N	0.1716314925724436 0.3256886457435725 0.4345249720864953	-0.240811
N	0.3256886457435725 0.3283685324275550 0.4345249720864953	-0.240811
N	0.1743113792564260 0.1716314925724436 0.4345249720864953	-0.240809
N	0.6716314675724454 0.6743113542564273 0.5654750279135047	-0.240807
N	0.8283685324275546 0.8256886457435727 0.5654750279135047	-0.240807
N	0.6743113542564273 0.8283685324275546 0.5654750279135047	-0.240807
N	0.8256886457435727 0.6716314675724454 0.5654750279135047	-0.240807
	  	
