#======================================================================

# CRYSTAL DATA

#----------------------------------------------------------------------

data_VESTA_phase_1


_pd_phase_name                         GeFSIX_4_Cd_i
_cell_length_a                         24.40273
_cell_length_b                         21.23015
_cell_length_c                         9.27486
_cell_angle_alpha                      90
_cell_angle_beta                       90
_cell_angle_gamma                      90
_symmetry_space_group_name_H-M         P 1
_symmetry_Int_Tables_number            1

loop_
_symmetry_equiv_pos_as_xyz
   x, y, z

loop_
   _atom_site_label
   _atom_site_fract_x
   _atom_site_fract_y
   _atom_site_fract_z
   _atom_site_charge
C	0.4103311438768260 0.5940522974007875 0.6264163022999454	0.104671
C	0.3681638130917022 0.5501367033415320 0.6242931950346166	-0.172018
C	0.2754232242026585 0.4498769336718126 0.6238619303950380	-0.117447
C	0.2314877128072648 0.4083447935699646 0.6226082553612022	-0.113837
C	0.1345580668927634 0.3238118243364276 0.6209401492758506	-0.165989
C	0.0893549960663570 0.2841287682061035 0.6245997628267401	0.097311
C	0.9103312268768228 0.0940523084007917 0.6264163022999454	0.104672
C	0.8681637710917058 0.0501366453415343 0.6242931950346166	-0.172017
C	0.7754232452026633 0.9498769806718129 0.6238619303950380	-0.117447
C	0.7314876928072633 0.9083448395699611 0.6226082553612022	-0.113837
C	0.6345580668927631 0.8238118713364276 0.6209401492758506	-0.165989
C	0.5893549810663518 0.7841288612061008 0.6245997628267401	0.097311
C	0.5896688561231734 0.4059476565992089 0.1264163102999461	0.104672
C	0.6318362289082942 0.4498633426584714 0.1242932100346142	-0.172019
C	0.7245767547973367 0.5501230193281871 0.1238619383950388	-0.117449
C	0.7685123071927367 0.5916552064300356 0.1226082633612036	-0.113803
C	0.8654419331072369 0.6761881756635727 0.1209401562758547	-0.165942
C	0.9106450189336482 0.7158711857938995 0.1245997778267374	0.097296
C	0.0896688671231784 0.9059477495992129 0.1264163102999461	0.104671
C	0.1318361869082979 0.9498632506584713 0.1242932100346142	-0.172019
C	0.2245767967973398 0.0501230663281872 0.1238619383950388	-0.117446
C	0.2685122661927369 0.0916551834300373 0.1226082633612036	-0.113837
C	0.3654419751072400 0.1761881866635698 0.1209401562758547	-0.165988
C	0.4106450189336477 0.2158712557938985 0.1245997778267374	0.097310
C	0.5896688561231734 0.5940522974007875 0.8735836667000556	0.104671
C	0.6318362289082942 0.5501367033415320 0.8757067739653844	-0.172018
C	0.7245767547973367 0.4498769336718126 0.8761381006049610	-0.117450
C	0.7685123071927367 0.4083447935699646 0.8773917756387968	-0.113803
C	0.8654419331072369 0.3238118243364276 0.8790598817241484	-0.165943
C	0.9106450189336482 0.2841287682061035 0.8754002681732590	0.097297
C	0.0896688671231784 0.0940523084007917 0.8735836667000556	0.104672
C	0.1318361869082979 0.0501366453415343 0.8757067739653844	-0.172017
C	0.2245767967973398 0.9498769806718129 0.8761381006049610	-0.117447
C	0.2685122661927369 0.9083448395699611 0.8773917756387968	-0.113837
C	0.3654419751072400 0.8238118713364276 0.8790598817241484	-0.165989
C	0.4106450189336477 0.7841288612061008 0.8754002681732590	0.097310
C	0.4103311438768260 0.4059476565992089 0.3735836977000547	0.104672
C	0.3681638130917022 0.4498633426584714 0.3757067739653846	-0.172019
C	0.2754232242026585 0.5501230193281871 0.3761380696049618	-0.117446
C	0.2314877128072648 0.5916552064300356 0.3773917136387981	-0.113837
C	0.1345580668927634 0.6761881756635727 0.3790598197241433	-0.165988
C	0.0893549960663570 0.7158711857938995 0.3754002061732614	0.097310
C	0.9103312268768228 0.9059477495992129 0.3735836977000547	0.104671
C	0.8681637710917058 0.9498632506584713 0.3757067739653846	-0.172018
C	0.7754232452026633 0.0501230663281872 0.3761380696049619	-0.117446
C	0.7314876928072633 0.0916551834300373 0.3773917136387981	-0.113837
C	0.6345580668927631 0.1761881866635698 0.3790598197241433	-0.165988
C	0.5893549810663518 0.2158712557938985 0.3754002061732614	0.097310
C	0.5896688561231734 0.4059476565992089 0.3735836977000547	0.104673
C	0.6318362289082942 0.4498633426584714 0.3757067739653846	-0.172019
C	0.7245767547973367 0.5501230193281871 0.3761380696049618	-0.117449
C	0.7685123071927367 0.5916552064300356 0.3773917136387981	-0.113803
C	0.8654419331072369 0.6761881756635727 0.3790598197241433	-0.165942
C	0.9106450189336482 0.7158711857938995 0.3754002061732614	0.097297
C	0.0896688671231784 0.9059477495992129 0.3735836977000547	0.104672
C	0.1318361869082979 0.9498632506584713 0.3757067739653846	-0.172019
C	0.2245767967973398 0.0501230663281872 0.3761380696049619	-0.117446
C	0.2685122661927369 0.0916551834300373 0.3773917136387981	-0.113837
C	0.3654419751072400 0.1761881866635698 0.3790598197241433	-0.165988
C	0.4106450189336477 0.2158712557938985 0.3754002061732614	0.097311
C	0.4103311438768260 0.5940522974007875 0.8735836667000556	0.104672
C	0.3681638130917021 0.5501367033415320 0.8757067739653844	-0.172018
C	0.2754232242026585 0.4498769336718126 0.8761381006049610	-0.117447
C	0.2314877128072648 0.4083447935699646 0.8773917756387968	-0.113837
C	0.1345580668927634 0.3238118243364276 0.8790598817241484	-0.165989
C	0.0893549960663570 0.2841287682061035 0.8754002681732589	0.097312
C	0.9103312268768228 0.0940523084007917 0.8735836667000556	0.104673
C	0.8681637710917058 0.0501366453415343 0.8757067739653844	-0.172017
C	0.7754232452026633 0.9498769806718129 0.8761381006049610	-0.117447
C	0.7314876928072633 0.9083448395699611 0.8773917756387968	-0.113837
C	0.6345580668927631 0.8238118713364276 0.8790598817241484	-0.165989
C	0.5893549810663518 0.7841288612061008 0.8754002681732590	0.097312
C	0.4103311438768260 0.4059476565992089 0.1264163102999460	0.104673
C	0.3681638130917022 0.4498633426584714 0.1242932100346142	-0.172019
C	0.2754232242026585 0.5501230193281871 0.1238619383950388	-0.117447
C	0.2314877128072648 0.5916552064300356 0.1226082633612036	-0.113837
C	0.1345580668927634 0.6761881756635727 0.1209401562758547	-0.165989
C	0.0893549960663570 0.7158711857938995 0.1245997778267374	0.097311
C	0.9103312268768228 0.9059477495992129 0.1264163102999461	0.104673
C	0.8681637710917058 0.9498632506584713 0.1242932100346142	-0.172018
C	0.7754232452026633 0.0501230663281872 0.1238619383950388	-0.117446
C	0.7314876928072633 0.0916551834300373 0.1226082633612036	-0.113837
C	0.6345580668927631 0.1761881866635698 0.1209401562758547	-0.165989
C	0.5893549810663518 0.2158712557938985 0.1245997778267374	0.097311
C	0.5896688561231734 0.5940522974007875 0.6264163022999454	0.104673
C	0.6318362289082942 0.5501367033415320 0.6242931950346166	-0.172018
C	0.7245767547973367 0.4498769336718126 0.6238619303950380	-0.117450
C	0.7685123071927367 0.4083447935699646 0.6226082553612022	-0.113803
C	0.8654419331072369 0.3238118243364276 0.6209401492758506	-0.165943
C	0.9106450189336482 0.2841287682061035 0.6245997628267400	0.097298
C	0.0896688671231784 0.0940523084007917 0.6264163022999454	0.104673
C	0.1318361869082979 0.0501366453415343 0.6242931950346166	-0.172017
C	0.2245767967973398 0.9498769806718129 0.6238619303950380	-0.117447
C	0.2685122661927369 0.9083448395699611 0.6226082553612022	-0.113837
C	0.3654419751072400 0.8238118713364276 0.6209401492758506	-0.165989
C	0.4106450189336477 0.7841288612061008 0.6245997628267400	0.097312
C	0.3446114409848781 0.5239821389535196 0.7500000149999977	0.114663
C	0.2993015986937922 0.4752174170055677 0.7500000149999977	0.066212
C	0.2068989639721173 0.3870165485336153 0.7500000149999977	0.067090
C	0.1587535109030424 0.3447806859566316 0.7500000149999977	0.102555
C	0.8446113989848817 0.0239821219535223 0.7500000149999977	0.114663
C	0.7993016606937903 0.9752173700055672 0.7500000149999977	0.066212
C	0.7068989639721172 0.8870165715336138 0.7500000149999977	0.067090
C	0.6587535109030421 0.8447806169566294 0.7500000149999977	0.102555
C	0.6553885590151219 0.4760179070464766 0.2500000000000000	0.114663
C	0.7006983393062097 0.5247825829944325 0.2500000000000000	0.066213
C	0.7931010360278828 0.6129834754663865 0.2500000000000000	0.066937
C	0.8412465300969648 0.6552192910433701 0.2500000000000000	0.102599
C	0.1553885700151191 0.9760179540464774 0.2500000000000000	0.114664
C	0.2006984223062061 0.0247825859944290 0.2500000000000000	0.066212
C	0.2931010360278826 0.1129834284663863 0.2500000000000000	0.067090
C	0.3412464890969575 0.1552193250433726 0.2500000000000000	0.102555
C	0.6553885590151219 0.5239821389535196 0.7500000149999977	0.114663
C	0.7006983393062097 0.4752174170055677 0.7500000149999977	0.066213
C	0.7931010360278828 0.3870165485336153 0.7500000149999977	0.066936
C	0.8412465300969648 0.3447806859566316 0.7500000149999977	0.102599
C	0.1553885700151191 0.0239821219535223 0.7500000149999977	0.114663
C	0.2006984223062061 0.9752173700055671 0.7500000149999977	0.066212
C	0.2931010360278826 0.8870165715336138 0.7500000149999977	0.067090
C	0.3412464890969575 0.8447806169566294 0.7500000149999977	0.102555
C	0.3446114409848781 0.4760179070464766 0.2500000000000000	0.114663
C	0.2993015986937922 0.5247825829944325 0.2500000000000000	0.066212
C	0.2068989639721173 0.6129834754663865 0.2500000000000000	0.067090
C	0.1587535109030424 0.6552192910433701 0.2500000000000000	0.102555
C	0.8446113989848817 0.9760179540464774 0.2500000000000000	0.114663
C	0.7993016606937903 0.0247825859944290 0.2500000000000000	0.066212
C	0.7068989639721172 0.1129834284663863 0.2500000000000000	0.067090
C	0.6587535109030421 0.1552193250433726 0.2500000000000000	0.102555
H	0.4275227598449982 0.6121286589370160 0.5256307837855312	0.108931
H	0.3557092642684485 0.5380397811737042 0.5168627257990790	0.106064
H	0.2904040579583899 0.4612873132630185 0.5182714290098793	0.087289
H	0.2166639920145397 0.3928871355376048 0.5177003163757549	0.103503
H	0.1504709191708502 0.3375919018711559 0.5160157201535782	0.118207
H	0.0702609496903311 0.2668011140796920 0.5253688310655930	0.107463
H	0.9275227178449947 0.1121286939370152 0.5256307837855312	0.108928
H	0.8557092232684482 0.0380397171736989 0.5168627257990790	0.106064
H	0.7904040369583919 0.9612873132630188 0.5182714290098793	0.087289
H	0.7166639500145361 0.8928870665376097 0.5177003163757549	0.103503
H	0.6504709091708500 0.8375919018711556 0.5160157201535782	0.118207
H	0.5702609806903299 0.7668010910796935 0.5253688310655930	0.107461
H	0.5724772401550018 0.3878713410629841 0.0256308457855289	0.108931
H	0.6442907357315519 0.4619602658262960 0.0168627257990795	0.106064
H	0.7095959630416081 0.5387126407369774 0.0182714910098769	0.087289
H	0.7833360499854639 0.6071128414623898 0.0177002553757535	0.103500
H	0.8495290908291500 0.6624080521288406 0.0160157201535788	0.118197
H	0.9297389783096702 0.7331989089203065 0.0253688000655938	0.107462
H	0.0724772461550022 0.8878713410629840 0.0256308457855289	0.108931
H	0.1442907767315513 0.9619602658262961 0.0168627257990795	0.106064
H	0.2095959630416083 0.0387126837369776 0.0182714910098769	0.087289
H	0.2833360079854602 0.1071128754623925 0.0177002553757535	0.103503
H	0.3495290908291507 0.1624080751288388 0.0160157201535788	0.118207
H	0.4297390193096700 0.2331988859203077 0.0253688000655938	0.107461
H	0.5724772401550018 0.6121286589370160 -0.0256308027855290	0.108930
H	0.6442907357315519 0.5380397811737042 -0.0168627527990851	0.106064
H	0.7095959630416081 0.4612873132630185 -0.0182714470098734	0.087289
H	0.7833360499854639 0.3928871355376048 -0.0177003093757506	0.103500
H	0.8495290908291500 0.3375919018711559 -0.0160157201535786	0.118197
H	0.9297389783096702 0.2668011140796920 -0.0253688380655969	0.107464
H	0.0724772461550022 0.1121286939370152 -0.0256308027855290	0.108928
H	0.1442907767315513 0.0380397171736989 -0.0168627527990851	0.106064
H	0.2095959630416083 0.9612873132630188 -0.0182714470098734	0.087289
H	0.2833360079854602 0.8928870665376097 -0.0177003093757506	0.103503
H	0.3495290908291507 0.8375919018711556 -0.0160157201535785	0.118207
H	0.4297390193096700 0.7668010910796935 -0.0253688380655969	0.107461
H	0.4275227598449982 0.3878713410629841 0.4743691852144700	0.108930
H	0.3557092642684485 0.4619602658262960 0.4831373052009196	0.106064
H	0.2904040579583899 0.5387126407369774 0.4817285399901221	0.087289
H	0.2166639920145397 0.6071128414623898 0.4822996526242461	0.103503
H	0.1504709191708502 0.6624080521288406 0.4839842488464222	0.118207
H	0.0702609496903311 0.7331989089203065 0.4746311689344072	0.107461
H	0.9275227178449947 0.8878713410629840 0.4743691852144700	0.108931
H	0.8557092232684482 0.9619602658262961 0.4831373052009196	0.106064
H	0.7904040369583919 0.0387126837369776 0.4817285399901221	0.087288
H	0.7166639500145361 0.1071128754623925 0.4822996526242461	0.103503
H	0.6504709091708500 0.1624080751288388 0.4839842488464222	0.118207
H	0.5702609806903299 0.2331988859203077 0.4746311689344072	0.107461
H	0.5724772401550018 0.3878713410629841 0.4743691852144700	0.108931
H	0.6442907357315519 0.4619602658262960 0.4831373052009196	0.106064
H	0.7095959630416081 0.5387126407369774 0.4817285399901221	0.087289
H	0.7833360499854639 0.6071128414623898 0.4822996526242461	0.103500
H	0.8495290908291500 0.6624080521288406 0.4839842488464222	0.118197
H	0.9297389783096702 0.7331989089203065 0.4746311689344072	0.107462
H	0.0724772461550022 0.8878713410629840 0.4743691852144700	0.108931
H	0.1442907767315513 0.9619602658262961 0.4831373052009196	0.106064
H	0.2095959630416083 0.0387126837369776 0.4817285399901221	0.087289
H	0.2833360079854602 0.1071128754623925 0.4822996526242461	0.103503
H	0.3495290908291507 0.1624080751288388 0.4839842488464222	0.118207
H	0.4297390193096700 0.2331988859203077 0.4746311689344072	0.107461
H	0.4275227598449982 0.6121286589370160 -0.0256308027855290	0.108931
H	0.3557092642684485 0.5380397811737042 -0.0168627527990851	0.106064
H	0.2904040579583899 0.4612873132630185 -0.0182714470098734	0.087289
H	0.2166639920145397 0.3928871355376048 -0.0177003093757506	0.103503
H	0.1504709191708502 0.3375919018711559 -0.0160157201535786	0.118207
H	0.0702609496903311 0.2668011140796920 -0.0253688380655969	0.107463
H	0.9275227178449947 0.1121286939370152 -0.0256308027855290	0.108928
H	0.8557092232684482 0.0380397171736989 -0.0168627527990851	0.106064
H	0.7904040369583919 0.9612873132630188 -0.0182714470098734	0.087289
H	0.7166639500145361 0.8928870665376097 -0.0177003093757506	0.103503
H	0.6504709091708500 0.8375919018711556 -0.0160157201535786	0.118208
H	0.5702609806903299 0.7668010910796935 -0.0253688380655969	0.107461
H	0.4275227598449982 0.3878713410629841 0.0256308457855289	0.108931
H	0.3557092642684485 0.4619602658262960 0.0168627257990795	0.106064
H	0.2904040579583899 0.5387126407369774 0.0182714910098769	0.087289
H	0.2166639920145397 0.6071128414623898 0.0177002553757535	0.103503
H	0.1504709191708502 0.6624080521288406 0.0160157201535788	0.118207
H	0.0702609496903311 0.7331989089203065 0.0253688000655938	0.107461
H	0.9275227178449947 0.8878713410629840 0.0256308457855289	0.108931
H	0.8557092232684482 0.9619602658262961 0.0168627257990795	0.106064
H	0.7904040369583919 0.0387126837369776 0.0182714910098769	0.087289
H	0.7166639500145361 0.1071128754623925 0.0177002553757535	0.103504
H	0.6504709091708500 0.1624080751288388 0.0160157201535788	0.118207
H	0.5702609806903299 0.2331988859203077 0.0253688000655938	0.107461
H	0.5724772401550018 0.6121286589370160 0.5256307837855312	0.108931
H	0.6442907357315519 0.5380397811737042 0.5168627257990790	0.106064
H	0.7095959630416081 0.4612873132630185 0.5182714290098793	0.087289
H	0.7833360499854639 0.3928871355376048 0.5177003163757548	0.103500
H	0.8495290908291500 0.3375919018711559 0.5160157201535782	0.118197
H	0.9297389783096702 0.2668011140796920 0.5253688310655930	0.107464
H	0.0724772461550022 0.1121286939370152 0.5256307837855312	0.108928
H	0.1442907767315513 0.0380397171736989 0.5168627257990790	0.106064
H	0.2095959630416083 0.9612873132630188 0.5182714290098793	0.087289
H	0.2833360079854602 0.8928870665376097 0.5177003163757549	0.103504
H	0.3495290908291507 0.8375919018711556 0.5160157201535782	0.118208
H	0.4297390193096700 0.7668010910796935 0.5253688310655930	0.107461
Cd	0.5000000000000000 0.6889843913025127 0.7500000149999977	0.823644
Cd	0.0000000000000000 0.1889844493025101 0.7500000149999977	0.823647
Cd	0.5000000000000000 0.3110155386974887 0.2500000000000000	0.823644
Cd	0.0000000000000000 0.8110156086974873 0.2500000000000000	0.823644
F	0.5000000000000000 0.6838274740846918 0.4605693669024150	-0.579135
F	0.0000000000000000 0.1838275090846908 0.4605693669024150	-0.579136
F	0.5000000000000000 0.3161725029153031 0.9605693669024153	-0.579135
F	0.0000000000000000 0.8161725259153082 0.9605693669024153	-0.579135
F	0.5000000000000000 0.6838274740846918 0.0394306190975839	-0.579135
F	0.0000000000000000 0.1838275090846908 0.0394306190975839	-0.579136
F	0.5000000000000000 0.3161725029153031 0.5394306030975822	-0.579135
F	0.0000000000000000 0.8161725259153082 0.5394306030975822	-0.579134
F	0.4472328971662771 0.7439955904280811 0.2500000000000000	-0.567002
F	0.5527321520624360 0.6229235928099216 0.2500000000000000	-0.559335
F	0.9472328971662765 0.2439955904280810 0.2500000000000000	-0.567002
F	0.0527321730624410 0.1229235928099216 0.2500000000000000	-0.559343
F	0.5527670618337237 0.2560043865719204 0.7500000149999977	-0.567002
F	0.4472678479375642 0.3770764071900782 0.7500000149999977	-0.559335
F	0.0527671138337276 0.7560044095719189 0.7500000149999977	-0.567002
F	0.9472678479375640 0.8770764071900784 0.7500000149999977	-0.559335
F	0.5527670618337237 0.7439955904280811 0.2500000000000000	-0.567002
F	0.4472678479375642 0.6229235928099216 0.2500000000000000	-0.559335
F	0.0527671138337276 0.2439955904280810 0.2500000000000000	-0.567002
F	0.9472678479375640 0.1229235928099216 0.2500000000000000	-0.559343
F	0.4472328971662771 0.2560043865719204 0.7500000149999977	-0.567002
F	0.5527321520624360 0.3770764071900782 0.7500000149999977	-0.559335
F	0.9472328971662765 0.7560044095719189 0.7500000149999977	-0.567002
F	0.0527321730624410 0.8770764071900784 0.7500000149999977	-0.559335
N	0.4318095462768208 0.6156929860246582 0.7500000149999977	-0.233853
N	0.5672664488091879 0.7646502005518149 0.7500000149999977	-0.245097
N	0.9318095052768137 0.1156929740246576 0.7500000149999977	-0.233856
N	0.0672664228091852 0.2646501775518095 0.7500000149999977	-0.245097
N	0.5681904537231794 0.3843070139753413 0.2500000000000000	-0.233854
N	0.4327335511908128 0.2353498224481907 0.2500000000000000	-0.245097
N	0.0681904537231791 0.8843070139753418 0.2500000000000000	-0.233853
N	0.9327335921908120 0.7353497994481851 0.2500000000000000	-0.245092
N	0.5681904537231794 0.6156929860246582 0.7500000149999977	-0.233853
N	0.4327335511908128 0.7646502005518149 0.7500000149999977	-0.245097
N	0.0681904537231791 0.1156929740246576 0.7500000149999977	-0.233855
N	0.9327335921908120 0.2646501775518095 0.7500000149999977	-0.245093
N	0.4318095462768208 0.3843070139753413 0.2500000000000000	-0.233853
N	0.5672664488091879 0.2353498224481907 0.2500000000000000	-0.245097
N	0.9318095052768136 0.8843070139753418 0.2500000000000000	-0.233853
N	0.0672664228091852 0.7353497994481851 0.2500000000000000	-0.245096
Ge	0.5000000000000000 0.6835305227564842 0.2500000000000000	1.787571
Ge	0.0000000000000000 0.1835305467564864 0.2500000000000000	1.787591
Ge	0.5000000000000000 0.3164694302435153 0.7500000149999977	1.787571
Ge	0.0000000000000000 0.8164694772435157 0.7500000149999977	1.787571
	  	
