#======================================================================

# CRYSTAL DATA

#----------------------------------------------------------------------

data_VESTA_phase_1


_pd_phase_name                         GeFSIX_6_Fe_i
_cell_length_a                         17.87051
_cell_length_b                         17.87051
_cell_length_c                         15.37606
_cell_angle_alpha                      90
_cell_angle_beta                       90
_cell_angle_gamma                      90
_symmetry_space_group_name_H-M         P 1
_symmetry_Int_Tables_number            1

loop_
_symmetry_equiv_pos_as_xyz
   x, y, z

loop_
   _atom_site_label
   _atom_site_fract_x
   _atom_site_fract_y
   _atom_site_fract_z
   _atom_site_charge
N	0.2438939386312137 0.1284675646501485 0.1281576290037469	-0.252633
N	0.2561060613687862 0.3715324493498527 0.1281576290037469	-0.252638
N	0.3715324493498527 0.2438939386312137 0.1281576290037469	-0.252633
N	0.1284675646501485 0.2561060613687862 0.1281576290037469	-0.252639
N	0.7561060343687878 0.6284675776501529 0.3718423559962554	-0.252633
N	0.7438939656312122 0.8715324223498471 0.3718423559962554	-0.252632
N	0.6284675776501529 0.7438939656312122 0.3718423559962554	-0.252632
N	0.8715324223498471 0.7561060343687878 0.3718423559962554	-0.252633
N	0.7561060343687878 0.8715324223498471 0.8718423559962557	-0.252633
N	0.7438939656312122 0.6284675776501529 0.8718423559962557	-0.252634
N	0.6284675776501529 0.7561060343687878 0.8718423559962557	-0.252633
N	0.8715324223498471 0.7438939656312122 0.8718423559962557	-0.252633
N	0.2438939386312137 0.3715324493498527 0.6281576440037443	-0.252633
N	0.2561060613687862 0.1284675646501485 0.6281576440037443	-0.252640
N	0.3715324493498527 0.2561060613687862 0.6281576440037443	-0.252640
N	0.1284675646501485 0.2438939386312137 0.6281576440037443	-0.252633
C	0.2003338279399959 0.0924146634164146 0.1860139221657398	0.106039
C	0.1922375547178002 0.0151271079036140 0.1856086091116078	-0.184085
C	0.2325056157588222 0.9722902044640316 0.1250961066101671	0.110208
C	0.2787215060180031 0.0105229102552659 0.0662220759181698	-0.179662
C	0.2820143243558669 0.0881391246030841 0.0689454179568259	0.107636
C	0.2267883720978212 0.8901111505652912 0.1238022974614421	0.060021
C	0.2907705429056940 0.8464015511668077 0.1209781000114958	-0.174269
C	0.2862078741650506 0.7674220949240047 0.1220628262494647	0.086335
C	0.1489937997689656 0.7784786305482531 0.1245855954353385	-0.124058
C	0.1552916117519099 0.8551569101462918 0.1266869856705879	-0.136176
C	0.2996661320600078 0.4075853495835829 0.1860139221657398	0.106041
C	0.3077624052821965 0.4848728730963881 0.1856086091116078	-0.184090
C	0.2674943842411778 0.5277097955359684 0.1250961066101671	0.110246
C	0.2212785069819943 0.4894770867447302 0.0662220759181698	-0.179698
C	0.2179856896441344 0.4118608823969201 0.0689454179568259	0.107661
C	0.2732116279021788 0.6098888494347088 0.1238022974614421	0.060013
C	0.2092294980943055 0.6535984488331923 0.1209781000114958	-0.174265
C	0.2137920988349509 0.7325779050759953 0.1220628262494647	0.086331
C	0.3510061862310332 0.7215213694517469 0.1245855954353385	-0.124061
C	0.3447083882480902 0.6448430898537082 0.1266869856705879	-0.136173
C	0.4075853495835829 0.2003338279399959 0.1860139221657398	0.106039
C	0.4848728730963881 0.1922375547178002 0.1856086091116078	-0.184085
C	0.5277097955359684 0.2325056157588222 0.1250961066101671	0.110208
C	0.4894770867447302 0.2787215060180031 0.0662220759181698	-0.179662
C	0.4118608823969201 0.2820143243558669 0.0689454179568259	0.107634
C	0.6098888494347088 0.2267883720978212 0.1238022974614421	0.060038
C	0.6535984488331923 0.2907705429056940 0.1209781000114958	-0.174212
C	0.7325779050759953 0.2862078741650506 0.1220628262494647	0.087134
C	0.7215213694517469 0.1489937997689656 0.1245855954353385	-0.123197
C	0.6448430898537082 0.1552916117519099 0.1266869856705879	-0.136121
C	0.0924146634164146 0.2996661320600078 0.1860139221657398	0.106041
C	0.0151271079036140 0.3077624052821965 0.1856086091116078	-0.184090
C	0.9722902044640316 0.2674943842411778 0.1250961066101671	0.110246
C	0.0105229102552659 0.2212785069819943 0.0662220759181698	-0.179699
C	0.0881391246030841 0.2179856896441344 0.0689454179568259	0.107663
C	0.8901111505652912 0.2732116279021788 0.1238022974614421	0.060057
C	0.8464015511668077 0.2092294980943055 0.1209781000114958	-0.173399
C	0.7674220949240047 0.2137920988349509 0.1220628262494647	0.083537
C	0.7784786305482531 0.3510061862310332 0.1245855954353385	-0.124010
C	0.8551569101462918 0.3447083882480902 0.1266869856705879	-0.136155
C	0.7996661850600016 0.5924146504164168 0.3139860938342615	0.106041
C	0.8077624582821974 0.5151270729036075 0.3143913598883932	-0.184080
C	0.7674943842411779 0.4722902044640317 0.3749038613898301	0.110206
C	0.7212784669819980 0.5105229672552670 0.4337779280818306	-0.179663
C	0.7179856496441310 0.5881391716030842 0.4310546220431704	0.107635
C	0.7732117079021782 0.3901112035652922 0.3761976945385573	0.060011
C	0.7092294840943042 0.3464014981668070 0.3790218919885035	-0.174253
C	0.7137921258349494 0.2674220149240056 0.3779371737505353	0.086363
C	0.8510062132310390 0.2784786035482544 0.3754143885646603	-0.123995
C	0.8447083352480893 0.3551568841462900 0.3733130463294146	-0.136192
C	0.7003338149399984 0.9075853495835832 0.3139860938342615	0.106038
C	0.6922375417178026 0.9848728730963880 0.3143913598883932	-0.184081
C	0.7325056157588221 0.0277098015359688 0.3749038613898301	0.110209
C	0.7787215330180020 0.9894770867447303 0.4337779280818306	-0.179662
C	0.7820143503558690 0.9118609353969211 0.4310546220431704	0.107634
C	0.7267882920978218 0.1098888234347065 0.3761976945385573	0.060020
C	0.7907705159056958 0.1535984888331885 0.3790218919885035	-0.174265
C	0.7862078741650506 0.2325779580759958 0.3779371737505353	0.086314
C	0.6489937867689610 0.2215213834517481 0.3754143885646603	-0.124066
C	0.6552916647519107 0.1448430898537080 0.3733130463294146	-0.136174
C	0.5924146504164168 0.7003338149399984 0.3139860938342615	0.106041
C	0.5151270729036075 0.6922375417178026 0.3143913598883932	-0.184081
C	0.4722902044640317 0.7325056157588221 0.3749038613898301	0.110207
C	0.5105229672552670 0.7787215330180020 0.4337779280818306	-0.179662
C	0.5881391716030842 0.7820143503558690 0.4310546220431704	0.107635
C	0.3901112035652922 0.7267882920978218 0.3761976945385573	0.060008
C	0.3464014981668070 0.7907705159056958 0.3790218919885035	-0.174251
C	0.2674220149240056 0.7862078741650506 0.3779371737505353	0.086349
C	0.2784786035482544 0.6489937867689610 0.3754143885646603	-0.124057
C	0.3551568841462900 0.6552916647519107 0.3733130463294146	-0.136173
C	0.9075853495835832 0.7996661850600016 0.3139860938342615	0.106039
C	0.9848728730963880 0.8077624582821974 0.3143913598883932	-0.184080
C	0.0277098015359688 0.7674943842411779 0.3749038613898301	0.110208
C	0.9894770867447303 0.7212784669819980 0.4337779280818306	-0.179663
C	0.9118609353969211 0.7179856496441310 0.4310546220431704	0.107635
C	0.1098888234347065 0.7732117079021782 0.3761976945385573	0.060023
C	0.1535984888331885 0.7092294840943042 0.3790218919885035	-0.174267
C	0.2325779580759958 0.7137921258349494 0.3779371737505353	0.086328
C	0.2215213834517481 0.8510062132310390 0.3754143885646603	-0.124004
C	0.1448430898537080 0.8447083352480893 0.3733130463294146	-0.136192
C	0.7996661850600016 0.9075853495835832 0.8139860618342590	0.106038
C	0.8077624582821974 0.9848728730963880 0.8143914228883948	-0.184080
C	0.7674943842411779 0.0277098015359688 0.8749039253898284	0.110209
C	0.7212784669819980 0.9894770867447303 0.9337778970818313	-0.179663
C	0.7179856496441310 0.9118609353969211 0.9310545900431675	0.107634
C	0.7732117079021782 0.1098888234347065 0.8761976945385572	0.060022
C	0.7092294840943042 0.1535984888331885 0.8790219239885063	-0.174267
C	0.7137921258349494 0.2325779580759958 0.8779372057505306	0.086332
C	0.8510062132310390 0.2215213834517481 0.8754144515646619	-0.124001
C	0.8447083352480893 0.1448430898537080 0.8733130783294104	-0.136193
C	0.7003338149399984 0.5924146504164168 0.8139860618342590	0.106040
C	0.6922375417178026 0.5151270729036075 0.8143914228883948	-0.184080
C	0.7325056157588221 0.4722902044640317 0.8749039253898284	0.110206
C	0.7787215330180020 0.5105229672552670 0.9337778970818313	-0.179662
C	0.7820143503558690 0.5881391716030842 0.9310545900431675	0.107636
C	0.7267882920978218 0.3901112035652922 0.8761976945385572	0.060008
C	0.7907705159056958 0.3464014981668070 0.8790219239885063	-0.174251
C	0.7862078741650506 0.2674220149240056 0.8779372057505306	0.086346
C	0.6489937867689610 0.2784786035482544 0.8754144515646619	-0.124060
C	0.6552916647519107 0.3551568841462900 0.8733130783294104	-0.136173
C	0.5924146504164168 0.7996661850600016 0.8139860618342590	0.106039
C	0.5151270729036075 0.8077624582821974 0.8143914228883948	-0.184079
C	0.4722902044640317 0.7674943842411779 0.8749039253898284	0.110207
C	0.5105229672552670 0.7212784669819980 0.9337778970818313	-0.179664
C	0.5881391716030842 0.7179856496441310 0.9310545900431675	0.107636
C	0.3901112035652922 0.7732117079021782 0.8761976945385572	0.060010
C	0.3464014981668070 0.7092294840943042 0.8790219239885063	-0.174254
C	0.2674220149240056 0.7137921258349494 0.8779372057505306	0.086363
C	0.2784786035482544 0.8510062132310390 0.8754144515646619	-0.123996
C	0.3551568841462900 0.8447083352480893 0.8733130783294104	-0.136191
C	0.9075853495835832 0.7003338149399984 0.8139860618342590	0.106039
C	0.9848728730963880 0.6922375417178026 0.8143914228883948	-0.184081
C	0.0277098015359688 0.7325056157588221 0.8749039253898284	0.110207
C	0.9894770867447303 0.7787215330180020 0.9337778970818313	-0.179662
C	0.9118609353969211 0.7820143503558690 0.9310545900431675	0.107635
C	0.1098888234347065 0.7267882920978218 0.8761976945385572	0.060020
C	0.1535984888331885 0.7907705159056958 0.8790219239885063	-0.174265
C	0.2325779580759958 0.7862078741650506 0.8779372057505306	0.086314
C	0.2215213834517481 0.6489937867689610 0.8754144515646619	-0.124065
C	0.1448430898537080 0.6552916647519107 0.8733130783294104	-0.136174
C	0.2003338279399959 0.4075853495835829 0.6860139381657410	0.106037
C	0.1922375547178002 0.4848728730963881 0.6856085771116052	-0.184084
C	0.2325056157588222 0.5277097955359684 0.6250960746101716	0.110209
C	0.2787215060180031 0.4894770867447302 0.5662221029181687	-0.179662
C	0.2820143243558669 0.4118608823969201 0.5689454099568325	0.107634
C	0.2267883720978212 0.6098888494347088 0.6238023054614428	0.060037
C	0.2907705429056940 0.6535984488331923 0.6209780760114937	-0.174214
C	0.2862078741650506 0.7325779050759953 0.6220627942494694	0.087133
C	0.1489937997689656 0.7215213694517469 0.6245855484353381	-0.123199
C	0.1552916117519099 0.6448430898537082 0.6266869216705896	-0.136120
C	0.2996661320600078 0.0924146634164146 0.6860139381657410	0.106042
C	0.3077624052821965 0.0151271079036140 0.6856085771116052	-0.184089
C	0.2674943842411778 0.9722902044640316 0.6250960746101716	0.110245
C	0.2212785069819943 0.0105229102552659 0.5662221029181687	-0.179699
C	0.2179856896441344 0.0881391246030841 0.5689454099568325	0.107663
C	0.2732116279021788 0.8901111505652912 0.6238023054614428	0.060057
C	0.2092294980943055 0.8464015511668077 0.6209780760114937	-0.173399
C	0.2137920988349509 0.7674220949240047 0.6220627942494694	0.083537
C	0.3510061862310332 0.7784786305482531 0.6245855484353381	-0.124010
C	0.3447083882480902 0.8551569101462918 0.6266869216705896	-0.136156
C	0.4075853495835829 0.2996661320600078 0.6860139381657410	0.106040
C	0.4848728730963881 0.3077624052821965 0.6856085771116052	-0.184089
C	0.5277097955359684 0.2674943842411778 0.6250960746101716	0.110244
C	0.4894770867447302 0.2212785069819943 0.5662221029181687	-0.179699
C	0.4118608823969201 0.2179856896441344 0.5689454099568325	0.107663
C	0.6098888494347088 0.2732116279021788 0.6238023054614428	0.060013
C	0.6535984488331923 0.2092294980943055 0.6209780760114937	-0.174266
C	0.7325779050759953 0.2137920988349509 0.6220627942494694	0.086334
C	0.7215213694517469 0.3510061862310332 0.6245855484353381	-0.124059
C	0.6448430898537082 0.3447083882480902 0.6266869216705896	-0.136173
C	0.0924146634164146 0.2003338279399959 0.6860139381657410	0.106039
C	0.0151271079036140 0.1922375547178002 0.6856085771116052	-0.184085
C	0.9722902044640316 0.2325056157588222 0.6250960746101716	0.110209
C	0.0105229102552659 0.2787215060180031 0.5662221029181687	-0.179663
C	0.0881391246030841 0.2820143243558669 0.5689454099568325	0.107635
C	0.8901111505652912 0.2267883720978212 0.6238023054614428	0.060020
C	0.8464015511668077 0.2907705429056940 0.6209780760114937	-0.174268
C	0.7674220949240047 0.2862078741650506 0.6220627942494694	0.086330
C	0.7784786305482531 0.1489937997689656 0.6245855484353381	-0.124061
C	0.8551569101462918 0.1552916117519099 0.6266869216705896	-0.136176
H	0.1720825477141437 0.1269311203276477 0.2345376406274797	0.098212
H	0.1560994373178218 0.9884184952689166 0.2335881390237699	0.113305
H	0.3106918520675902 0.9800467662368400 0.0172767112240389	0.113226
H	0.3151808877102064 0.1195572097831608 0.0218181282519916	0.097454
H	0.3458097051997462 0.8730200601821425 0.1203436541046185	0.108969
H	0.0939884539402508 0.7519057933705052 0.1253597560467138	0.107631
H	0.1052939061293026 0.8901830309189185 0.1287760885343531	0.099873
H	0.3279174252858577 0.3730689066723581 0.2345376406274797	0.098211
H	0.3439006026821746 0.5115815047310834 0.2335881390237699	0.113305
H	0.1893081609324072 0.5199532337631600 0.0172767112240389	0.113220
H	0.1848191122897934 0.3804427902168392 0.0218181282519916	0.097447
H	0.1541903088002551 0.6269799398178575 0.1203436541046185	0.108968
H	0.4060115390597450 0.7480942066294948 0.1253597560467138	0.107633
H	0.3947061068707021 0.6098169690810815 0.1287760885343531	0.099874
H	0.3730689066723581 0.1720825477141437 0.2345376406274797	0.098211
H	0.5115815047310834 0.1560994373178218 0.2335881390237699	0.113306
H	0.5199532337631600 0.3106918520675902 0.0172767112240389	0.113226
H	0.3804427902168392 0.3151808877102064 0.0218181282519916	0.097453
H	0.6269799398178575 0.3458097051997462 0.1203436541046185	0.108969
H	0.7480942066294948 0.0939884539402508 0.1253597560467138	0.107646
H	0.6098169690810815 0.1052939061293026 0.1287760885343531	0.099873
H	0.1269311203276477 0.3279174252858577 0.2345376406274797	0.098212
H	0.9884184952689166 0.3439006026821746 0.2335881390237699	0.113304
H	0.9800467662368400 0.1893081609324072 0.0172767112240389	0.113219
H	0.1195572097831608 0.1848191122897934 0.0218181282519916	0.097448
H	0.8730200601821425 0.1541903088002551 0.1203436541046185	0.108983
H	0.7519057933705052 0.4060115390597450 0.1253597560467138	0.107633
H	0.8901830309189185 0.3947061068707021 0.1287760885343531	0.099873
H	0.8279174252858578 0.6269311473276467 0.2654623753725218	0.098212
H	0.8439005216821786 0.4884185492689140 0.2664118609762301	0.113301
H	0.6893081479324098 0.4800467662368400 0.4827232907759613	0.113226
H	0.6848191652897945 0.6195572367831593 0.4781818697480082	0.097454
H	0.6541902948002540 0.3730200061821449 0.3796563538953821	0.108940
H	0.9060114860597442 0.2519058203705038 0.3746402359532855	0.107594
H	0.8947060798707031 0.3901830569189134 0.3712239194656475	0.099877
H	0.6720825747141422 0.8730688526723533 0.2654623753725218	0.098212
H	0.6560994783178214 0.0115814667310800 0.2664118609762301	0.113302
H	0.8106918520675902 0.0199532327631564 0.4827232907759613	0.113226
H	0.8151808347102055 0.8804427632168407 0.4781818697480082	0.097453
H	0.8458097051997460 0.1269800068178597 0.3796563538953821	0.108969
H	0.5939884609402549 0.2480941526294903 0.3746402359532855	0.107633
H	0.6052939201292969 0.1098169560810841 0.3712239194656475	0.099873
H	0.6269311473276467 0.6720825747141422 0.2654623753725218	0.098213
H	0.4884185492689140 0.6560994783178214 0.2664118609762301	0.113302
H	0.4800467662368400 0.8106918520675902 0.4827232907759613	0.113225
H	0.6195572367831593 0.8151808347102055 0.4781818697480082	0.097454
H	0.3730200061821449 0.8458097051997460 0.3796563538953821	0.108941
H	0.2519058203705038 0.5939884609402549 0.3746402359532855	0.107631
H	0.3901830569189134 0.6052939201292969 0.3712239194656475	0.099873
H	0.8730688526723533 0.8279174252858578 0.2654623753725218	0.098212
H	0.0115814667310800 0.8439005216821786 0.2664118609762301	0.113301
H	0.0199532327631564 0.6893081479324098 0.4827232907759613	0.113227
H	0.8804427632168407 0.6848191652897945 0.4781818697480082	0.097453
H	0.1269800068178597 0.6541902948002540 0.3796563538953821	0.108967
H	0.2480941526294903 0.9060114860597442 0.3746402359532855	0.107596
H	0.1098169560810841 0.8947060798707031 0.3712239194656475	0.099876
H	0.8279174252858578 0.8730688526723533 0.7654623443725224	0.098212
H	0.8439005216821786 0.0115814667310800 0.7664118759762348	0.113302
H	0.6893081479324098 0.0199532327631564 0.9827233217759601	0.113228
H	0.6848191652897945 0.8804427632168407 0.9781818057480101	0.097454
H	0.6541902948002540 0.1269800068178597 0.8796563218953798	0.108968
H	0.9060114860597442 0.2480941526294903 0.8746401729532840	0.107597
H	0.8947060798707031 0.1098169560810841 0.8712238874656449	0.099875
H	0.6720825747141422 0.6269311473276467 0.7654623443725224	0.098213
H	0.6560994783178214 0.4884185492689140 0.7664118759762348	0.113302
H	0.8106918520675902 0.4800467662368400 0.9827233217759601	0.113227
H	0.8151808347102055 0.6195572367831593 0.9781818057480101	0.097454
H	0.8458097051997460 0.3730200061821449 0.8796563218953798	0.108942
H	0.5939884609402549 0.2519058203705038 0.8746401729532840	0.107632
H	0.6052939201292969 0.3901830569189134 0.8712238874656449	0.099873
H	0.6269311473276467 0.8279174252858578 0.7654623443725224	0.098213
H	0.4884185492689140 0.8439005216821786 0.7664118759762348	0.113301
H	0.4800467662368400 0.6893081479324098 0.9827233217759601	0.113227
H	0.6195572367831593 0.6848191652897945 0.9781818057480101	0.097454
H	0.3730200061821449 0.6541902948002540 0.8796563218953798	0.108941
H	0.2519058203705038 0.9060114860597442 0.8746401729532840	0.107595
H	0.3901830569189134 0.8947060798707031 0.8712238874656449	0.099875
H	0.8730688526723533 0.6720825747141422 0.7654623443725224	0.098212
H	0.0115814667310800 0.6560994783178214 0.7664118759762348	0.113302
H	0.0199532327631564 0.8106918520675902 0.9827233217759601	0.113227
H	0.8804427632168407 0.8151808347102055 0.9781818057480101	0.097453
H	0.1269800068178597 0.8458097051997460 0.8796563218953798	0.108969
H	0.2480941526294903 0.5939884609402549 0.8746401729532840	0.107633
H	0.1098169560810841 0.6052939201292969 0.8712238874656449	0.099873
H	0.1720825477141437 0.3730689066723581 0.7345376556274776	0.098211
H	0.1560994373178218 0.5115815047310834 0.7335881240237652	0.113306
H	0.3106918520675902 0.5199532337631600 0.5172767092240389	0.113227
H	0.3151808877102064 0.3804427902168392 0.5218181302519918	0.097453
H	0.3458097051997462 0.6269799398178575 0.6203436781046202	0.108969
H	0.0939884539402508 0.7480942066294948 0.6253598270467160	0.107647
H	0.1052939061293026 0.6098169690810815 0.6287761125343551	0.099872
H	0.3279174252858577 0.1269311203276477 0.7345376556274776	0.098211
H	0.3439006026821746 0.9884184952689166 0.7335881240237652	0.113306
H	0.1893081609324072 0.9800467662368400 0.5172767092240389	0.113220
H	0.1848191122897934 0.1195572097831608 0.5218181302519918	0.097448
H	0.1541903088002551 0.8730200601821425 0.6203436781046202	0.108982
H	0.4060115390597450 0.7519057933705052 0.6253598270467160	0.107634
H	0.3947061068707021 0.8901830309189185 0.6287761125343551	0.099875
H	0.3730689066723581 0.3279174252858577 0.7345376556274776	0.098211
H	0.5115815047310834 0.3439006026821746 0.7335881240237652	0.113306
H	0.5199532337631600 0.1893081609324072 0.5172767092240389	0.113221
H	0.3804427902168392 0.1848191122897934 0.5218181302519918	0.097447
H	0.6269799398178575 0.1541903088002551 0.6203436781046202	0.108967
H	0.7480942066294948 0.4060115390597450 0.6253598270467160	0.107633
H	0.6098169690810815 0.3947061068707021 0.6287761125343551	0.099874
H	0.1269311203276477 0.1720825477141437 0.7345376556274776	0.098212
H	0.9884184952689166 0.1560994373178218 0.7335881240237652	0.113306
H	0.9800467662368400 0.3106918520675902 0.5172767092240389	0.113226
H	0.1195572097831608 0.3151808877102064 0.5218181302519918	0.097454
H	0.8730200601821425 0.3458097051997462 0.6203436781046202	0.108968
H	0.7519057933705052 0.0939884539402508 0.6253598270467160	0.107632
H	0.8901830309189185 0.1052939061293026 0.6287761125343551	0.099873
F	0.3063351719484839 0.1653804189653611 0.3785947666046370	-0.559691
F	0.1936648550515148 0.3346195810346387 0.3785947666046370	-0.559690
F	0.3346195810346387 0.3063351719484839 0.3785947666046370	-0.559690
F	0.1653804189653611 0.1936648550515148 0.3785947666046370	-0.559690
F	0.6936648280515160 0.6653803649653636 0.1214052333953629	-0.559691
F	0.8063351719484840 0.8346196350346364 0.1214052333953629	-0.559690
F	0.6653803649653636 0.8063351719484840 0.1214052333953629	-0.559689
F	0.8346196350346364 0.6936648280515160 0.1214052333953629	-0.559691
F	0.6936648280515160 0.8346196350346364 0.6214052013953604	-0.559690
F	0.8063351719484840 0.6653803649653636 0.6214052013953604	-0.559691
F	0.6653803649653636 0.6936648280515160 0.6214052013953604	-0.559691
F	0.8346196350346364 0.8063351719484840 0.6214052013953604	-0.559691
F	0.3063351719484839 0.3346195810346387 0.8785947986046396	-0.559690
F	0.1936648550515148 0.1653804189653611 0.8785947986046396	-0.559691
F	0.3346195810346387 0.1936648550515148 0.8785947986046396	-0.559691
F	0.1653804189653611 0.3063351719484839 0.8785947986046396	-0.559689
F	0.2500000000000000 0.2500000000000000 0.2574554725195646	-0.487636
F	0.2500000000000000 0.2500000000000000 0.4995814272439028	-0.487601
F	0.7500000000000000 0.7500000000000000 0.2425445434804368	-0.487636
F	0.7500000000000000 0.7500000000000000 0.0004185797561014	-0.487600
F	0.7500000000000000 0.7500000000000000 0.7425444954804329	-0.487639
F	0.7500000000000000 0.7500000000000000 0.5004186047561000	-0.487605
F	0.2500000000000000 0.2500000000000000 0.7574555045195671	-0.487639
F	0.2500000000000000 0.2500000000000000 -0.0004186047561000	-0.487605
Fe	0.2500000000000000 0.2500000000000000 0.1285348319946804	0.783126
Fe	0.7500000000000000 0.7500000000000000 0.3714651840053208	0.783125
Fe	0.7500000000000000 0.7500000000000000 0.8714651530053217	0.783116
Fe	0.2500000000000000 0.2500000000000000 0.6285348469946783	0.783117
Ge	0.2500000000000000 0.2500000000000000 0.3785707332712981	1.798774
Ge	0.7500000000000000 0.7500000000000000 0.1214292747287026	1.798774
Ge	0.7500000000000000 0.7500000000000000 0.6214292357287029	1.798790
Ge	0.2500000000000000 0.2500000000000000 0.8785707642712971	1.798789
	  	
