#======================================================================

# CRYSTAL DATA

#----------------------------------------------------------------------

data_VESTA_phase_1


_pd_phase_name                         GeFSIX_2_Co_i
_cell_length_a                         13.59386
_cell_length_b                         13.59386
_cell_length_c                         8.13991
_cell_angle_alpha                      90
_cell_angle_beta                       90
_cell_angle_gamma                      90
_symmetry_space_group_name_H-M         P 1
_symmetry_Int_Tables_number            1

loop_
_symmetry_equiv_pos_as_xyz
   x, y, z

loop_
   _atom_site_label
   _atom_site_fract_x
   _atom_site_fract_y
   _atom_site_fract_z
   _atom_site_charge
C	-0.0000000000000000 0.2978655849450320 0.3519689447670142	-0.154407
C	-0.0000000000000000 0.1960378025983090 0.3570163494120712	0.093242
C	0.5000000000000000 0.7978655849450316 0.8519689737670129	-0.154407
C	0.5000000000000000 0.6960378205983109 0.8570163494120713	0.093242
C	-0.0000000000000000 0.7021344150549684 0.3519689447670142	-0.154409
C	-0.0000000000000000 0.8039621794016891 0.3570163494120712	0.093244
C	0.5000000000000000 0.2021344320549662 0.8519689737670129	-0.154409
C	0.5000000000000000 0.3039621794016895 0.8570163494120713	0.093244
C	0.7021344150549684 0.0000000000000000 0.3519689447670142	-0.154407
C	0.8039621794016891 0.0000000000000000 0.3570163494120712	0.093242
C	0.2021344320549662 0.5000000000000000 0.8519689737670129	-0.154407
C	0.3039621794016895 0.5000000000000000 0.8570163494120713	0.093242
C	0.2978655849450320 0.0000000000000000 0.3519689447670142	-0.154409
C	0.1960378025983090 0.0000000000000000 0.3570163494120712	0.093244
C	0.7978655849450316 0.5000000000000000 0.8519689737670129	-0.154409
C	0.6960378205983109 0.5000000000000000 0.8570163494120713	0.093244
C	-0.0000000000000000 0.2978655849450320 0.6480310262329871	-0.154405
C	-0.0000000000000000 0.1960378025983090 0.6429836505879287	0.093242
C	0.5000000000000000 0.7978655849450316 0.1480310552329859	-0.154405
C	0.5000000000000000 0.6960378205983109 0.1429836355879311	0.093242
C	-0.0000000000000000 0.7021344150549684 0.6480310262329871	-0.154407
C	-0.0000000000000000 0.8039621794016891 0.6429836505879287	0.093244
C	0.5000000000000000 0.2021344320549662 0.1480310552329859	-0.154407
C	0.5000000000000000 0.3039621794016895 0.1429836355879311	0.093244
C	0.2978655849450320 0.0000000000000000 0.6480310262329871	-0.154406
C	0.1960378025983090 0.0000000000000000 0.6429836505879287	0.093244
C	0.7978655849450316 0.5000000000000000 0.1480310552329859	-0.154406
C	0.6960378205983109 0.5000000000000000 0.1429836355879311	0.093244
C	0.7021344150549684 0.0000000000000000 0.6480310262329871	-0.154404
C	0.8039621794016891 0.0000000000000000 0.6429836505879287	0.093242
C	0.2021344320549662 0.5000000000000000 0.1480310552329859	-0.154404
C	0.3039621794016895 0.5000000000000000 0.1429836355879311	0.093242
C	-0.0000000000000000 0.4551150164118311 0.5000000000000000	-0.095332
C	-0.0000000000000000 0.3513701425664774 0.5000000000000000	0.159534
C	0.5000000000000000 0.9551150504118340 -0.0000000000000000	-0.095332
C	0.5000000000000000 0.8513701075664782 -0.0000000000000000	0.159535
C	-0.0000000000000000 0.5448849835881688 0.5000000000000000	-0.095095
C	-0.0000000000000000 0.6486298924335218 0.5000000000000000	0.159506
C	0.5000000000000000 0.0448849625881637 -0.0000000000000000	-0.095095
C	0.5000000000000000 0.1486298924335218 -0.0000000000000000	0.159506
C	0.5448849835881688 0.0000000000000000 0.5000000000000000	-0.095332
C	0.6486298924335218 0.0000000000000000 0.5000000000000000	0.159534
C	0.0448849625881637 0.5000000000000000 -0.0000000000000000	-0.095332
C	0.1486298924335218 0.5000000000000000 -0.0000000000000000	0.159534
C	0.4551150164118311 0.0000000000000000 0.5000000000000000	-0.095095
C	0.3513701425664774 0.0000000000000000 0.5000000000000000	0.159506
C	0.9551150504118340 0.5000000000000000 -0.0000000000000000	-0.095095
C	0.8513701075664782 0.5000000000000000 -0.0000000000000000	0.159506
H	-0.0000000000000000 0.3352862326392002 0.2337176175855724	0.122747
H	-0.0000000000000000 0.1533841084354022 0.2442079192228258	0.101504
H	0.5000000000000000 0.8352862326391999 0.7337176175855726	0.122747
H	0.5000000000000000 0.6533840554354013 0.7442079492228283	0.101504
H	-0.0000000000000000 0.6647137673608001 0.2337176175855724	0.122746
H	-0.0000000000000000 0.8466159445645987 0.2442079192228258	0.101504
H	0.5000000000000000 0.1647137673607999 0.7337176175855726	0.122746
H	0.5000000000000000 0.3466159095645924 0.7442079492228283	0.101504
H	0.6647137673608001 0.0000000000000000 0.2337176175855724	0.122747
H	0.8466159445645987 0.0000000000000000 0.2442079192228258	0.101503
H	0.1647137673607999 0.5000000000000000 0.7337176175855726	0.122747
H	0.3466159095645924 0.5000000000000000 0.7442079492228283	0.101503
H	0.3352862326392002 0.0000000000000000 0.2337176175855724	0.122746
H	0.1533841084354022 0.0000000000000000 0.2442079192228258	0.101503
H	0.8352862326391999 0.5000000000000000 0.7337176175855726	0.122746
H	0.6533840554354013 0.5000000000000000 0.7442079492228283	0.101503
H	-0.0000000000000000 0.3352862326392002 0.7662823824144274	0.122747
H	-0.0000000000000000 0.1533841084354022 0.7557919927771740	0.101504
H	0.5000000000000000 0.8352862326391999 0.2662823824144275	0.122747
H	0.5000000000000000 0.6533840554354013 0.2557920807771744	0.101504
H	-0.0000000000000000 0.6647137673608001 0.7662823824144274	0.122745
H	-0.0000000000000000 0.8466159445645987 0.7557919927771740	0.101504
H	0.5000000000000000 0.1647137673607999 0.2662823824144275	0.122745
H	0.5000000000000000 0.3466159095645924 0.2557920807771744	0.101504
H	0.3352862326392002 0.0000000000000000 0.7662823824144274	0.122745
H	0.1533841084354022 0.0000000000000000 0.7557919927771740	0.101503
H	0.8352862326391999 0.5000000000000000 0.2662823824144275	0.122745
H	0.6533840554354013 0.5000000000000000 0.2557920807771744	0.101503
H	0.6647137673608001 0.0000000000000000 0.7662823824144274	0.122747
H	0.8466159445645987 0.0000000000000000 0.7557919927771740	0.101503
H	0.1647137673607999 0.5000000000000000 0.2662823824144275	0.122747
H	0.3466159095645924 0.5000000000000000 0.2557920807771744	0.101503
Co	-0.0000000000000000 0.0000000000000000 0.5000000000000000	0.584660
Co	0.5000000000000000 0.5000000000000000 -0.0000000000000000	0.584660
Ge	-0.0000000000000000 0.0000000000000000 -0.0000000000000000	1.744630
Ge	0.5000000000000000 0.5000000000000000 0.5000000000000000	1.744630
N	-0.0000000000000000 0.1450569047164393 0.5000000000000000	-0.181669
N	0.5000000000000000 0.6450568867164379 -0.0000000000000000	-0.181669
N	-0.0000000000000000 0.8549431132835621 0.5000000000000000	-0.181669
N	0.5000000000000000 0.3549431132835622 -0.0000000000000000	-0.181669
N	0.8549431132835621 0.0000000000000000 0.5000000000000000	-0.181670
N	0.3549431132835622 0.5000000000000000 -0.0000000000000000	-0.181670
N	0.1450569047164393 0.0000000000000000 0.5000000000000000	-0.181670
N	0.6450568867164379 0.5000000000000000 -0.0000000000000000	-0.181670
F	-0.0000000000000000 0.0000000000000000 0.7704105809709388	-0.506202
F	0.5000000000000000 0.5000000000000000 0.2704106699709425	-0.506202
F	-0.0000000000000000 0.0000000000000000 0.2295893450290622	-0.506202
F	0.5000000000000000 0.5000000000000000 0.7295894190290612	-0.506202
F	0.5945413447908015 0.5945413447908015 0.5000000000000000	-0.538030
F	0.5945413447908015 0.4054586552091989 0.5000000000000000	-0.538030
F	0.4054586552091989 0.5945413447908015 0.5000000000000000	-0.538031
F	0.4054586552091989 0.4054586552091989 0.5000000000000000	-0.538031
F	0.0945413617907989 0.0945413617907989 -0.0000000000000000	-0.538031
F	0.9054586552091985 0.9054586552091985 -0.0000000000000000	-0.538030
F	0.9054586552091985 0.0945413617907989 -0.0000000000000000	-0.538031
F	0.0945413617907989 0.9054586552091985 -0.0000000000000000	-0.538030
	  	
