#======================================================================

# CRYSTAL DATA

#----------------------------------------------------------------------

data_VESTA_phase_1


_pd_phase_name                         GeFSIX_13_Cd_i
_cell_length_a                         15.80787
_cell_length_b                         15.79020
_cell_length_c                         7.89457
_cell_angle_alpha                      89.62478
_cell_angle_beta                       89.40292
_cell_angle_gamma                      88.02581
_symmetry_space_group_name_H-M         P 1
_symmetry_Int_Tables_number            1

loop_
_symmetry_equiv_pos_as_xyz
   x, y, z

loop_
   _atom_site_label
   _atom_site_fract_x
   _atom_site_fract_y
   _atom_site_fract_z
   _atom_site_charge
C	0.5397634586366485 0.6931193958850245 0.8586995488716771	0.113316
C	0.5449399290381540 0.7810831420333644 0.8607609779396683	-0.152535
C	0.4626568703402498 0.3104663506738316 0.8810156861640166	0.104695
C	0.4597300502602366 0.2224029097577918 0.8805205854247344	-0.142532
C	0.8088558911026110 0.9727684871895871 0.3680047778330177	0.107379
C	0.7210572284191865 0.9703062051921231 0.3623296626318152	-0.139132
C	0.3065460484950944 0.5414197154557091 0.8606934635942299	0.100287
C	0.2183571328042391 0.5469183115272468 0.8620247774546297	-0.148507
C	0.1949342897119680 0.9758852886136904 0.3531125044160113	0.101199
C	0.2829723142513863 0.9740500294669870 0.3516021377300670	-0.139867
C	0.6947052991704786 0.4587304031304291 0.9048348066410608	0.106068
C	0.7825868113132798 0.4579990290238455 0.8986572817376938	-0.144608
C	0.4559711968892935 0.6946815462159650 0.1025823376089560	0.108369
C	0.4542724064058283 0.7826969423003315 0.1085677383037168	-0.139873
C	0.5401801085665477 0.3085448421180791 0.1303535877396056	0.098444
C	0.5439791741280252 0.2202614355444730 0.1335945393295323	-0.149397
C	0.1894121848846085 0.0218710841706793 0.6329652884455830	0.107793
C	0.2771424388988550 0.0234595331519035 0.6409436681841421	-0.140887
C	0.6902703267684687 0.5430531254920763 0.1454379420568018	0.108944
C	0.7781391449051931 0.5488466336123530 0.1433010753574016	-0.151197
C	0.8045583305203194 0.0234088042460464 0.6445055819234076	0.096736
C	0.7165340949650086 0.0249448362061692 0.6478670773311148	-0.137922
C	0.3080311290419576 0.4572869193387422 0.1034579661374337	0.106823
C	0.2201045428614386 0.4559296061107037 0.1085845358044847	-0.144013
C	0.9670148973965788 0.8060877647102668 0.6289355463891309	0.107361
C	0.9657383362922828 0.7181264636254595 0.6359832065762979	-0.139192
C	0.9841905085599223 0.1909071918121618 0.6508352251719156	0.100482
C	0.9817340352442862 0.2789910546458709 0.6530195418789045	-0.137948
C	0.0181427282770457 0.8038103303699980 0.3512749980676245	0.100225
C	0.0209645867371077 0.7157261706763878 0.3491607569609318	-0.139575
C	0.0295639017787431 0.1885606988404232 0.3691501172393633	0.107888
C	0.0304186165100211 0.2765036247083785 0.3616102465632977	-0.141461
C	0.0051824423711864 0.3225730740086724 0.5057944178371970	0.042996
C	0.0021795061429462 0.4153981593563590 0.5022290915076393	0.254548
C	0.5007226003531871 0.8267350641499852 0.9868330840684013	0.057048
C	0.5019220581145792 0.9200920019912774 0.9952313646583115	0.248395
C	0.9941081260819454 0.6720547893230695 0.4938896441398908	0.038186
C	0.9965207109265437 0.5791143390677008 0.4964889833983395	0.248177
C	0.5021142953592134 0.1763965215359924 0.0079813897091240	0.054644
C	0.5021972195576703 0.0828307264780642 0.0088674566611991	0.252195
C	0.6739674132779374 -0.0025060341322915 0.5046018008610310	0.036961
C	0.5811444077978618 0.9964574047388763 0.5048230853236209	0.248587
C	0.1743273411852110 0.5026082655287397 0.9867290152674901	0.055468
C	0.0809979826133937 0.5041476131987087 0.9917720964605899	0.248881
C	0.3248695943118988 0.9982000872453054 0.4981451805813699	0.042958
C	0.4175907256206562 0.9968068004846755 0.5021826664949322	0.253230
C	0.8251581810326151 0.5048947492912049 0.0189129657453848	0.055234
C	0.9184273637195706 0.5056862243778886 0.0110857249577598	0.249249
H	0.5695192352930371 0.6551732701398119 0.7578835276229589	0.104757
H	0.5818978967563414 0.8131404550338004 0.7639328730543825	0.123893
H	0.4347686424760343 0.3488857835954453 0.7788170401690789	0.106423
H	0.4273090990062931 0.1896486623146226 0.7804007440360212	0.118394
H	0.8478464194414603 0.9539896546084126 0.2586438602853122	0.104825
H	0.6900909708376757 0.9483165878588432 0.2489403314302411	0.120129
H	0.3438189930398350 0.5708535079882203 0.7603844997519349	0.111388
H	0.1849556077304857 0.5842041747950053 0.7654824675429399	0.122102
H	0.1596734355003156 0.9590558655038482 0.2406692233206888	0.105686
H	0.3178539829398933 0.9554020886148855 0.2373395167092915	0.113503
H	0.6584686025219145 0.4272830902282704 0.8084992254176340	0.105719
H	0.8176310672448734 0.4241396367324976 0.7991188692734712	0.115458
H	0.4251534809482082 0.6570522135480367 0.2000085376772290	0.106858
H	0.4205291734566786 0.8165306741067035 0.2098210012951547	0.116429
H	0.5675203726428429 0.3457949864278987 0.2312155005511119	0.112355
H	0.5778558989828555 0.1865994446604821 0.2345511161908229	0.122268
H	0.1500272542205443 0.0390949247005634 0.7426649908476085	0.103226
H	0.3076607728722515 0.0423904204767822 0.7571332680775099	0.120308
H	0.6513990242366600 0.5722271434921611 0.2460329343509905	0.107821
H	0.8089499898004988 0.5858467503184135 0.2395407512709548	0.122858
H	0.8402771879898623 0.0417543690431328 0.7553495386395934	0.106969
H	0.6821323664939105 0.0457442487176174 0.7611412490271855	0.116202
H	0.3462088799413330 0.4261935607529010 0.2016123750749256	0.102221
H	0.1871556040579837 0.4219661926703218 0.2085066704984266	0.115559
H	0.9485267684336989 0.8443614613005928 0.7387234533158360	0.104231
H	0.9449579702158207 0.6863043104812622 0.7511324447169503	0.117638
H	0.9673176644227746 0.1544314524872080 0.7633859490868189	0.103616
H	0.9623119462847061 0.3127883595423785 0.7675355951571518	0.117299
H	0.0370401471585592 0.8402841806735335 0.2400310466803808	0.104657
H	0.0434610972637374 0.6821836296161048 0.2364543036926859	0.117341
H	0.0460550887754720 0.1502442818226614 0.2583277410271475	0.103746
H	0.0479542700438961 0.3085000045994433 0.2444269956673912	0.119165
N	0.9468900640853849 0.5395533010155905 0.6106828834818679	-0.136073
N	0.4263288073211317 0.0459423301436846 0.0095736670652792	-0.151271
N	0.5383319741468221 0.0461575080376977 0.6178115519402123	-0.138283
N	0.9599092527318067 0.4293728108826866 0.0068407527836446	-0.147805
N	0.0483411680826893 0.5383095310566381 0.3840215793614490	-0.135358
N	0.5777603532856228 0.0404020044920172 0.0121149136840841	-0.148793
N	0.9559113880611942 0.5811659476735686 0.0022174681580509	-0.147255
N	0.5437286844951051 0.9445157463520512 0.3948841895934460	-0.135150
N	0.0518250382150923 0.4549410275247505 0.3883219517295497	-0.131612
N	0.5777574584721589 0.9568245237543110 0.0008374008203082	-0.146933
N	0.4604504371346524 0.9443650119898483 0.3942609368568933	-0.129708
N	0.0394423063738941 0.5802728965491862 0.9883342284251102	-0.148529
N	0.9491817375995779 0.4561515869744897 0.6124139365779169	-0.130306
N	0.4262326335270443 0.9623065040067942 0.0060782838752557	-0.143813
N	0.0434205867190329 0.4285866752392271 0.0000154759796645	-0.148910
N	0.4550784150472569 0.0466790175676345 0.6157340721833701	-0.133678
N	0.0066628339876510 0.1467331422396719 0.5110302475812163	-0.230118
N	0.4971669037337071 0.6509641008498122 0.9793308656440162	-0.229266
N	0.9926219321303008 0.8480231523624772 0.4891283465098741	-0.228575
N	0.5011158282445115 0.3524676593273975 0.0050328244666167	-0.234688
N	0.8496955379964576 -0.0014446234402988 0.5067659314232299	-0.229978
N	0.3503511373021665 0.4982957731891747 0.9806851586959165	-0.231788
N	0.1492484203115700 0.9983459448117584 0.4917126229453979	-0.231734
N	0.6495566110135129 0.4997453495414144 0.0265504146212533	-0.231391
Cd	-0.0003969029346590 0.9973763642706932 0.5001181386169608	0.821489
Cd	0.5002806626842067 0.5019057659321563 0.9987021418939931	0.820660
Ge	-0.0002164021915607 0.9966600203781378 0.9997811963549234	1.759694
Ge	0.5016971214033901 0.5073709990887491 0.4973397295209650	1.773900
F	0.9775081546375991 0.0251186595051371 0.2233034858325300	-0.516489
F	0.5394318774729384 0.4896636503834140 0.7189683486094878	-0.525883
F	0.0218939435416138 0.9674179618765154 0.7764211732611340	-0.515863
F	0.4621781391461622 0.5234431735177743 0.2760392869676375	-0.525282
F	0.0797583019481327 0.0766577442669311 0.9866309120524117	-0.545651
F	0.5783533496259958 0.5901996391756822 0.4672840335329720	-0.551159
F	0.9198508768857419 0.9168274944521312 0.0116018939565960	-0.545427
F	0.4250502948235981 0.4252676000084250 0.5291400919902892	-0.560166
F	0.9192806549458152 0.0759110997585417 0.9351137731457624	-0.529040
F	0.4253186999224704 0.5885946431521633 0.5710788168916688	-0.548617
F	0.0808012516083625 0.9183777438573441 0.0655449976042742	-0.526885
F	0.5809736787899080 0.4298075168924212 0.4208892957244167	-0.551426
	  	
