#======================================================================

# CRYSTAL DATA

#----------------------------------------------------------------------

data_VESTA_phase_1


_pd_phase_name                         GeFSIX_4_Fe_i
_cell_length_a                         23.98979
_cell_length_b                         20.87540
_cell_length_c                         9.08124
_cell_angle_alpha                      90
_cell_angle_beta                       90
_cell_angle_gamma                      90
_symmetry_space_group_name_H-M         P 1
_symmetry_Int_Tables_number            1

loop_
_symmetry_equiv_pos_as_xyz
   x, y, z

loop_
   _atom_site_label
   _atom_site_fract_x
   _atom_site_fract_y
   _atom_site_fract_z
   _atom_site_charge
C	0.4137561198105000 0.5958700384716202 0.6244082461766295	0.104805
C	0.3706944073224673 0.5514610503931494 0.6220708396325264	-0.177946
C	0.2757947253969670 0.4489451988396068 0.6213508181890716	-0.119150
C	0.2309918658854179 0.4068621191254815 0.6200362113063587	-0.115569
C	0.1320301814880761 0.3212667448881958 0.6183685388464034	-0.171155
C	0.0862815662373393 0.2805725278463489 0.6222294522560399	0.099356
C	0.9137562028104962 0.0958700494716243 0.6244082461766295	0.104804
C	0.8706943653224711 0.0514609923931517 0.6220708396325264	-0.177946
C	0.7757947463969722 0.9489452458396065 0.6213508181890716	-0.119150
C	0.7309918458854158 0.9068621651254787 0.6200362113063587	-0.115569
C	0.6320301814880759 0.8212667918881955 0.6183685388464034	-0.171155
C	0.5862815512373346 0.7805726208463462 0.6222294522560399	0.099356
C	0.5862438801895000 0.4041299155283761 0.1244082541766305	0.104806
C	0.6293056346775289 0.4485389956068545 0.1220708546325242	-0.177947
C	0.7242052536030278 0.5510547541603935 0.1213508261890722	-0.119147
C	0.7690081541145842 0.5931378808745180 0.1200362193063591	-0.115584
C	0.8679698185119241 0.6787332551118048 0.1183685458464074	-0.171155
C	0.9137184487626654 0.7194274261536542 0.1222294672560374	0.099356
C	0.0862438911895043 0.9041300085283801 0.1244082541766305	0.104803
C	0.1293055926775327 0.9485389036068539 0.1220708546325242	-0.177947
C	0.2242052956030312 0.0510548011603935 0.1213508261890723	-0.119148
C	0.2690081131145840 0.0931378578745198 0.1200362193063591	-0.115585
C	0.3679698605119271 0.1787332661118018 0.1183685458464075	-0.171155
C	0.4137184487626652 0.2194274961536529 0.1222294672560374	0.099355
C	0.5862438801895000 0.5958700384716202 0.8755917228233715	0.104805
C	0.6293056346775289 0.5514610503931494 0.8779291293674746	-0.177946
C	0.7242052536030278 0.4489451988396068 0.8786492128109274	-0.119150
C	0.7690081541145842 0.4068621191254815 0.8799638196936403	-0.115569
C	0.8679698185119241 0.3212667448881958 0.8816314921535956	-0.171156
C	0.9137184487626654 0.2805725278463489 0.8777705787439591	0.099356
C	0.0862438911895044 0.0958700494716243 0.8755917228233715	0.104803
C	0.1293055926775327 0.0514609923931517 0.8779291293674746	-0.177946
C	0.2242052956030312 0.9489452458396065 0.8786492128109274	-0.119151
C	0.2690081131145840 0.9068621651254787 0.8799638196936403	-0.115570
C	0.3679698605119271 0.8212667918881955 0.8816314921535956	-0.171156
C	0.4137184487626652 0.7805726208463462 0.8777705787439591	0.099356
C	0.4137561198105000 0.4041299155283761 0.3755917538233703	0.104806
C	0.3706944073224673 0.4485389956068545 0.3779291293674742	-0.177947
C	0.2757947253969670 0.5510547541603935 0.3786491818109285	-0.119149
C	0.2309918658854179 0.5931378808745180 0.3799637576936427	-0.115570
C	0.1320301814880761 0.6787332551118048 0.3816314301535905	-0.171155
C	0.0862815662373393 0.7194274261536542 0.3777705167439614	0.099355
C	0.9137562028104962 0.9041300085283801 0.3755917538233703	0.104803
C	0.8706943653224711 0.9485389036068539 0.3779291293674742	-0.177947
C	0.7757947463969722 0.0510548011603934 0.3786491818109285	-0.119149
C	0.7309918458854158 0.0931378578745198 0.3799637576936427	-0.115570
C	0.6320301814880759 0.1787332661118018 0.3816314301535905	-0.171155
C	0.5862815512373346 0.2194274961536529 0.3777705167439614	0.099356
C	0.5862438801895000 0.4041299155283761 0.3755917538233703	0.104806
C	0.6293056346775289 0.4485389956068545 0.3779291293674742	-0.177947
C	0.7242052536030278 0.5510547541603935 0.3786491818109285	-0.119149
C	0.7690081541145842 0.5931378808745180 0.3799637576936427	-0.115569
C	0.8679698185119241 0.6787332551118048 0.3816314301535905	-0.171155
C	0.9137184487626654 0.7194274261536542 0.3777705167439614	0.099355
C	0.0862438911895043 0.9041300085283801 0.3755917538233703	0.104803
C	0.1293055926775327 0.9485389036068539 0.3779291293674742	-0.177947
C	0.2242052956030312 0.0510548011603934 0.3786491818109285	-0.119150
C	0.2690081131145840 0.0931378578745198 0.3799637576936427	-0.115570
C	0.3679698605119271 0.1787332661118018 0.3816314301535905	-0.171155
C	0.4137184487626652 0.2194274961536529 0.3777705167439614	0.099354
C	0.4137561198105000 0.5958700384716202 0.8755917228233715	0.104805
C	0.3706944073224673 0.5514610503931494 0.8779291293674746	-0.177946
C	0.2757947253969670 0.4489451988396068 0.8786492128109274	-0.119150
C	0.2309918658854179 0.4068621191254815 0.8799638196936403	-0.115569
C	0.1320301814880761 0.3212667448881958 0.8816314921535956	-0.171156
C	0.0862815662373393 0.2805725278463489 0.8777705787439591	0.099355
C	0.9137562028104962 0.0958700494716243 0.8755917228233715	0.104803
C	0.8706943653224711 0.0514609923931517 0.8779291293674746	-0.177946
C	0.7757947463969722 0.9489452458396065 0.8786492128109274	-0.119150
C	0.7309918458854158 0.9068621651254787 0.8799638196936403	-0.115569
C	0.6320301814880759 0.8212667918881955 0.8816314921535956	-0.171156
C	0.5862815512373346 0.7805726208463462 0.8777705787439591	0.099355
C	0.4137561198105000 0.4041299155283761 0.1244082541766305	0.104806
C	0.3706944073224673 0.4485389956068545 0.1220708546325242	-0.177947
C	0.2757947253969670 0.5510547541603935 0.1213508261890723	-0.119148
C	0.2309918658854179 0.5931378808745180 0.1200362193063591	-0.115584
C	0.1320301814880761 0.6787332551118048 0.1183685458464075	-0.171156
C	0.0862815662373393 0.7194274261536542 0.1222294672560374	0.099355
C	0.9137562028104962 0.9041300085283801 0.1244082541766305	0.104803
C	0.8706943653224711 0.9485389036068539 0.1220708546325242	-0.177947
C	0.7757947463969722 0.0510548011603935 0.1213508261890722	-0.119148
C	0.7309918458854158 0.0931378578745198 0.1200362193063591	-0.115585
C	0.6320301814880759 0.1787332661118018 0.1183685458464075	-0.171156
C	0.5862815512373346 0.2194274961536529 0.1222294672560374	0.099355
C	0.5862438801895000 0.5958700384716202 0.6244082461766295	0.104806
C	0.6293056346775289 0.5514610503931494 0.6220708396325264	-0.177946
C	0.7242052536030278 0.4489451988396068 0.6213508181890716	-0.119150
C	0.7690081541145842 0.4068621191254815 0.6200362113063587	-0.115569
C	0.8679698185119241 0.3212667448881958 0.6183685388464034	-0.171156
C	0.9137184487626654 0.2805725278463489 0.6222294522560399	0.099355
C	0.0862438911895044 0.0958700494716243 0.6244082461766295	0.104803
C	0.1293055926775327 0.0514609923931517 0.6220708396325264	-0.177946
C	0.2242052956030312 0.9489452458396065 0.6213508181890716	-0.119151
C	0.2690081131145840 0.9068621651254787 0.6200362113063587	-0.115569
C	0.3679698605119271 0.8212667918881955 0.6183685388464034	-0.171157
C	0.4137184487626652 0.7805726208463462 0.6222294522560399	0.099355
C	0.3463542936975834 0.5247348580913278 0.7500000149999977	0.111393
C	0.3001021085428251 0.4749879713992504 0.7500000149999977	0.065173
C	0.2057916129921008 0.3852822467374299 0.7500000149999977	0.068948
C	0.1567984040120749 0.3425376908196677 0.7500000149999977	0.101624
C	0.8463542516975873 0.0247348410913300 0.7500000149999977	0.111391
C	0.8001021705428234 0.9749879243992499 0.7500000149999977	0.065173
C	0.7057916129921004 0.8852822697374289 0.7500000149999977	0.068948
C	0.6567984040120750 0.8425376218196656 0.7500000149999977	0.101625
C	0.6536457063024164 0.4752651879086689 0.2500000000000000	0.111393
C	0.6998978294571766 0.5250120286007498 0.2500000000000000	0.065172
C	0.7942083870078996 0.6147177772625715 0.2500000000000000	0.068950
C	0.8432016369879319 0.6574622861803339 0.2500000000000000	0.101624
C	0.1536457173024141 0.9752652349086692 0.2500000000000000	0.111392
C	0.1998979124571730 0.0250120316007462 0.2500000000000000	0.065173
C	0.2942083870078990 0.1147177302625717 0.2500000000000000	0.068951
C	0.3432015959879251 0.1574623201803369 0.2500000000000000	0.101624
C	0.6536457063024164 0.5247348580913278 0.7500000149999977	0.111393
C	0.6998978294571766 0.4749879713992504 0.7500000149999977	0.065173
C	0.7942083870078996 0.3852822467374299 0.7500000149999977	0.068948
C	0.8432016369879319 0.3425376908196676 0.7500000149999977	0.101625
C	0.1536457173024141 0.0247348410913300 0.7500000149999977	0.111391
C	0.1998979124571730 0.9749879243992499 0.7500000149999977	0.065174
C	0.2942083870078990 0.8852822697374289 0.7500000149999977	0.068948
C	0.3432015959879250 0.8425376218196656 0.7500000149999977	0.101625
C	0.3463542936975834 0.4752651879086689 0.2500000000000000	0.111393
C	0.3001021085428251 0.5250120286007498 0.2500000000000000	0.065172
C	0.2057916129921008 0.6147177772625715 0.2500000000000000	0.068950
C	0.1567984040120749 0.6574622861803339 0.2500000000000000	0.101624
C	0.8463542516975873 0.9752652349086692 0.2500000000000000	0.111391
C	0.8001021705428234 0.0250120316007462 0.2500000000000000	0.065173
C	0.7057916129921004 0.1147177302625717 0.2500000000000000	0.068950
C	0.6567984040120750 0.1574623201803369 0.2500000000000000	0.101624
H	0.4309172390429793 0.6140564558090624 0.5210568756944829	0.107933
H	0.3583305315989741 0.5397589267818966 0.5118999987307546	0.108781
H	0.2910609356807231 0.4602923616835347 0.5135498414955311	0.088445
H	0.2161532624689183 0.3911096803309898 0.5126825327408390	0.104351
H	0.1478250948389333 0.3354552331716881 0.5109057893869017	0.120215
H	0.0669392940356791 0.2630944465287443 0.5209375545260148	0.107469
H	0.9309171970429758 0.1140564908090617 0.5210568756944829	0.107932
H	0.8583304905989746 0.0397588627818916 0.5118999987307546	0.108780
H	0.7910609146807248 0.9602923616835353 0.5135498414955311	0.088448
H	0.7161532204689149 0.8911096113309952 0.5126825327408390	0.104351
H	0.6478250848389326 0.8354552331716883 0.5109057893869017	0.120215
H	0.5669393250356785 0.7630944235287463 0.5209375545260148	0.107469
H	0.5690827609570207 0.3859435441909375 0.0210569376944808	0.107933
H	0.6416694684010256 0.4602411202181033 0.0118999987307546	0.108781
H	0.7089390853192752 0.5397075923164609 0.0135499034955292	0.088444
H	0.7838467795310851 0.6088902966690043 0.0126824717408373	0.104363
H	0.8521749151610674 0.6645447208283078 0.0109057893869014	0.120215
H	0.9330606339643217 0.7369055764712537 0.0209375235260157	0.107469
H	0.0690827669570211 0.8859435441909376 0.0210569376944808	0.107933
H	0.1416695094010257 0.9602411202181037 0.0118999987307546	0.108780
H	0.2089390853192753 0.0397076353164615 0.0135499034955292	0.088448
H	0.2838467375310817 0.1088903306690075 0.0126824717408373	0.104363
H	0.3521749151610677 0.1645447438283064 0.0109057893869014	0.120215
H	0.4330606749643219 0.2369055534712556 0.0209375235260157	0.107469
H	0.5690827609570207 0.6140564558090624 -0.0210568946944810	0.107933
H	0.6416694684010256 0.5397589267818966 -0.0119000257307605	0.108781
H	0.7089390853192752 0.4602923616835347 -0.0135498594955256	0.088445
H	0.7838467795310851 0.3911096803309898 -0.0126825257408346	0.104351
H	0.8521749151610674 0.3354552331716881 -0.0109057893869013	0.120215
H	0.9330606339643217 0.2630944465287443 -0.0209375615260191	0.107469
H	0.0690827669570211 0.1140564908090617 -0.0210568946944810	0.107932
H	0.1416695094010257 0.0397588627818916 -0.0119000257307605	0.108780
H	0.2089390853192753 0.9602923616835353 -0.0135498594955256	0.088448
H	0.2838467375310817 0.8911096113309952 -0.0126825257408346	0.104351
H	0.3521749151610677 0.8354552331716883 -0.0109057893869013	0.120215
H	0.4330606749643219 0.7630944235287463 -0.0209375615260191	0.107469
H	0.4309172390429793 0.3859435441909375 0.4789430933055182	0.107933
H	0.3583305315989741 0.4602411202181033 0.4881000322692445	0.108781
H	0.2910609356807231 0.5397075923164609 0.4864501275044699	0.088445
H	0.2161532624689183 0.6088902966690043 0.4873174362591622	0.104351
H	0.1478250948389333 0.6645447208283078 0.4890941796130996	0.120215
H	0.0669392940356791 0.7369055764712537 0.4790624454739852	0.107469
H	0.9309171970429758 0.8859435441909376 0.4789430933055182	0.107932
H	0.8583304905989745 0.9602411202181037 0.4881000322692445	0.108780
H	0.7910609146807248 0.0397076353164615 0.4864501275044699	0.088448
H	0.7161532204689149 0.1088903306690075 0.4873174362591622	0.104351
H	0.6478250848389326 0.1645447438283064 0.4890941796130996	0.120215
H	0.5669393250356785 0.2369055534712556 0.4790624454739852	0.107469
H	0.5690827609570207 0.3859435441909375 0.4789430933055182	0.107933
H	0.6416694684010257 0.4602411202181033 0.4881000322692445	0.108781
H	0.7089390853192752 0.5397075923164609 0.4864501275044699	0.088445
H	0.7838467795310851 0.6088902966690043 0.4873174362591622	0.104351
H	0.8521749151610674 0.6645447208283078 0.4890941796130996	0.120214
H	0.9330606339643217 0.7369055764712537 0.4790624454739852	0.107469
H	0.0690827669570211 0.8859435441909376 0.4789430933055182	0.107933
H	0.1416695094010257 0.9602411202181037 0.4881000322692445	0.108780
H	0.2089390853192753 0.0397076353164615 0.4864501275044699	0.088448
H	0.2838467375310817 0.1088903306690075 0.4873174362591622	0.104351
H	0.3521749151610677 0.1645447438283064 0.4890941796130996	0.120214
H	0.4330606749643219 0.2369055534712556 0.4790624454739852	0.107469
H	0.4309172390429793 0.6140564558090624 -0.0210568946944810	0.107933
H	0.3583305315989741 0.5397589267818966 -0.0119000257307605	0.108781
H	0.2910609356807231 0.4602923616835347 -0.0135498594955256	0.088445
H	0.2161532624689183 0.3911096803309898 -0.0126825257408346	0.104351
H	0.1478250948389333 0.3354552331716881 -0.0109057893869013	0.120215
H	0.0669392940356791 0.2630944465287443 -0.0209375615260191	0.107469
H	0.9309171970429758 0.1140564908090617 -0.0210568946944810	0.107932
H	0.8583304905989745 0.0397588627818916 -0.0119000257307605	0.108780
H	0.7910609146807248 0.9602923616835353 -0.0135498594955256	0.088448
H	0.7161532204689149 0.8911096113309952 -0.0126825257408346	0.104351
H	0.6478250848389326 0.8354552331716883 -0.0109057893869013	0.120215
H	0.5669393250356785 0.7630944235287463 -0.0209375615260191	0.107469
H	0.4309172390429793 0.3859435441909375 0.0210569376944808	0.107933
H	0.3583305315989741 0.4602411202181033 0.0118999987307546	0.108781
H	0.2910609356807231 0.5397075923164609 0.0135499034955292	0.088444
H	0.2161532624689183 0.6088902966690043 0.0126824717408373	0.104363
H	0.1478250948389332 0.6645447208283078 0.0109057893869014	0.120215
H	0.0669392940356791 0.7369055764712537 0.0209375235260157	0.107469
H	0.9309171970429758 0.8859435441909376 0.0210569376944808	0.107933
H	0.8583304905989745 0.9602411202181037 0.0118999987307546	0.108780
H	0.7910609146807248 0.0397076353164615 0.0135499034955292	0.088448
H	0.7161532204689149 0.1088903306690075 0.0126824717408373	0.104363
H	0.6478250848389326 0.1645447438283064 0.0109057893869014	0.120215
H	0.5669393250356785 0.2369055534712556 0.0209375235260157	0.107469
H	0.5690827609570207 0.6140564558090624 0.5210568756944829	0.107933
H	0.6416694684010256 0.5397589267818966 0.5118999987307546	0.108781
H	0.7089390853192752 0.4602923616835347 0.5135498414955311	0.088445
H	0.7838467795310851 0.3911096803309898 0.5126825327408390	0.104351
H	0.8521749151610674 0.3354552331716881 0.5109057893869017	0.120215
H	0.9330606339643217 0.2630944465287443 0.5209375545260148	0.107469
H	0.0690827669570211 0.1140564908090617 0.5210568756944829	0.107932
H	0.1416695094010257 0.0397588627818916 0.5118999987307546	0.108780
H	0.2089390853192753 0.9602923616835353 0.5135498414955311	0.088448
H	0.2838467375310817 0.8911096113309952 0.5126825327408390	0.104351
H	0.3521749151610677 0.8354552331716883 0.5109057893869017	0.120215
H	0.4330606749643219 0.7630944235287463 0.5209375545260148	0.107469
Fe	0.5000000000000000 0.6889606420979134 0.7500000149999977	0.609467
Fe	0.0000000000000000 0.1889607000979113 0.7500000149999977	0.609468
Fe	0.5000000000000000 0.3110392879020878 0.2500000000000000	0.609467
Fe	0.0000000000000000 0.8110393579020866 0.2500000000000000	0.609467
F	0.5000000000000000 0.6865321823139255 0.4700532708755079	-0.556301
F	0.0000000000000000 0.1865322173139243 0.4700532708755080	-0.556301
F	0.5000000000000000 0.3134677946860694 0.9700532708755076	-0.556301
F	0.0000000000000000 0.8134678176860745 0.9700532708755076	-0.556301
F	0.5000000000000000 0.6865321823139255 0.0299467151244909	-0.556301
F	0.0000000000000000 0.1865322173139243 0.0299467151244909	-0.556301
F	0.5000000000000000 0.3134677946860694 0.5299466991244899	-0.556301
F	0.0000000000000000 0.8134678176860745 0.5299466991244899	-0.556301
F	0.4465595611278116 0.7470818630207077 0.2500000000000000	-0.550750
F	0.5532281826080859 0.6248791224482597 0.2500000000000000	-0.543888
F	0.9465595611278115 0.2470818630207073 0.2500000000000000	-0.550750
F	0.0532282036080911 0.1248791224482597 0.2500000000000000	-0.543887
F	0.5534403978721887 0.2529181139792944 0.7500000149999977	-0.550750
F	0.4467718173919142 0.3751208775517403 0.7500000149999977	-0.543888
F	0.0534404498721927 0.7529181369792923 0.7500000149999977	-0.550750
F	0.9467718173919141 0.8751208775517403 0.7500000149999977	-0.543888
F	0.5534403978721887 0.7470818630207077 0.2500000000000000	-0.550750
F	0.4467718173919142 0.6248791224482597 0.2500000000000000	-0.543888
F	0.0534404498721927 0.2470818630207073 0.2500000000000000	-0.550750
F	0.9467718173919141 0.1248791224482597 0.2500000000000000	-0.543887
F	0.4465595611278116 0.2529181139792944 0.7500000149999977	-0.550750
F	0.5532281826080859 0.3751208775517403 0.7500000149999977	-0.543888
F	0.9465595611278115 0.7529181369792923 0.7500000149999977	-0.550750
F	0.0532282036080911 0.8751208775517403 0.7500000149999977	-0.543888
N	0.4360565448316515 0.6181914663405559 0.7500000149999977	-0.191859
N	0.5638426288727620 0.7599607399049844 0.7500000149999977	-0.204479
N	0.9360565038316453 0.1181914543405547 0.7500000149999977	-0.191858
N	0.0638426028727599 0.2599607169049784 0.7500000149999977	-0.204480
N	0.5639434551683478 0.3818085336594442 0.2500000000000000	-0.191859
N	0.4361573711272378 0.2400392830950215 0.2500000000000000	-0.204480
N	0.0639434551683483 0.8818085336594441 0.2500000000000000	-0.191857
N	0.9361574121272378 0.7400392600950156 0.2500000000000000	-0.204479
N	0.5639434551683478 0.6181914663405559 0.7500000149999977	-0.191859
N	0.4361573711272378 0.7599607399049844 0.7500000149999977	-0.204479
N	0.0639434551683483 0.1181914543405547 0.7500000149999977	-0.191857
N	0.9361574121272378 0.2599607169049784 0.7500000149999977	-0.204480
N	0.4360565448316515 0.3818085336594442 0.2500000000000000	-0.191859
N	0.5638426288727620 0.2400392830950215 0.2500000000000000	-0.204480
N	0.9360565038316453 0.8818085336594441 0.2500000000000000	-0.191858
N	0.0638426028727599 0.7400392600950156 0.2500000000000000	-0.204479
Ge	0.5000000000000000 0.6860372460078920 0.2500000000000000	1.760681
Ge	0.0000000000000000 0.1860372700078941 0.2500000000000000	1.760681
Ge	0.5000000000000000 0.3139627069921074 0.7500000149999977	1.760680
Ge	0.0000000000000000 0.8139627539921080 0.7500000149999977	1.760681
	  	
