#======================================================================

# CRYSTAL DATA

#----------------------------------------------------------------------

data_VESTA_phase_1


_pd_phase_name                         GeFSIX_13_Fe_i
_cell_length_a                         15.45912
_cell_length_b                         15.45772
_cell_length_c                         7.83009
_cell_angle_alpha                      89.88245
_cell_angle_beta                       89.96449
_cell_angle_gamma                      89.88511
_symmetry_space_group_name_H-M         P 1
_symmetry_Int_Tables_number            1

loop_
_symmetry_equiv_pos_as_xyz
   x, y, z

loop_
   _atom_site_label
   _atom_site_fract_x
   _atom_site_fract_y
   _atom_site_fract_z
   _atom_site_charge
C	0.5396792699861721 0.6872114333156613 0.8700726385553910	0.110524
C	0.5435235797257607 0.7772194720576053 0.8686109636762299	-0.149272
C	0.4637094472612245 0.3157284518769949 0.8768687048045164	0.110044
C	0.4598755844132491 0.2258210044199413 0.8771735767523378	-0.140673
C	0.8147563978226301 0.9732565782723356 0.3648255287973640	0.109759
C	0.7249736916399189 0.9705068548648178 0.3605213853909627	-0.137681
C	0.3148066921873048 0.5415702319691781 0.8672355237541114	0.109909
C	0.2248488075075780 0.5455261203906673 0.8654929075149500	-0.148710
C	0.1876108506175844 0.9709230428800338 0.3547032069284478	0.105012
C	0.2775116906239588 0.9697657203758463 0.3519996608748993	-0.140421
C	0.6864185923824976 0.4626322411830798 0.8833886473894653	0.107827
C	0.7762811097645376 0.4601039061076745 0.8816089623599878	-0.136688
C	0.4546576621932063 0.6874806923277589 0.1151518594845306	0.110226
C	0.4517331323607779 0.7773767907792026 0.1176717366044180	-0.136999
C	0.5400610920360079 0.3169994226890476 0.1328350926390999	0.109498
C	0.5425427303209780 0.2270142159730127 0.1380236765030484	-0.148606
C	0.1852913355386087 0.0201519346397683 0.6349381056500039	0.109057
C	0.2750157561323626 0.0222422674827919 0.6422607846463286	-0.139140
C	0.6848430658369732 0.5430136856588459 0.1343371552381337	0.110066
C	0.7748582752465522 0.5469447611413095 0.1371149120447397	-0.148525
C	0.8142702789342822 0.0295873860193030 0.6398159324660294	0.104146
C	0.7244112406702901 0.0304752366455484 0.6452025428250542	-0.139882
C	0.3143342404054589 0.4586756576112744 0.1155691048620212	0.108390
C	0.2244067926172493 0.4559519022872662 0.1180087815036468	-0.137055
C	0.9653600882126173 0.8124802633007715 0.6349439038247753	0.107586
C	0.9644808134269542 0.7225760599144744 0.6416582838458114	-0.137450
C	0.9834073871144312 0.1840416395216921 0.6415905126532434	0.105883
C	0.9796980450009969 0.2737691736504724 0.6447918060940282	-0.140983
C	0.0211203276096671 0.8116283737018433 0.3592451762465508	0.104683
C	0.0240698543786177 0.7218818195295585 0.3564633378670972	-0.140098
C	0.0315277544387665 0.1836794593445369 0.3602565444515479	0.110162
C	0.0312003842221894 0.2735586699064739 0.3534853625198684	-0.141604
C	0.0039366524545014 0.3194636328098699 0.4979574431093507	0.041659
C	0.0010587644105255 0.4142379700658900 0.4976328050188229	0.253078
C	0.4980618546687255 0.8232029059887833 0.9934929492601284	0.055863
C	0.4990721643764477 0.9186406783212510 0.9979967691331162	0.247678
C	0.9951977027582555 0.6763218281090783 0.5002765322554049	0.037116
C	0.9971791586151885 0.5814299125130011 0.5003555172220490	0.247787
C	0.5009777711957192 0.1804788819449706 0.0090612945713986	0.056963
C	0.5003655920885900 0.0849526953362514 0.0095917828390298	0.249508
C	0.6788576825411442 -0.0001361823200539 0.5031967813013491	0.036816
C	0.5840040294589712 0.9978490320884652 0.5041331830483210	0.247027
C	0.1787310944493031 0.5012341151651032 0.9919592702799619	0.054499
C	0.0832452652207052 0.5022167896783480 0.9946279170963465	0.248200
C	0.3220820263136742 0.9960848666784663 0.4984663929522340	0.039777
C	0.4168782324062616 0.9961494389545704 0.5016875755137844	0.254669
C	0.8214963957092611 0.5037996485267789 0.0098909941600495	0.053979
C	0.9169998962316661 0.5036249079998953 0.0073158171422376	0.249452
H	0.5704945014890582 0.6489332317499583 0.7698335106612713	0.102065
H	0.5803527244058501 0.8105464939729489 0.7698178627286036	0.124417
H	0.4363535854417377 0.3534205351454440 0.7716819963427829	0.102723
H	0.4280993226645528 0.1911289108290566 0.7739039395247472	0.118283
H	0.8527251444456336 0.9520344322335210 0.2551957179611424	0.099526
H	0.6916438742471823 0.9465983571147845 0.2477222947264284	0.118196
H	0.3531447098870488 0.5714278831071649 0.7657711421392757	0.103139
H	0.1916240686516341 0.5815042877169762 0.7653129540589284	0.124322
H	0.1509884906122006 0.9528161850812167 0.2413829354609905	0.095749
H	0.3117655596278133 0.9502182991649297 0.2367690235260303	0.114165
H	0.6486898143483134 0.4332046733241100 0.7809760341509987	0.102945
H	0.8110563730670954 0.4272894186985234 0.7794542397853995	0.116629
H	0.4235321871742407 0.6492182849520336 0.2151066821967306	0.103017
H	0.4172484380662890 0.8115780708037567 0.2183209101937808	0.115771
H	0.5679872053362282 0.3556197334734258 0.2356977712700188	0.102716
H	0.5750823861578507 0.1941041571145625 0.2431345481496445	0.123269
H	0.1466654779739132 0.0388994946626130 0.7453538211822989	0.098499
H	0.3074604851595152 0.0426812829429320 0.7586590130568778	0.117931
H	0.6461425209715645 0.5720639648929450 0.2361419067178022	0.103273
H	0.8076271451518762 0.5817338612919986 0.2390829208999249	0.123897
H	0.8516476494629370 0.0505535410346766 0.7501774254546366	0.095830
H	0.6908305261677634 0.0531664324906123 0.7589124444388122	0.119089
H	0.3524803050607759 0.4283277796455269 0.2167151642266044	0.102464
H	0.1899828689647237 0.4222022931244505 0.2194630626270659	0.115897
H	0.9438268997530243 0.8506655825182077 0.7440018727539170	0.101692
H	0.9416819749397093 0.6895042307864917 0.7559847051172313	0.117289
H	0.9668349422926682 0.1466823066592548 0.7550463236285954	0.093141
H	0.9593104272475174 0.3073403718747984 0.7601078463553252	0.118230
H	0.0411008102108146 0.8487961167345660 0.2476680127862740	0.094480
H	0.0477202497966526 0.6881893290624789 0.2437763741207213	0.117449
H	0.0506925131006563 0.1457148799041550 0.2492089390735251	0.100554
H	0.0501054924387141 0.3069124633408721 0.2366994760372479	0.117843
N	0.9445748574679788 0.5388769831112846 0.6098859885268438	-0.143604
N	0.4225367446819234 0.0453280147879971 0.0083214222282959	-0.148958
N	0.5420598697235164 0.0499958079107897 0.6153355150435437	-0.143046
N	0.9568330631005896 0.4257573547963414 0.0024564128993448	-0.147575
N	0.0512794651523983 0.5421084976434257 0.3887329433277721	-0.141280
N	0.5775064228272507 0.0437580888356427 0.0113107022720235	-0.146901
N	0.9578425067437820 0.5807761442948095 0.0050986573099517	-0.148489
N	0.5442239239199484 0.9429036156155196 0.3954548583620765	-0.140628
N	0.0536785035375377 0.4568229990740609 0.3884244474403556	-0.136163
N	0.5768841620969632 0.9582671904356271 0.0009592127350771	-0.147417
N	0.4588846205848915 0.9420101979617089 0.3945528441405477	-0.135837
N	0.0433244666744370 0.5800344361476155 0.9944004066093228	-0.144730
N	0.9460837087245673 0.4534932836572710 0.6073387466954134	-0.136920
N	0.4219575676004751 0.9597172497805414 0.0058591773759925	-0.143691
N	0.0424319857077508 0.4250348411990855 0.9992453446795319	-0.146622
N	0.4567237061630402 0.0491897014405134 0.6136720460286961	-0.139993
N	0.0076721711950237 0.1395733492404999 0.5014796978002511	-0.232883
N	0.4970330338470290 0.6431377030198390 0.9926457728317428	-0.248831
N	0.9933622279653794 0.8563757666966387 0.4964730941119367	-0.232256
N	0.5022175250688879 0.3606056549360993 0.0033634758121802	-0.252620
N	0.8587870264458154 0.0019068772410088 0.5021504207020849	-0.233745
N	0.3586876348297540 0.4999684714538782 0.9914947584171527	-0.250003
N	0.1421742205500502 0.9949872031820748 0.4938422648980583	-0.232036
N	0.6414490140440267 0.5023217611614286 0.0086646855171309	-0.249126
Fe	0.0004615881739816 0.9979671023734632 0.4982963547466142	0.764570
Fe	0.5002621540172300 0.5015252033121036 0.9990363355477335	0.811151
Ge	0.9997489645312514 0.9971608695507705 0.9985211259392187	1.758676
Ge	0.4995261979564448 0.5034303102556470 0.4988242298324457	1.781458
F	0.9983669575887766 0.0006051431239117 0.2398992993830348	-0.490313
F	0.5054989998468553 0.4995078173836320 0.7378946769740791	-0.494409
F	0.0014417771020076 0.9941288039052339 0.7568716122157919	-0.491337
F	0.4936858512991205 0.5067946877564271 0.2597014711022977	-0.494020
F	0.0831222445279887 0.0792887042867605 0.9956083560006034	-0.526796
F	0.5805709087910412 0.5885117682327111 0.4954986353289748	-0.541432
F	0.9165318560291582 0.9150680876643624 0.0015478868323563	-0.526276
F	0.4186273538483878 0.4184499064828481 0.5025236925132556	-0.543798
F	0.9178230009524226 0.0808540198768001 0.9900852207146532	-0.523783
F	0.4148260778082467 0.5847255787238426 0.5107597051204940	-0.541484
F	0.0820847599462290 0.9138971511086353 0.0068664222784089	-0.523745
F	0.5848840560839313 0.4227112231906915 0.4863116816788765	-0.542648
	  	
