#======================================================================

# CRYSTAL DATA

#----------------------------------------------------------------------

data_VESTA_phase_1


_pd_phase_name                         GeFSIX_18_Cu
_cell_length_a                         13.78998
_cell_length_b                         13.47526
_cell_length_c                         8.42448
_cell_angle_alpha                      90
_cell_angle_beta                       94.89942
_cell_angle_gamma                      90
_symmetry_space_group_name_H-M         P 1
_symmetry_Int_Tables_number            1

loop_
_symmetry_equiv_pos_as_xyz
   x, y, z

loop_
   _atom_site_label
   _atom_site_fract_x
   _atom_site_fract_y
   _atom_site_fract_z
   _atom_site_charge
F	0.4089251454667718 0.3669745223429580 0.5144919559786408	-0.545699
F	0.5246031459053915 0.4693690874302054 0.7191183731981615	-0.531651
F	0.4058959663453380 0.5589221744281987 0.5165592924271047	-0.515262
F	0.9089251794667673 0.8669744533429562 0.5144919559786408	-0.545685
F	0.0246031719053865 0.9693690524302060 0.7191183731981615	-0.531647
F	0.9058960003453407 0.0589221404282029 0.5165592924271047	-0.515260
F	0.5910748175332288 0.3669745223429579 0.4855080440213591	-0.545699
F	0.4753968510946118 0.4693690874302054 0.2808816268018384	-0.531651
F	0.5941040296546618 0.5589221744281987 0.4834407085728990	-0.515262
F	0.0910748385332270 0.8669744533429562 0.4855080440213591	-0.545685
F	0.9753967160946113 0.9693690524302060 0.2808816268018384	-0.531647
F	0.0941040046546631 0.0589221404282029 0.4834407085728990	-0.515260
C	0.6845837932012896 0.1529548600435395 0.6630637395416022	-0.426921
C	0.7576837691785836 0.1500790735706642 0.8037223935822897	0.214396
C	0.7599093161443721 0.1960931787499659 0.9533657622548873	-0.147813
C	0.6868863495008045 0.2616507408990990 0.0122811399215323	-0.145333
C	0.6721262598092456 0.3628481495660745 0.9715704193990574	0.224614
C	0.7305485200191517 0.4244594613971150 0.8683223196620827	-0.433631
C	0.8922106958836273 0.2044202323582872 0.1932331936806441	-0.438455
C	0.8506815193431376 0.1700552049355304 0.0338094490699689	0.217532
C	0.6202535785578482 0.2402512484087831 0.1244317961366220	0.219904
C	0.5990571105282687 0.1478422353229450 0.2119263014489054	-0.428815
C	0.1845838432012865 0.6529549120435365 0.6630637395416022	-0.426915
C	0.2576838031785866 0.6500790565706591 0.8037223935822897	0.214367
C	0.2599092821443692 0.6960931447499631 0.9533657622548872	-0.147809
C	0.1868863495008046 0.7616507578990968 0.0122811399215323	-0.145333
C	0.1721262428092406 0.8628481835660773 0.9715704193990574	0.224647
C	0.2305485360191460 0.9244594263971156 0.8683223196620827	-0.433635
C	0.3922105948836227 0.7044201463582871 0.1932331936806441	-0.438454
C	0.3506815873431366 0.6700552049355304 0.0338094490699689	0.217523
C	0.1202535535578501 0.7402511624087834 0.1244317961366220	0.219907
C	0.0990571945282686 0.6478423043229474 0.2119263014489054	-0.428817
C	0.3154162037987141 0.1529548600435395 0.3369362614584018	-0.426922
C	0.2423162238214121 0.1500790735706643 0.1962775264177105	0.214396
C	0.2400907128556269 0.1960931787499659 0.0466342137451178	-0.147815
C	0.3131136464991950 0.2616507408990990 0.9877188510784705	-0.145332
C	0.3278738061907602 0.3628481495660745 0.0284296316009434	0.224647
C	0.2694514949808528 0.4244594613971150 0.1316776963379190	-0.433634
C	0.1077893871163755 0.2044202323582872 0.8067668543193601	-0.438456
C	0.1493184596568640 0.1700552049355304 0.9661905389300303	0.217532
C	0.3797464524421504 0.2402512484087831 0.8755682278633733	0.219906
C	0.4009428154717321 0.1478422353229450 0.7880736195510987	-0.428814
C	0.8154162037987137 0.6529549120435365 0.3369362614584018	-0.426915
C	0.7423162238214123 0.6500790565706591 0.1962775264177105	0.214367
C	0.7400906788556311 0.6960931447499631 0.0466342137451178	-0.147808
C	0.8131136464991952 0.7616507578990968 0.9877188510784705	-0.145333
C	0.8278737391907579 0.8628481835660773 0.0284296316009434	0.224614
C	0.7694514779808481 0.9244594263971156 0.1316776963379190	-0.433631
C	0.6077893031163761 0.7044201463582871 0.8067668543193601	-0.438455
C	0.6493184766568620 0.6700552049355304 0.9661905389300303	0.217523
C	0.8797464184421480 0.7402511624087834 0.8755682278633733	0.219903
C	0.9009428824717343 0.6478423043229474 0.7880736195510987	-0.428813
H	0.7191922559240548 0.1740793682150950 0.5552654952109036	0.155417
H	0.6276948437800536 0.2076270864554019 0.6806837133082245	0.144606
H	0.6505654728919059 0.0797215968879269 0.6414086083359491	0.136372
H	0.6844866233791527 0.4672172437313297 0.7808946521856264	0.150956
H	0.7781633984360600 0.3764464339562520 0.8041723354787444	0.140197
H	0.7765401033053431 0.4764603096015180 0.9420433305317291	0.127293
H	0.8693662334611808 0.0675377372712942 0.7033382719905968	0.282216
H	0.8987196891916229 0.1445852612223521 0.2818191850197800	0.151980
H	0.8453329760455524 0.2624080664554752 0.2369340066995875	0.138381
H	0.9653280807168547 0.2355046836303240 0.1856179186081577	0.142681
H	0.5746185607729992 0.1655428741284539 0.3292651819120573	0.149619
H	0.6636637347446683 0.1004986748129596 0.2288817450014409	0.152571
H	0.5410813482094349 0.1045599493002003 0.1457839022801801	0.133576
H	0.5236568131795329 0.3425059153086473 0.2262419167869338	0.277643
H	0.2191923069240552 0.6740792652150971 0.5552654952109036	0.155417
H	0.1276949277800534 0.7076270174553998 0.6806837133082245	0.144605
H	0.1505655228919027 0.5797215368879222 0.6414086083359491	0.136373
H	0.1844866403791505 0.9672171757313245 0.7808946521856264	0.150955
H	0.2781634324360625 0.8764464679562550 0.8041723354787444	0.140197
H	0.2765401363053422 0.9764603096015180 0.9420433305317291	0.127293
H	0.3693661994611845 0.5675377802712940 0.7033382719905967	0.282226
H	0.3987197561916254 0.6445852272223486 0.2818191850197800	0.151979
H	0.3453329080455536 0.7624081014554742 0.2369340066995875	0.138381
H	0.4653281477168497 0.7355047346303180 0.1856179186081577	0.142682
H	0.0746185527729984 0.6655428911284514 0.3292651819120573	0.149620
H	0.1636637007446657 0.6004986318129599 0.2288817450014409	0.152571
H	0.0410813842094380 0.6045598973002032 0.1457839022801801	0.133575
H	0.0236567981795354 0.8425059153086478 0.2262419167869338	0.277642
H	0.2808076750759503 0.1740793682150950 0.4447345367890916	0.155418
H	0.3723050552199415 0.2076270864554019 0.3193163516917771	0.144602
H	0.3494344561080989 0.0797215968879269 0.3585913916640510	0.136375
H	0.3155133716208504 0.4672172437313297 0.2191053158143782	0.150954
H	0.2218365965639364 0.3764464339562520 0.1958276325212531	0.140199
H	0.2234598926946638 0.4764603096015180 0.0579566424682723	0.127291
H	0.1306337675388162 0.0675377372712942 0.2966616330093990	0.282216
H	0.1012802338083739 0.1445852612223521 0.7181808469802231	0.151980
H	0.1546670879544462 0.2624080664554752 0.7630659933004124	0.138382
H	0.0346718482831499 0.2355046836303240 0.8143821133918374	0.142684
H	0.4253814692270037 0.1655428741284539 0.6707348180879429	0.149616
H	0.3363363272553366 0.1004986748129596 0.7711182069985552	0.152570
H	0.4589186167905656 0.1045599493002003 0.8542161377198231	0.133570
H	0.4763431478204672 0.3425059153086473 0.7737580362130660	0.277641
H	0.7808077420759451 0.6740792652150971 0.4447345367890916	0.155417
H	0.8723051562199464 0.7076270174553998 0.3193163516917771	0.144601
H	0.8494344561080989 0.5797215368879222 0.3585913916640510	0.136375
H	0.8155133716208505 0.9672171757313245 0.2191053158143782	0.150954
H	0.7218365965639361 0.8764464679562550 0.1958276325212531	0.140199
H	0.7234598926946637 0.9764603096015180 0.0579566424682723	0.127290
H	0.6306337585388185 0.5675377802712940 0.2966616330093990	0.282226
H	0.6012803428083726 0.6445852272223486 0.7181808469802231	0.151979
H	0.6546670209544438 0.7624081014554742 0.7630659933004124	0.138383
H	0.5346718842831459 0.7355047346303180 0.8143821133918374	0.142684
H	0.9253814022270013 0.6655428911284514 0.6707348180879430	0.149616
H	0.8363362602553348 0.6004986318129599 0.7711182069985552	0.152570
H	0.9589186167905658 0.6045598973002032 0.8542161377198231	0.133569
H	0.9763431138204717 0.8425059153086478 0.7737580362130660	0.277641
N	0.8414146302691228 0.0986455199100174 0.8021924224398471	-0.145576
N	0.5997184414137100 0.3996291921050168 0.0518531856023848	-0.242229
N	0.8990365416577540 0.1102067145529144 0.9395348683781534	-0.243208
N	0.5701360952906146 0.3244868764966902 0.1426369431787033	-0.147398
N	0.3414146302691228 0.5986454429100214 0.8021924224398471	-0.145575
N	0.0997185084137119 0.8996291921050165 0.0518531856023848	-0.242239
N	0.3990365756577568 0.6102067655529150 0.9395348683781533	-0.243189
N	0.0701360872906138 0.8244868414966909 0.1426369431787033	-0.147403
N	0.1585853517308757 0.0986455199100174 0.1978076255601500	-0.145575
N	0.4002814525862886 0.3996291921050168 0.9481467903976135	-0.242235
N	0.1009634283422434 0.1102067145529144 0.0604651116218448	-0.243207
N	0.4298639017093891 0.3244868764966902 0.8573630728212980	-0.147403
N	0.6585853687308736 0.5986454429100214 0.1978076255601500	-0.145576
N	0.9002815535862931 0.8996291921050165 0.9481467903976135	-0.242232
N	0.6009634533422491 0.6102067655529150 0.0604651116218448	-0.243188
N	0.9298639357093844 0.8244868414966909 0.8573630728212980	-0.147397
Ge	0.4999999979999998 0.4631678390660091 0.5000000000000000	1.737354
Ge	0.0000000000000000 0.9631678390660088 0.5000000000000000	1.737315
Cu	0.5000000000000000 0.5083849869435263 0.0000000000000000	0.726711
Cu	0.0000000000000000 0.0083849939435305 0.0000000000000000	0.726716
	  	
