#======================================================================

# CRYSTAL DATA

#----------------------------------------------------------------------

data_VESTA_phase_1


_pd_phase_name                         GeFSIX_16_Fe_i
_cell_length_a                         25.22416
_cell_length_b                         25.22416
_cell_length_c                         7.70370
_cell_angle_alpha                      90
_cell_angle_beta                       90
_cell_angle_gamma                      90
_symmetry_space_group_name_H-M         P 1
_symmetry_Int_Tables_number            1

loop_
_symmetry_equiv_pos_as_xyz
   x, y, z

loop_
   _atom_site_label
   _atom_site_fract_x
   _atom_site_fract_y
   _atom_site_fract_z
   _atom_site_charge
C	0.4778818989066025 0.3860979656743445 0.3680468325783666	0.100337
C	0.4769547860778797 0.3310745745782031 0.3630114224069098	-0.170423
C	0.9551094662389936 0.6127684892870306 0.9436084832730557	-0.126711
C	0.9552387632579853 0.5577069316308255 0.9442608219586880	-0.124450
C	0.5221181390933936 0.6139020723256520 0.3680468325783666	0.100337
C	0.5230452139221203 0.6689254634217930 0.3630114224069098	-0.170423
C	0.0448904577610069 0.3872314717129694 0.9436084832730557	-0.126723
C	0.0447612557420127 0.4422931063691775 0.9442608219586880	-0.124528
C	0.6139020723256520 0.4778818989066025 0.3680468325783666	0.100337
C	0.6689254634217930 0.4769547860778797 0.3630114224069098	-0.170423
C	0.3872314717129694 0.9551094662389936 0.9436084832730557	-0.126765
C	0.4422931063691775 0.9552387632579853 0.9442608219586880	-0.124512
C	0.3860979656743445 0.5221181390933936 0.3680468325783666	0.100337
C	0.3310745745782031 0.5230452139221203 0.3630114224069098	-0.170423
C	0.6127684892870306 0.0448904577610069 0.9436084832730557	-0.126693
C	0.5577069316308255 0.0447612557420127 0.9442608219586880	-0.124469
C	0.5221181390933936 0.3860979656743445 0.6319531674216333	0.100337
C	0.5230452139221203 0.3310745745782031 0.6369885455930876	-0.170422
C	0.0448904577610069 0.6127684892870306 0.0563915287269455	-0.126693
C	0.0447612557420127 0.5577069316308255 0.0557391540413100	-0.124470
C	0.4778818989066025 0.6139020723256520 0.6319531674216333	0.100337
C	0.4769547860778797 0.6689254634217930 0.6369885455930876	-0.170422
C	0.9551094662389936 0.3872314717129694 0.0563915287269455	-0.126765
C	0.9552387632579853 0.4422931063691775 0.0557391540413100	-0.124513
C	0.3860979656743445 0.4778818989066025 0.6319531674216333	0.100337
C	0.3310745745782031 0.4769547860778797 0.6369885455930876	-0.170422
C	0.6127684892870306 0.9551094662389936 0.0563915287269455	-0.126711
C	0.5577069316308255 0.9552387632579853 0.0557391540413100	-0.124450
C	0.6139020723256520 0.5221181390933936 0.6319531674216333	0.100337
C	0.6689254634217930 0.5230452139221203 0.6369885455930876	-0.170422
C	0.3872314717129694 0.0448904577610069 0.0563915287269455	-0.126723
C	0.4422931063691775 0.0447612557420127 0.0557391540413100	-0.124528
C	0.5448904957610103 0.8872314337129736 0.5563915487269399	-0.126733
C	0.5447612367420147 0.9422931063691776 0.5557391460413094	-0.124527
C	0.0221180930933968 0.1139020153256576 0.1319531674216335	0.100337
C	0.0230452119221202 0.1689254254217970 0.1369885615930888	-0.170423
C	0.4551095422389931 0.1127685372870277 0.5563915487269399	-0.126733
C	0.4552387252579892 0.0577068786308246 0.5557391460413094	-0.124526
C	0.9778818609066064 0.8860979276743480 0.1319531674216335	0.100337
C	0.9769547860778797 0.8310745745782030 0.1369885615930888	-0.170423
C	0.1127685372870277 0.5448904957610103 0.5563915487269399	-0.126733
C	0.0577068786308246 0.5447612367420147 0.5557391460413094	-0.124527
C	0.8860979276743480 0.0221180930933968 0.1319531674216335	0.100337
C	0.8310745745782030 0.0230452119221202 0.1369885615930888	-0.170423
C	0.8872314337129736 0.4551095422389931 0.5563915487269399	-0.126733
C	0.9422931063691776 0.4552387252579892 0.5557391460413094	-0.124526
C	0.1139020153256576 0.9778818609066064 0.1319531674216335	0.100337
C	0.1689254254217970 0.9769547860778797 0.1369885615930888	-0.170423
C	0.4551095422389931 0.8872314337129736 0.4436084832730555	-0.126733
C	0.4552387252579892 0.9422931063691776 0.4442608539586906	-0.124526
C	0.9778818609066064 0.1139020153256576 0.8680468645783622	0.100337
C	0.9769547860778797 0.1689254254217970 0.8630114224069098	-0.170422
C	0.5448904957610103 0.1127685372870277 0.4436084832730555	-0.126733
C	0.5447612367420147 0.0577068786308246 0.4442608539586906	-0.124527
C	0.0221180930933968 0.8860979276743480 0.8680468645783622	0.100337
C	0.0230452119221202 0.8310745745782030 0.8630114224069098	-0.170422
C	0.8872314337129736 0.5448904957610103 0.4436084832730555	-0.126733
C	0.9422931063691776 0.5447612367420147 0.4442608539586906	-0.124527
C	0.1139020153256576 0.0221180930933968 0.8680468645783622	0.100337
C	0.1689254254217970 0.0230452119221202 0.8630114224069098	-0.170422
C	0.1127685372870277 0.4551095422389931 0.4436084832730555	-0.126733
C	0.0577068786308246 0.4552387252579892 0.4442608539586906	-0.124526
C	0.8860979276743480 0.9778818609066064 0.8680468645783622	0.100337
C	0.8310745745782030 0.9769547860778797 0.8630114224069098	-0.170422
C	0.5000000000000000 0.3021601709349618 0.5000000000000000	0.170399
C	0.5000000000000000 0.2458886393937450 0.5000000000000000	-0.116176
C	0.5000000000000000 0.1975119170884433 0.5000000000000000	-0.096148
C	0.5000000000000000 0.1412793080624651 0.5000000000000000	0.125141
C	0.5000000000000000 0.0291987784489640 0.5000000000000000	0.068734
C	0.0000000000000000 0.8021601519349567 0.0000000000000000	0.170401
C	0.0000000000000000 0.7458886193937438 0.0000000000000000	-0.116180
C	0.0000000000000000 0.6975118790884474 0.0000000000000000	-0.096133
C	0.0000000000000000 0.6412792700624619 0.0000000000000000	0.125011
C	0.0000000000000000 0.5291987924489654 0.0000000000000000	0.068708
C	0.5000000000000000 0.6978398100650401 0.5000000000000000	0.170400
C	0.5000000000000000 0.7541114186062522 0.5000000000000000	-0.116175
C	0.5000000000000000 0.8024880829115566 0.5000000000000000	-0.096149
C	0.5000000000000000 0.8587206919375350 0.5000000000000000	0.125141
C	0.5000000000000000 0.9708012075510346 0.5000000000000000	0.068734
C	0.0000000000000000 0.1978398290650380 0.0000000000000000	0.170400
C	0.0000000000000000 0.2541113606062551 0.0000000000000000	-0.116180
C	0.0000000000000000 0.3024880629115548 0.0000000000000000	-0.096137
C	0.0000000000000000 0.3587206919375348 0.0000000000000000	0.125096
C	0.0000000000000000 0.4708012455510379 0.0000000000000000	0.068731
C	0.6978398100650401 0.5000000000000000 0.5000000000000000	0.170400
C	0.7541114186062522 0.5000000000000000 0.5000000000000000	-0.116175
C	0.8024880829115566 0.5000000000000000 0.5000000000000000	-0.096149
C	0.8587206919375350 0.5000000000000000 0.5000000000000000	0.125141
C	0.9708012075510346 0.5000000000000000 0.5000000000000000	0.068733
C	0.1978398290650380 0.0000000000000000 0.0000000000000000	0.170400
C	0.2541113606062551 0.0000000000000000 0.0000000000000000	-0.116180
C	0.3024880629115548 0.0000000000000000 0.0000000000000000	-0.096137
C	0.3587206919375348 0.0000000000000000 0.0000000000000000	0.125096
C	0.4708012455510379 0.0000000000000000 0.0000000000000000	0.068730
C	0.3021601709349618 0.5000000000000000 0.5000000000000000	0.170399
C	0.2458886393937450 0.5000000000000000 0.5000000000000000	-0.116176
C	0.1975119170884433 0.5000000000000000 0.5000000000000000	-0.096148
C	0.1412793080624651 0.5000000000000000 0.5000000000000000	0.125141
C	0.0291987784489640 0.5000000000000000 0.5000000000000000	0.068735
C	0.8021601519349567 0.0000000000000000 0.0000000000000000	0.170401
C	0.7458886193937438 0.0000000000000000 0.0000000000000000	-0.116180
C	0.6975118790884474 0.0000000000000000 0.0000000000000000	-0.096133
C	0.6412792700624619 0.0000000000000000 0.0000000000000000	0.125011
C	0.5291987924489654 0.0000000000000000 0.0000000000000000	0.068709
H	0.4609908133870773 0.4093967494163566 0.2622738381045561	0.098134
H	0.4587802025963655 0.3107187485269929 0.2535819559248950	0.124410
H	0.9204167909049309 0.6344710896688153 0.8981552730430430	0.111172
H	0.9205468370080970 0.5364124028988404 0.8964865021273092	0.105847
H	0.5390091866129224 0.5906032505836436 0.2622738381045561	0.098134
H	0.5412198354036375 0.6892813274730063 0.2535819559248950	0.124410
H	0.0795831900950711 0.3655289103311843 0.8981552730430430	0.111177
H	0.0794531919919019 0.4635876361011594 0.8964865021273092	0.105857
H	0.5906032505836436 0.4609908133870773 0.2622738381045561	0.098134
H	0.6892813274730063 0.4587802025963655 0.2535819559248950	0.124410
H	0.3655289103311843 0.9204167909049309 0.8981552730430430	0.111233
H	0.4635876361011594 0.9205468370080970 0.8964865021273092	0.105856
H	0.4093967494163566 0.5390091866129224 0.2622738381045561	0.098134
H	0.3107187485269929 0.5412198354036375 0.2535819559248950	0.124410
H	0.6344710896688153 0.0795831900950711 0.8981552730430430	0.111154
H	0.5364124028988404 0.0794531919919019 0.8964865021273092	0.105848
H	0.5390091866129224 0.4093967494163566 0.7377261458954427	0.098134
H	0.5412198354036375 0.3107187485269929 0.7464180440751051	0.124410
H	0.0795831900950711 0.6344710896688153 0.1018447029569550	0.111154
H	0.0794531919919019 0.5364124028988404 0.1035134978726906	0.105848
H	0.4609908133870773 0.5906032505836436 0.7377261458954427	0.098134
H	0.4587802025963655 0.6892813274730063 0.7464180440751051	0.124410
H	0.9204167909049309 0.3655289103311843 0.1018447029569550	0.111233
H	0.9205468370080970 0.4635876361011594 0.1035134978726906	0.105856
H	0.4093967494163566 0.4609908133870773 0.7377261458954427	0.098134
H	0.3107187485269929 0.4587802025963655 0.7464180440751051	0.124410
H	0.6344710896688153 0.9204167909049309 0.1018447029569550	0.111172
H	0.5364124028988404 0.9205468370080970 0.1035134978726906	0.105847
H	0.5906032505836436 0.5390091866129224 0.7377261458954427	0.098134
H	0.6892813274730063 0.5412198354036375 0.7464180440751051	0.124410
H	0.3655289103311843 0.0795831900950711 0.1018447029569550	0.111177
H	0.4635876361011594 0.0794531919919019 0.1035134978726906	0.105857
H	0.5795832090950691 0.8655289103311847 0.6018446949569544	0.111177
H	0.5794531629919030 0.9635876361011593 0.6035135298726935	0.105857
H	0.0390091966129234 0.0906032215836447 0.2377261618954439	0.098134
H	0.0412198404036344 0.1892812704730052 0.2464180760751006	0.124410
H	0.4204168289049339 0.1344711186688144 0.6018446949569544	0.111177
H	0.4205467980080971 0.0364123878988353 0.6035135298726935	0.105858
H	0.9609908133870776 0.9093968264163521 0.2377261618954439	0.098134
H	0.9587801645963625 0.8107187865269960 0.2464180760751006	0.124410
H	0.1344711186688144 0.5795832090950691 0.6018446949569544	0.111177
H	0.0364123878988353 0.5794531629919030 0.6035135298726935	0.105857
H	0.9093968264163521 0.0390091966129234 0.2377261618954439	0.098134
H	0.8107187865269960 0.0412198404036344 0.2464180760751006	0.124410
H	0.8655289103311847 0.4204168289049339 0.6018446949569544	0.111177
H	0.9635876361011593 0.4205467980080971 0.6035135298726935	0.105858
H	0.0906032215836447 0.9609908133870776 0.2377261618954439	0.098134
H	0.1892812704730052 0.9587801645963625 0.2464180760751006	0.124410
H	0.4204168289049339 0.8655289103311847 0.3981552730430432	0.111177
H	0.4205467980080971 0.9635876361011593 0.3964865341273049	0.105857
H	0.9609908133870776 0.0906032215836447 0.7622738221045546	0.098134
H	0.9587801645963625 0.1892812704730052 0.7535819239248993	0.124409
H	0.5795832090950691 0.1344711186688144 0.3981552730430432	0.111177
H	0.5794531629919030 0.0364123878988353 0.3964865341273049	0.105856
H	0.0390091966129234 0.9093968264163521 0.7622738221045546	0.098134
H	0.0412198404036344 0.8107187865269960 0.7535819239248993	0.124410
H	0.8655289103311847 0.5795832090950691 0.3981552730430432	0.111177
H	0.9635876361011593 0.5794531629919030 0.3964865341273049	0.105856
H	0.0906032215836447 0.0390091966129234 0.7622738221045546	0.098134
H	0.1892812704730052 0.0412198404036344 0.7535819239248993	0.124409
H	0.1344711186688144 0.4204168289049339 0.3981552730430432	0.111177
H	0.0364123878988353 0.4205467980080971 0.3964865341273049	0.105857
H	0.9093968264163521 0.9609908133870776 0.7622738221045546	0.098134
H	0.8107187865269960 0.9587801645963625 0.7535819239248993	0.124410
Fe	0.5000000000000000 0.5000000000000000 0.5000000000000000	0.789792
Fe	0.0000000000000000 0.0000000000000000 0.0000000000000000	0.789792
Ge	0.5000000000000000 0.5000000000000000 0.0000000000000000	1.775362
Ge	0.0000000000000000 0.0000000000000000 0.5000000000000000	1.775362
F	0.5000000000000000 0.5000000000000000 0.2419708265940615	-0.482765
F	0.0000000000000000 0.0000000000000000 0.7419707945940658	-0.482765
F	0.5000000000000000 0.5000000000000000 0.7580291094059405	-0.482765
F	0.0000000000000000 0.0000000000000000 0.2580291734059385	-0.482765
F	0.5508553449554229 0.5508553449554229 0.0000000000000000	-0.540989
F	0.0508552979554224 0.0508552979554224 0.5000000000000000	-0.540989
F	0.4491447310445836 0.4491447310445836 0.0000000000000000	-0.540989
F	0.9491446930445803 0.9491446930445803 0.5000000000000000	-0.540989
F	0.4491447310445836 0.5508553449554229 0.0000000000000000	-0.540989
F	0.9491446930445803 0.0508552979554224 0.5000000000000000	-0.540989
F	0.5508553449554229 0.4491447310445836 0.0000000000000000	-0.540989
F	0.0508552979554224 0.9491446930445803 0.5000000000000000	-0.540989
N	0.5000000000000000 0.4133857769351398 0.5000000000000000	-0.247334
N	0.0000000000000000 0.9133858149351433 0.0000000000000000	-0.247334
N	0.5000000000000000 0.5866142230648599 0.5000000000000000	-0.247334
N	0.0000000000000000 0.0866142320648573 0.0000000000000000	-0.247335
N	0.5866142230648599 0.5000000000000000 0.5000000000000000	-0.247334
N	0.0866142320648573 0.0000000000000000 0.0000000000000000	-0.247335
N	0.4133857769351398 0.5000000000000000 0.5000000000000000	-0.247335
N	0.9133858149351433 0.0000000000000000 0.0000000000000000	-0.247335
	  	
