#======================================================================

# CRYSTAL DATA

#----------------------------------------------------------------------

data_VESTA_phase_1


_pd_phase_name                         GeFSIX_2_Co
_cell_length_a                         13.57558
_cell_length_b                         13.57558
_cell_length_c                         8.01070
_cell_angle_alpha                      90
_cell_angle_beta                       90
_cell_angle_gamma                      90
_symmetry_space_group_name_H-M         P 1
_symmetry_Int_Tables_number            1

loop_
_symmetry_equiv_pos_as_xyz
   x, y, z

loop_
   _atom_site_label
   _atom_site_fract_x
   _atom_site_fract_y
   _atom_site_fract_z
   _atom_site_charge
C	0.5313252031468213 0.6950865903605341 0.1353936891060576	0.090817
C	0.5319199624950890 0.7971322164465189 0.1402661139535417	-0.163322
C	0.4686748668531776 0.3049134096394660 0.1353936891060576	0.090814
C	0.4680800025049121 0.2028677655534794 0.1402661139535417	-0.163319
C	0.3049134096394660 0.5313252031468213 0.1353936891060576	0.090817
C	0.2028677655534794 0.5319199624950890 0.1402661139535417	-0.163322
C	0.6950865903605341 0.4686748668531776 0.1353936891060576	0.090814
C	0.7971322164465189 0.4680800025049121 0.1402661139535417	-0.163319
C	0.4686748668531776 0.6950865903605341 0.8646063108939426	0.090817
C	0.4680800025049121 0.7971322164465189 0.8597338560464556	-0.163321
C	0.5313252031468213 0.3049134096394660 0.8646063108939425	0.090815
C	0.5319199624950890 0.2028677655534794 0.8597338560464556	-0.163318
C	0.6950865903605341 0.5313252031468213 0.8646063108939426	0.090815
C	0.7971322164465189 0.5319199624950890 0.8597338560464556	-0.163318
C	0.3049134096394660 0.4686748668531776 0.8646063108939425	0.090817
C	0.2028677655534794 0.4680800025049121 0.8597338560464556	-0.163321
C	0.5000000000000000 0.1490255715525558 0.0000000000000000	0.167851
C	0.5000000000000000 0.0449107668159413 0.0000000000000000	-0.093119
C	0.5000000000000000 0.8509744284474444 0.0000000000000000	0.167820
C	0.5000000000000000 0.9550891761840645 0.0000000000000000	-0.092866
C	0.8509744284474444 0.5000000000000000 0.0000000000000000	0.167851
C	0.9550891761840645 0.5000000000000000 0.0000000000000000	-0.093119
C	0.1490255715525558 0.5000000000000000 0.0000000000000000	0.167820
C	0.0449107668159413 0.5000000000000000 0.0000000000000000	-0.092865
H	0.5556311363297405 0.6521293585074279 0.2427070108668091	0.104359
H	0.5575937193191214 0.8346449913990762 0.2521171097129992	0.131172
H	0.4443688636702595 0.3478705714925737 0.2427070108668091	0.104359
H	0.4424063156808780 0.1653549386009248 0.2521171097129992	0.131173
H	0.3478705714925737 0.5556311363297405 0.2427070108668091	0.104359
H	0.1653549386009248 0.5575937193191214 0.2521171097129992	0.131172
H	0.6521293585074279 0.4443688636702595 0.2427070108668091	0.104359
H	0.8346449913990762 0.4424063156808780 0.2521171097129992	0.131173
H	0.4443688636702595 0.6521293585074279 0.7572929891331911	0.104359
H	0.4424063156808780 0.8346449913990762 0.7478829202870031	0.131170
H	0.5556311363297405 0.3478705714925737 0.7572929891331911	0.104359
H	0.5575937193191214 0.1653549386009248 0.7478829202870031	0.131171
H	0.6521293585074279 0.5556311363297405 0.7572929891331911	0.104359
H	0.8346449913990762 0.5575937193191214 0.7478829202870031	0.131171
H	0.3478705714925737 0.4443688636702595 0.7572929891331911	0.104359
H	0.1653549386009248 0.4424063156808780 0.7478829202870031	0.131170
Co	0.5000000000000000 0.5000000000000000 0.0000000000000000	0.580510
Ge	0.5000000000000000 0.5000000000000000 0.5000000000000000	1.750103
F	0.5000000000000000 0.5000000000000000 0.7310750393975509	-0.507827
F	0.5000000000000000 0.5000000000000000 0.2689249906024447	-0.507827
F	0.5951262788459869 0.5951262788459869 0.5000000000000000	-0.543726
F	0.4048737561540124 0.5951262788459869 0.5000000000000000	-0.543726
F	0.4048737561540124 0.4048737561540124 0.5000000000000000	-0.543726
F	0.5951262788459869 0.4048737561540124 0.5000000000000000	-0.543726
N	0.5000000000000000 0.3556843044684772 0.0000000000000000	-0.185910
N	0.5000000000000000 0.6443156605315231 0.0000000000000000	-0.185910
N	0.6443156605315231 0.5000000000000000 0.0000000000000000	-0.185911
N	0.3556843044684772 0.5000000000000000 0.0000000000000000	-0.185910
	  	
