#======================================================================

# CRYSTAL DATA

#----------------------------------------------------------------------

data_VESTA_phase_1


_pd_phase_name                         GeFSIX_14_Zn_i
_cell_length_a                         13.37683
_cell_length_b                         13.35522
_cell_length_c                         7.94619
_cell_angle_alpha                      87.75056
_cell_angle_beta                       87.67442
_cell_angle_gamma                      89.23003
_symmetry_space_group_name_H-M         P 1
_symmetry_Int_Tables_number            1

loop_
_symmetry_equiv_pos_as_xyz
   x, y, z

loop_
   _atom_site_label
   _atom_site_fract_x
   _atom_site_fract_y
   _atom_site_fract_z
   _atom_site_charge
C	0.5700629770871967 0.2681549121227682 0.3653469608801618	-0.179986
C	0.4661432681364308 0.2718531958683618 0.3699176221401182	0.110237
C	0.9356632401388445 0.2879779349645248 0.4187453381110317	-0.169707
C	0.0393433705878047 0.2804768115179407 0.4043823318318485	0.112124
C	0.2666138871237781 0.5698324506719123 0.3672624582884776	-0.182336
C	0.2702231756997783 0.4657237645636810 0.3721712926490935	0.112966
C	0.2952183779790512 0.9359026130729851 0.4138970440230539	-0.171617
C	0.2867174608735173 0.0396793968190920 0.4007323869956840	0.111349
C	0.9300110590211224 0.2342832387156259 0.1326490550122570	-0.181935
C	0.0339357561452067 0.2308892187725470 0.1275808529414687	0.111492
C	0.5644287147636974 0.2074812005643173 0.0836106028371097	-0.169451
C	0.4607611447277513 0.2156160306563793 0.0970601296090052	0.113306
C	0.2086913218273075 0.5639424982214448 0.0839509998866462	-0.170600
C	0.2168083380288523 0.4601766259725923 0.0977903641149837	0.109485
C	0.2308220232775327 0.9300071235679732 0.1349847290956317	-0.181725
C	0.2271289825645118 0.0341121173790175 0.1303500692005911	0.112802
C	0.4303833473520431 0.7363356054383304 0.6324277021680527	-0.180260
C	0.5342791391006879 0.7339056329705890 0.6269380917321062	0.113193
C	0.0642973296207319 0.7284093044550719 0.5727048342367939	-0.162862
C	0.9605349642881609 0.7319517281425542 0.5893729700284756	0.112698
C	0.7364979171134092 0.4302833593620217 0.6323621563145769	-0.179352
C	0.7344867150851579 0.5343486420335904 0.6270395232203999	0.113254
C	0.7156678755546597 0.0638001599825442 0.5776732860006337	-0.162506
C	0.7212006892803350 0.9598741370256191 0.5926690585636751	0.111448
C	0.0700302345649847 0.7613559589403265 0.8689712387695803	-0.180521
C	0.9661314292507477 0.7629655847171664 0.8749247353043276	0.113579
C	0.4361108294664042 0.7776738296313768 0.9251521700181378	-0.162321
C	0.5398869451170396 0.7732353047222722 0.9090787671307534	0.112475
C	0.7783589556398512 0.4358109703169225 0.9247816081521651	-0.164729
C	0.7737759720263454 0.5397348516764123 0.9091634615012049	0.112462
C	0.7660869124393568 0.0694151633164257 0.8656765831186355	-0.178995
C	0.7688616608346103 0.9653763807368068 0.8705761200026010	0.113585
C	0.6205024184424303 0.2357645072513325 0.2184633627486009	0.188390
C	0.8795983457296382 0.2629020342878494 0.2819105864289166	0.189785
C	0.2356210601406165 0.6201612676578298 0.2196364480128683	0.190471
C	0.2652265111336904 0.8796434955732267 0.2802703970042845	0.189730
C	0.3799901134929634 0.7582837414516820 0.7855086069742171	0.188425
C	0.1203822534670813 0.7439668997485906 0.7139839554528064	0.188994
C	0.7585451820531629 0.3797417594974410 0.7850848418766467	0.188213
C	0.7394074456638708 0.1199433030435033 0.7153036228829699	0.187898
H	0.6110974023032215 0.2857327295660069 0.4756331495803511	0.109072
H	0.4240576568532416 0.2940689428378797 0.4831992443597652	0.099232
H	0.8990930975313572 0.3125547982982707 0.5349489222364602	0.124195
H	0.0852648299237615 0.2980068057233639 0.5093399844257231	0.098597
H	0.2831798934293921 0.6113146119564962 0.4777121751843724	0.111721
H	0.2912424059391394 0.4236713023426538 0.4860640491338064	0.097715
H	0.3242046589391251 0.8992314293730951 0.5267457659578290	0.124882
H	0.3074168723338961 0.0857186620987765 0.5038624115885527	0.099641
H	0.8888488318481625 0.2194050478193348 0.0211594790721189	0.109161
H	0.0759925575359679 0.2114481164176061 0.0126857179068813	0.097755
H	0.6011079703174892 0.1797919269614912 0.9696793636862894	0.124669
H	0.4148484125627659 0.1959718977762804 0.9932486168187215	0.098999
H	0.1824442418360249 0.6004819489984045 0.9689231149033829	0.124469
H	0.1981650479453476 0.4141656043257797 0.9934016185250121	0.099235
H	0.2117390020306098 0.8886260685179145 0.0257975673889343	0.111397
H	0.2036424403228154 0.0761722116105023 0.0180345072546686	0.098288
H	0.3898099437691618 0.7241423715530132 0.5191124821619262	0.104932
H	0.5764839267882350 0.7181622681198618 0.5104345143198851	0.097716
H	0.1009212355894774 0.7141219636249529 0.4513117251366360	0.123027
H	0.9147868713001230 0.7204056428392750 0.4817954381371156	0.097662
H	0.7246966432107798 0.3895252353074973 0.5189914943864028	0.105773
H	0.7190287208413952 0.5766954064663981 0.5106033479152998	0.097814
H	0.6933305216804824 0.1006762720218680 0.4605733240943478	0.123010
H	0.7040109054766595 0.9140819240423187 0.4873970821898460	0.098291
H	0.1107107774926215 0.7706373188305844 0.9832305019042297	0.103726
H	0.9240152787022060 0.7751694119474155 0.9928950937665204	0.096988
H	0.3994208347499660 0.7957243760981103 0.0448092942081063	0.122952
H	0.5856261089098951 0.7875008400483022 0.0156223326908574	0.097951
H	0.7968037140904078 0.3989948225651120 0.0440833895831264	0.123973
H	0.7882866520695686 0.5855073255480868 0.0157313303236396	0.097425
H	0.7809974853550291 0.1101177654835961 0.9778080789579093	0.105845
H	0.7878067683635352 0.9230360123260321 0.9853312172628478	0.098604
N	0.7743735710752839 0.2747959739314000 0.2994018818052626	-0.101486
N	0.2786401881845574 0.7742918591571570 0.2951386888359985	-0.105159
N	0.7257386589312361 0.2233050137610824 0.2013040385271621	-0.104369
N	0.2226603499449397 0.7254681816751291 0.2044390238431913	-0.102364
N	0.2255490003160417 0.7376882313121763 0.6885288000342530	-0.099645
N	0.7305597384764455 0.2252996397160181 0.6926207094822135	-0.100805
N	0.2747974803025796 0.7652047225235163 0.8106689153958707	-0.099536
N	0.7666845218048316 0.2744228716497746 0.8081016382139435	-0.099911
N	0.4123354867689231 0.2470227055027118 0.2378924809203722	-0.224547
N	0.0877926157808808 0.2526306773420838 0.2612587691289361	-0.224335
N	0.2466941202681721 0.4117125592602258 0.2395623973177194	-0.223011
N	0.2535814521925821 0.0880989281842534 0.2612297727547904	-0.223740
N	0.5882717432649531 0.7515917228828978 0.7626865656724378	-0.221605
N	0.9121023206444717 0.7488280018122543 0.7377796193026710	-0.220940
N	0.7523519123777220 0.5883118445090596 0.7628827533215061	-0.220892
N	0.7473529568996728 0.9113907123782293 0.7365250855282711	-0.221318
F	0.3454225836393148 0.1508045135743892 0.7502188080996176	-0.538327
F	0.1554592986756950 0.3486099549664245 0.7496358692903861	-0.538139
F	0.3477670209713251 0.3433249054371624 0.7365258183152968	-0.541774
F	0.1527549666479431 0.1561632767683927 0.7634430410150959	-0.541464
F	0.6517988154685047 0.8456729863105577 0.2510955730291557	-0.535344
F	0.8480293239121230 0.6544227869386187 0.2489112445437001	-0.536024
F	0.6559537533966007 0.6532730712722603 0.2606447782670806	-0.538726
F	0.8442424793657434 0.8467388389699994 0.2392966177154959	-0.538288
F	0.2516093233294705 0.2505132114732559 0.5134096267580299	-0.511886
F	0.2492200388631423 0.2486584807749557 0.9864565967506624	-0.511998
F	0.7481888054861400 0.7477901592822361 0.4864759703874848	-0.509410
F	0.7518344816743476 0.7525976912083087 0.0134971862862113	-0.509521
Ge	0.2504108156298189 0.2495935217941302 0.7499809428155502	1.764870
Ge	0.7499544986092820 0.7501468864184269 0.2499646722791044	1.760682
Zn	0.2501067279910460 0.2499648842386431 0.2502080954669080	0.733751
Zn	0.7502422212239915 0.7498076130973328 0.7499409385734632	0.731086
	  	
