#======================================================================

# CRYSTAL DATA

#----------------------------------------------------------------------

data_VESTA_phase_1


_pd_phase_name                         GeFSIX_2_Cu
_cell_length_a                         13.71755
_cell_length_b                         13.71755
_cell_length_c                         8.02380
_cell_angle_alpha                      90
_cell_angle_beta                       90
_cell_angle_gamma                      90
_symmetry_space_group_name_H-M         P 1
_symmetry_Int_Tables_number            1

loop_
_symmetry_equiv_pos_as_xyz
   x, y, z

loop_
   _atom_site_label
   _atom_site_fract_x
   _atom_site_fract_y
   _atom_site_fract_z
   _atom_site_charge
C	0.5311437127416954 0.6984226066358016 0.1351338462786146	0.100714
C	0.5320654693931312 0.7994882644586044 0.1401389168939464	-0.163042
C	0.4688563572583033 0.3015773933641985 0.1351338462786146	0.100717
C	0.4679344956068693 0.2005117175413941 0.1401389168939464	-0.163061
C	0.3015773933641985 0.5311437127416954 0.1351338462786146	0.100714
C	0.2005117175413941 0.5320654693931312 0.1401389168939464	-0.163042
C	0.6984226066358016 0.4688563572583033 0.1351338462786146	0.100717
C	0.7994882644586044 0.4679344956068693 0.1401389168939464	-0.163061
C	0.4688563572583033 0.6984226066358016 0.8648661537213852	0.100720
C	0.4679344956068693 0.7994882644586044 0.8598610531060511	-0.163063
C	0.5311437127416954 0.3015773933641985 0.8648661537213852	0.100711
C	0.5320654693931312 0.2005117175413941 0.8598610531060511	-0.163039
C	0.6984226066358016 0.5311437127416954 0.8648661537213852	0.100712
C	0.7994882644586044 0.5320654693931312 0.8598610531060511	-0.163039
C	0.3015773933641985 0.4688563572583033 0.8648661537213852	0.100720
C	0.2005117175413941 0.4679344956068693 0.8598610531060511	-0.163062
C	0.5000000000000000 0.1476573623797760 0.0000000000000000	0.169978
C	0.5000000000000000 0.0444491290771040 0.0000000000000000	-0.092409
C	0.5000000000000000 0.8523426376202239 0.0000000000000000	0.169947
C	0.5000000000000000 0.9555508139229021 0.0000000000000000	-0.092160
C	0.8523426376202239 0.5000000000000000 0.0000000000000000	0.169978
C	0.9555508139229021 0.5000000000000000 0.0000000000000000	-0.092410
C	0.1476573623797760 0.5000000000000000 0.0000000000000000	0.169947
C	0.0444491290771040 0.5000000000000000 0.0000000000000000	-0.092160
H	0.5549418024297734 0.6556173589088324 0.2422025202104862	0.104888
H	0.5577833527115676 0.8365340169148673 0.2517209510492163	0.130928
H	0.4450581975702265 0.3443825710911686 0.2422025202104862	0.104886
H	0.4422166822884317 0.1634659130851341 0.2517209510492163	0.130949
H	0.3443825710911686 0.5549418024297734 0.2422025202104862	0.104888
H	0.1634659130851341 0.5577833527115676 0.2517209510492163	0.130928
H	0.6556173589088324 0.4450581975702265 0.2422025202104862	0.104886
H	0.8365340169148673 0.4422166822884317 0.2517209510492163	0.130949
H	0.4450581975702265 0.6556173589088324 0.7577974797895140	0.104886
H	0.4422166822884317 0.8365340169148673 0.7482790789507863	0.130947
H	0.5549418024297734 0.3443825710911686 0.7577974797895140	0.104888
H	0.5577833527115676 0.1634659130851341 0.7482790789507863	0.130928
H	0.6556173589088324 0.5549418024297734 0.7577974797895140	0.104888
H	0.8365340169148673 0.5577833527115676 0.7482790789507863	0.130928
H	0.3443825710911686 0.4450581975702265 0.7577974797895140	0.104886
H	0.1634659130851341 0.4422166822884317 0.7482790789507863	0.130947
Cu	0.5000000000000000 0.5000000000000000 0.0000000000000000	0.714778
Ge	0.5000000000000000 0.5000000000000000 0.5000000000000000	1.775367
F	0.5000000000000000 0.5000000000000000 0.7293406546422471	-0.536229
F	0.5000000000000000 0.5000000000000000 0.2706593753577484	-0.536229
F	0.5944036340653406 0.5944036340653406 0.5000000000000000	-0.554540
F	0.4055964009346589 0.5944036340653406 0.5000000000000000	-0.554540
F	0.4055964009346589 0.4055964009346589 0.5000000000000000	-0.554540
F	0.5944036340653406 0.4055964009346589 0.5000000000000000	-0.554540
N	0.5000000000000000 0.3511456435992178 0.0000000000000000	-0.224540
N	0.5000000000000000 0.6488543214007828 0.0000000000000000	-0.224539
N	0.6488543214007828 0.5000000000000000 0.0000000000000000	-0.224540
N	0.3511456435992178 0.5000000000000000 0.0000000000000000	-0.224540
	  	
