#======================================================================

# CRYSTAL DATA

#----------------------------------------------------------------------

data_VESTA_phase_1


_pd_phase_name                         GeFSIX_18_Zn
_cell_length_a                         14.08504
_cell_length_b                         13.76497
_cell_length_c                         8.19599
_cell_angle_alpha                      90
_cell_angle_beta                       95.09222
_cell_angle_gamma                      90
_symmetry_space_group_name_H-M         P 1
_symmetry_Int_Tables_number            1

loop_
_symmetry_equiv_pos_as_xyz
   x, y, z

loop_
   _atom_site_label
   _atom_site_fract_x
   _atom_site_fract_y
   _atom_site_fract_z
   _atom_site_charge
F	0.4109164789528547 0.3738482402142514 0.5086694252201920	-0.539900
F	0.5209935212799807 0.4748289837022419 0.7284554016825232	-0.518292
F	0.4074507977740779 0.5607148056809260 0.5117248022540511	-0.508477
F	0.9109165129528500 0.8738481712142490 0.5086694252201920	-0.539911
F	0.0209935472799757 0.9748289487022428 0.7284554016825232	-0.518292
F	0.9074508317740807 0.0607147716809301 0.5117248022540511	-0.508479
F	0.5890834840471462 0.3738482402142514 0.4913305747798079	-0.539911
F	0.4790064757200226 0.4748289837022419 0.2715445983174839	-0.518293
F	0.5925491982259218 0.5607148056809260 0.4882751987459524	-0.508478
F	0.0890835050471439 0.8738481712142490 0.4913305747798079	-0.539900
F	0.9790063407200221 0.9748289487022428 0.2715445983174839	-0.518294
F	0.0925491732259232 0.0607147716809301 0.4882751987459524	-0.508476
C	0.6830762886937948 0.1514861042933809 0.6591184758364100	-0.426422
C	0.7556058860858946 0.1493091736040479 0.8023865492722049	0.212772
C	0.7592334627811957 0.1962350374464049 0.9545213952022276	-0.152495
C	0.6877751245799624 0.2606985180931694 0.0139820767324049	-0.145394
C	0.6739791140321632 0.3601093151518519 0.9738619104562067	0.222090
C	0.7309592647147187 0.4215299758056589 0.8690277237180938	-0.427598
C	0.8911347074529079 0.2077740528580971 0.1979865320639533	-0.435805
C	0.8488873823866101 0.1719273400125807 0.0360204066619237	0.218443
C	0.6208817667926250 0.2390137444735073 0.1254792332227769	0.211090
C	0.5986230022525596 0.1473846700369176 0.2107825996714323	-0.427402
C	0.1830763386937918 0.6514861562933779 0.6591184758364100	-0.426423
C	0.2556059200858970 0.6493091566040435 0.8023865492722049	0.212772
C	0.2592334287811929 0.6962350034464023 0.9545213952022276	-0.152495
C	0.1877751245799623 0.7606985350931673 0.0139820767324049	-0.145394
C	0.1739790970321582 0.8601093491518547 0.9738619104562067	0.222090
C	0.2309592807147198 0.9215299408056596 0.8690277237180938	-0.427598
C	0.3911346064529033 0.7077739668580971 0.1979865320639533	-0.435806
C	0.3488874503866092 0.6719273400125804 0.0360204066619237	0.218443
C	0.1208817417926264 0.7390136584735072 0.1254792332227769	0.211089
C	0.0986230862525595 0.6473847390369197 0.2107825996714323	-0.427403
C	0.3169237083062086 0.1514861042933809 0.3408815251635933	-0.426422
C	0.2443941069141014 0.1493091736040479 0.1976133707277954	0.212772
C	0.2407665662188031 0.1962350374464049 0.0454785807977774	-0.152500
C	0.3122248714200373 0.2606985180931694 0.9860179142675980	-0.145393
C	0.3260209519678424 0.3601093151518519 0.0261381405437944	0.222089
C	0.2690407502852865 0.4215299758056589 0.1309722922819078	-0.427590
C	0.1088653755470952 0.2077740528580971 0.8020135159360509	-0.435816
C	0.1511125966133913 0.1719273400125807 0.9639795813380754	0.218470
C	0.3791182642073741 0.2390137444735073 0.8745207907772181	0.211088
C	0.4013769237474412 0.1473846700369176 0.7892173213285715	-0.427399
C	0.8169237083062085 0.6514861562933779 0.3408815251635933	-0.426421
C	0.7443941069141012 0.6493091566040435 0.1976133707277954	0.212772
C	0.7407665322188074 0.6962350034464023 0.0454785807977774	-0.152500
C	0.8122248714200373 0.7606985350931673 0.9860179142675980	-0.145393
C	0.8260208849678403 0.8601093491518547 0.0261381405437944	0.222089
C	0.7690407332852811 0.9215299408056596 0.1309722922819078	-0.427590
C	0.6088652915470956 0.7077739668580971 0.8020135159360509	-0.435817
C	0.6511126136133896 0.6719273400125804 0.9639795813380754	0.218470
C	0.8791182302073712 0.7390136584735072 0.8745207907772181	0.211088
C	0.9013769907474434 0.6473847390369197 0.7892173213285715	-0.427399
H	0.7158384972509541 0.1727047028318771 0.5477234934256684	0.153299
H	0.6273638917239570 0.2046416324617205 0.6789692222414405	0.142482
H	0.6499305041374804 0.0797658645874803 0.6364575439578732	0.134999
H	0.6851196572381594 0.4631419008326701 0.7794354683433186	0.146498
H	0.7783685475367289 0.3755559058719545 0.8029730473946884	0.137808
H	0.7751523972956423 0.4729516621692798 0.9455666741720793	0.126816
H	0.8644916310113570 0.0675312406019512 0.7003166746884931	0.279341
H	0.8984409765989703 0.1502792624988722 0.2909693978903631	0.151825
H	0.8455200435621463 0.2650921286155969 0.2419930763222350	0.135429
H	0.9625209641509533 0.2381007299410821 0.1873112543225616	0.139764
H	0.5741469282951853 0.1628602027659093 0.3314966442047402	0.146299
H	0.6617017376093967 0.1005681205374171 0.2268377725024125	0.150503
H	0.5417727122435544 0.1063211710658439 0.1401697975729294	0.132396
H	0.5249956994688665 0.3377294804362335 0.2279285823679011	0.276273
H	0.2158385482509549 0.6727045998318794 0.5477234934256684	0.153302
H	0.1273639757239568 0.7046415634617184 0.6789692222414405	0.142480
H	0.1499305541374771 0.5797658045874750 0.6364575439578732	0.134999
H	0.1851196742381568 0.9631418328326644 0.7794354683433186	0.146498
H	0.2783685815367320 0.8755559398719571 0.8029730473946884	0.137808
H	0.2751524302956412 0.9729516621692799 0.9455666741720793	0.126815
H	0.3644915970113612 0.5675312836019510 0.7003166746884931	0.279341
H	0.3984410435989724 0.6502792284988693 0.2909693978903631	0.151825
H	0.3455199755621477 0.7650921636155960 0.2419930763222350	0.135429
H	0.4625210311509479 0.7381007809410752 0.1873112543225616	0.139766
H	0.0741469202951916 0.6628602197659074 0.3314966442047402	0.146298
H	0.1617017036093939 0.6005680775374170 0.2268377725024125	0.150503
H	0.0417727482435575 0.6063211190658465 0.1401697975729294	0.132396
H	0.0249956844688687 0.8377294804362333 0.2279285823679011	0.276273
H	0.2841614337490507 0.1727047028318771 0.4522765385743265	0.153302
H	0.3726360072760386 0.2046416324617205 0.3210308427585613	0.142475
H	0.3500694248625176 0.0797658645874803 0.3635424560421272	0.134999
H	0.3148803377618442 0.4631419008326701 0.2205644996566861	0.146492
H	0.2216314474632669 0.3755559058719545 0.1970269206053086	0.137808
H	0.2248475987043648 0.4729516621692798 0.0544332988279219	0.126812
H	0.1355083699886397 0.0675312406019512 0.2996832303114957	0.279341
H	0.1015589464010268 0.1502792624988722 0.7090306341096393	0.151818
H	0.1544800204378521 0.2650921286155969 0.7580069236777648	0.135423
H	0.0374789648490517 0.2381007299410821 0.8126887776774340	0.139775
H	0.4258531017048102 0.1628602027659093 0.6685033557952601	0.146293
H	0.3382983243906084 0.1005681205374171 0.7731621794975835	0.150501
H	0.4582272527564461 0.1063211710658439 0.8598302424270736	0.132388
H	0.4750042615311339 0.3377294804362335 0.7720713706320984	0.276271
H	0.7841615007490458 0.6727045998318794 0.4522765385743265	0.153298
H	0.8726361082760430 0.7046415634617184 0.3210308427585613	0.142476
H	0.8500694248625172 0.5797658045874750 0.3635424560421272	0.135001
H	0.8148803377618438 0.9631418328326644 0.2205644996566861	0.146492
H	0.7216314474632671 0.8755559398719571 0.1970269206053086	0.137808
H	0.7248475987043644 0.9729516621692799 0.0544332988279219	0.126812
H	0.6355083609886424 0.5675312836019510 0.2996832303114957	0.279341
H	0.6015590554010253 0.6502792284988693 0.7090306341096393	0.151818
H	0.6544799534378499 0.7650921636155960 0.7580069236777648	0.135423
H	0.5374790008490473 0.7381007809410752 0.8126887776774340	0.139776
H	0.9258530347048081 0.6628602197659074 0.6685033557952601	0.146294
H	0.8382982573906065 0.6005680775374170 0.7731621794975835	0.150501
H	0.9582272527564463 0.6063211190658465 0.8598302424270736	0.132387
H	0.9750042275311381 0.8377294804362333 0.7720713706320984	0.276270
N	0.8376285395692158 0.0990611765324948 0.8008716118762600	-0.147281
N	0.6024157352027930 0.3959249590430153 0.0542643629159342	-0.248377
N	0.8954969386283822 0.1121921026373681 0.9402837807306180	-0.247265
N	0.5720151836455354 0.3216634324495575 0.1442925375640246	-0.145987
N	0.3376285395692161 0.5990610995324988 0.8008716118762600	-0.147282
N	0.1024158022027950 0.8959249590430156 0.0542643629159342	-0.248378
N	0.3954969726283918 0.6121921536373687 0.9402837807306180	-0.247265
N	0.0720151756455351 0.8216633974495580 0.1442925375640246	-0.145986
N	0.1623714424307825 0.0990611765324948 0.1991284361237370	-0.147281
N	0.3975841587972053 0.3959249590430153 0.9457356130840635	-0.248377
N	0.1045030313716084 0.1121921026373681 0.0597161992693805	-0.247269
N	0.4279848133544676 0.3216634324495575 0.8557074784359765	-0.145985
N	0.6623714594307806 0.5990610995324988 0.1991284361237370	-0.147281
N	0.8975842597972101 0.8959249590430156 0.9457356130840635	-0.248376
N	0.6045030563716209 0.6121921536373687 0.0597161992693805	-0.247269
N	0.9279848473544636 0.8216633974495580 0.8557074784359765	-0.145986
Ge	0.4999999979999998 0.4681048505328004 0.5000000000000000	1.737380
Ge	-0.0000000000000000 0.9681048505328002 0.5000000000000000	1.737380
Zn	0.5000000000000000 0.5087240479605148 0.0000000000000000	0.767789
Zn	-0.0000000000000000 0.0087240549605190 0.0000000000000000	0.767789
	  	
