#======================================================================

# CRYSTAL DATA

#----------------------------------------------------------------------

data_VESTA_phase_1


_pd_phase_name                         GeFSIX_14_Cd_i
_cell_length_a                         13.71576
_cell_length_b                         13.70646
_cell_length_c                         8.15979
_cell_angle_alpha                      89.61583
_cell_angle_beta                       89.50381
_cell_angle_gamma                      90.07973
_symmetry_space_group_name_H-M         P 1
_symmetry_Int_Tables_number            1

loop_
_symmetry_equiv_pos_as_xyz
   x, y, z

loop_
   _atom_site_label
   _atom_site_fract_x
   _atom_site_fract_y
   _atom_site_fract_z
   _atom_site_charge
C	0.5764906472975782 0.2636000844334151 0.3624513221342580	-0.181256
C	0.4753157202045469 0.2670961157512897 0.3650607388134764	0.108297
C	0.9334623803838231 0.2855161907056080 0.4202782014357312	-0.168642
C	0.0343722016304308 0.2782364601344298 0.4075452572601271	0.115977
C	0.2622803670767987 0.5766364983236071 0.3645257198957847	-0.183060
C	0.2657473020605138 0.4753637492496503 0.3675907590550733	0.110929
C	0.2931917885330018 0.9336052809962253 0.4162633236775593	-0.169352
C	0.2848249149891244 0.0345206191845198 0.4047952291470829	0.114110
C	0.9235097609724322 0.2384001008043964 0.1357228345445486	-0.182929
C	0.0246995360326659 0.2351593149148013 0.1326084882839828	0.110056
C	0.5666251141119638 0.2096790016626656 0.0814414289486019	-0.167559
C	0.4657110699469366 0.2175188615385604 0.0933398504264103	0.113594
C	0.2110564354780747 0.5663259517950547 0.0822383199886160	-0.170900
C	0.2190099082909093 0.4654316262174971 0.0945268021777348	0.113718
C	0.2356659058675136 0.9234050274600792 0.1375619069978239	-0.182616
C	0.2320217400760100 0.0246679743775984 0.1350350294372487	0.109169
C	0.4239322698353317 0.7391985995586450 0.6371979535395540	-0.181343
C	0.5251019380496158 0.7370616970887213 0.6336219443803208	0.109011
C	0.0664975340670587 0.7296243797277178 0.5722640170130656	-0.162994
C	0.9654571042693262 0.7335984591196257 0.5866659953089152	0.115606
C	0.7393675551250453 0.4236083767602933 0.6367982658867014	-0.181751
C	0.7370796167294044 0.5248571883018633 0.6334834000386370	0.109987
C	0.7182313907105082 0.0661559752266456 0.5762916849882762	-0.164490
C	0.7244838728142297 0.9651222421876378 0.5889788031761600	0.115347
C	0.0762950633625863 0.7586388433409906 0.8638398034334054	-0.181040
C	0.9751065346964909 0.7600489538516078 0.8677488998398594	0.108871
C	0.4338361010578328 0.7758851791760434 0.9261750204282214	-0.161197
C	0.5348738827301975 0.7710929154326921 0.9122333868625305	0.116008
C	0.7763989211252615 0.4335573029077165 0.9255876342046691	-0.164938
C	0.7709866817711603 0.5345954224901870 0.9120923925888396	0.114603
C	0.7628378713994459 0.0760347155569628 0.8618904998024606	-0.179480
C	0.7657831895454317 0.9748113678373205 0.8646287098382266	0.109499
C	0.6231807953532987 0.2349502246481670 0.2166912416483649	0.190194
C	0.8768939077862734 0.2634040332921642 0.2834710185192288	0.191231
C	0.2350308182105910 0.6230758176018616 0.2180923848127255	0.191135
C	0.2662539089499736 0.8768780005662349 0.2819859593417888	0.189806
C	0.3772520191116818 0.7588733409725501 0.7873885990467173	0.187887
C	0.1230173501129267 0.7431628595982496 0.7122373559898262	0.189411
C	0.7591843196719995 0.3769679534496955 0.7867001840131768	0.190857
C	0.7388708813200056 0.1227346518604654 0.7138157278456503	0.187382
H	0.6181609539105664 0.2788464261804881 0.4723074151478995	0.105713
H	0.4350958766906544 0.2863615284757953 0.4761461611759042	0.104282
H	0.8990748423245805 0.3073574517298322 0.5348296088582252	0.125612
H	0.0808157953033443 0.2929285825303191 0.5125482706098134	0.100984
H	0.2761889858696884 0.6188386439347433 0.4744586000075736	0.108353
H	0.2838484155361524 0.4353377424968002 0.4792982591062424	0.103110
H	0.3195122900299969 0.8992751907420338 0.5279181894223454	0.125930
H	0.3028029441722698 0.0810847306606613 0.5083356975348079	0.101105
H	0.8816799971219421 0.2258861481648632 0.0250027781393767	0.105714
H	0.0648803730759156 0.2185289731632636 0.0202304989046405	0.102904
H	0.6010800464880519 0.1848654159237108 0.9687201184771274	0.125683
H	0.4193121458698131 0.2005341934281397 0.9892610412882428	0.101739
H	0.1873973102804167 0.6005521587173203 0.9687608259057812	0.126480
H	0.2031640094395669 0.4188220967893229 0.9900740906332813	0.101746
H	0.2192325942109793 0.8814118271117747 0.0284681072021208	0.108570
H	0.2114607081882731 0.0647738044036028 0.0246685892906086	0.103461
H	0.3826002177234132 0.7286618884840887 0.5252636992485906	0.101825
H	0.5653514429112353 0.7238043617145168 0.5200851342074471	0.103814
H	0.1009315530074136 0.7167552700671105 0.4538618927588131	0.124688
H	0.9191492664961715 0.7246314660971231 0.4798000598225798	0.100396
H	0.7294845024326582 0.3820030904110981 0.5248491129781684	0.102475
H	0.7239491703727364 0.5651280541848495 0.5200679499505165	0.104203
H	0.6979556954592375 0.1007092647293100 0.4612407655125624	0.125430
H	0.7104027095715240 0.9187720384133975 0.4835917018625706	0.100145
H	0.1177123705323206 0.7666548814574891 0.9763384144802751	0.101580
H	0.9348423720806277 0.7700886971945433 0.9822650697068458	0.103579
H	0.3994090015621384 0.7921830720663485 0.0433252006211491	0.124428
H	0.5811995517131903 0.7827126597494343 0.0183581519529929	0.100758
H	0.7932891729504116 0.3990777597607488 0.0423006333256692	0.125361
H	0.7824160113776255 0.5810032206961628 0.0183152507162514	0.100558
H	0.7754451028084522 0.1174804557837682 0.9731359789605918	0.103128
H	0.7819760101155540 0.9344695767514081 0.9767786101110587	0.103774
N	0.7745322972329370 0.2729964540690762 0.3014535771091285	-0.100422
N	0.2770886573625965 0.7744301329381729 0.2978511034589534	-0.101170
N	0.7255806067840082 0.2250024907066691 0.1989811660824508	-0.103220
N	0.2244910270726364 0.7254781962352629 0.2019416795007024	-0.102332
N	0.2253899105597177 0.7368115443928819 0.6895765604965048	-0.099729
N	0.7302126939164908 0.2251612910368301 0.6934463832782664	-0.100058
N	0.2748471671947114 0.7657691916330068 0.8099091585681669	-0.100056
N	0.7673483753698256 0.2745762499621399 0.8073431357766896	-0.100093
N	0.4211008022033801 0.2457172885532066 0.2328243361168078	-0.232838
N	0.0789377596473599 0.2535101345698780 0.2661005770915107	-0.234081
N	0.2457700689810257 0.4209783370503623 0.2348637105344483	-0.234445
N	0.2548545613045065 0.0790206306212156 0.2664329708363813	-0.233112
N	0.5794102366522642 0.7521526736413180 0.7683700460047702	-0.232868
N	0.9208711389428108 0.7483046038162784 0.7319643713299948	-0.232440
N	0.7519130776975386 0.5791596017103093 0.7684112832455424	-0.233464
N	0.7476884926787566 0.9205439539931504 0.7308257143020417	-0.232667
F	0.3429991949739233 0.1536152955332172 0.7503368025306788	-0.550901
F	0.1578828669389101 0.3454675394895454 0.7497965294604785	-0.551946
F	0.3433238756211111 0.3396324371124206 0.7932698165909335	-0.557094
F	0.1572168058032386 0.1598847270205434 0.7064144888301853	-0.557198
F	0.6541212494775837 0.8434881416038795 0.2516435009147545	-0.548345
F	0.8450928374613008 0.6579689471919867 0.2484112058972815	-0.549821
F	0.6595172890404961 0.6584516477693158 0.2019544127356016	-0.551872
F	0.8395993668041568 0.8431066506251503 0.2973983135313514	-0.551944
F	0.2718066209820947 0.2694744496767982 0.5245348861900214	-0.525334
F	0.2293384886670517 0.2294469042009262 0.9753245716442566	-0.525454
F	0.7284519527148607 0.7280592707625445 0.4745527955286776	-0.524009
F	0.7706542360878159 0.7730758000877521 0.0250111241143380	-0.524163
Ge	0.2504657746522455 0.2495674668764226 0.7499469482997232	1.775929
Ge	0.7495905595835217 0.7506716602489598 0.2498124423568114	1.770139
Cd	0.2499443471382241 0.2500370864199858 0.2500008957366829	0.820223
Cd	0.7501982270679800 0.7497974153332624 0.7498231392144150	0.818115
	  	
