#======================================================================

# CRYSTAL DATA

#----------------------------------------------------------------------

data_VESTA_phase_1


_pd_phase_name                         GeFSIX_13_Cu_i
_cell_length_a                         15.16377
_cell_length_b                         15.16148
_cell_length_c                         7.98292
_cell_angle_alpha                      90.01598
_cell_angle_beta                       89.90219
_cell_angle_gamma                      89.86723
_symmetry_space_group_name_H-M         P 1
_symmetry_Int_Tables_number            1

loop_
_symmetry_equiv_pos_as_xyz
   x, y, z

loop_
   _atom_site_label
   _atom_site_fract_x
   _atom_site_fract_y
   _atom_site_fract_z
   _atom_site_charge
C	0.5399760862103440 0.6812116636176150 0.8705962026393615	0.109890
C	0.5431639048230980 0.7729680736353456 0.8689478210349467	-0.144605
C	0.4637497258944795 0.3214407161802710 0.8776717884974909	0.106429
C	0.4603803355614667 0.2298027998231934 0.8778570213504781	-0.137569
C	0.8206552728747475 0.9736984803518883 0.3652173184245253	0.110154
C	0.7291150499364399 0.9709450532860399 0.3619504255485405	-0.134074
C	0.3210816612767226 0.5409321256962040 0.8686706682900371	0.107875
C	0.2293736224747967 0.5449930214112441 0.8666343710324523	-0.145332
C	0.1815096252633839 0.9716909128816907 0.3572048798977521	0.102724
C	0.2731388081214333 0.9703235045712927 0.3544100410279376	-0.133911
C	0.6806686689950043 0.4632962519941039 0.8832257880708148	0.107791
C	0.7722379317637943 0.4603397463629673 0.8824091573925541	-0.137890
C	0.4554028450718997 0.6815090151001878 0.1148485922312223	0.106316
C	0.4519486800238929 0.7730893036240964 0.1167416249504808	-0.134278
C	0.5392623236191526 0.3232175291480959 0.1320982859103943	0.106990
C	0.5420168947850591 0.2314694178966370 0.1367855925971029	-0.144232
C	0.1794913343007095 0.0198710293908657 0.6344329767948964	0.110205
C	0.2709530543720072 0.0219500773829331 0.6405618771552024	-0.134442
C	0.6786918634687027 0.5431019415137101 0.1330356164047388	0.107852
C	0.7704490270810839 0.5465409443454707 0.1363899961250506	-0.143895
C	0.8204283589644251 0.0289798275029277 0.6376732972026667	0.103045
C	0.7288477961832536 0.0300799503785932 0.6429854755411074	-0.131824
C	0.3199499462217975 0.4587818777554393 0.1156474495174362	0.108946
C	0.2283300235459479 0.4561768017160344 0.1172052723238710	-0.138090
C	0.9661316067843709 0.8186024139643993 0.6342421134008424	0.111651
C	0.9648998424088623 0.7269431292111080 0.6399484824137257	-0.132253
C	0.9837395679972419 0.1782601100026643 0.6390001515728297	0.100379
C	0.9802183464135927 0.2697036990520818 0.6423445152023425	-0.131846
C	0.0208601079326895 0.8175103100501359 0.3613445181691703	0.104049
C	0.0235978673446387 0.7260276535345669 0.3585465593614431	-0.134226
C	0.0307875104423363 0.1777412587932702 0.3609027195549419	0.110738
C	0.0308254068412631 0.2693966224989462 0.3553009505856176	-0.132317
C	0.0039473369754886 0.3162296218086313 0.4978617449473051	0.041164
C	0.0010396661518750 0.4127728780154623 0.4976556398983475	0.256526
C	0.4978644526910357 0.8197773911076350 0.9932552793209926	0.056599
C	0.4988611080468552 0.9170817208476346 0.9982003504131292	0.247853
C	0.9952099812601128 0.6796988169351054 0.5003416357791868	0.039552
C	0.9971386132005381 0.5830332655611687 0.5003372122022960	0.249797
C	0.5010079400956571 0.1839041324478497 0.0088016523250528	0.057386
C	0.5003669319928651 0.0865146758692364 0.0095241003525134	0.249266
C	0.6822197243954050 0.9998896942491042 0.5030133114106389	0.039126
C	0.5855815422400604 0.9977193106395889 0.5040929162169585	0.248607
C	0.1821339484393316 0.5011663036596892 0.9918663353001590	0.057402
C	0.0848303057050571 0.5021889154411380 0.9944991210841023	0.247522
C	0.3187753570004676 0.9961516588020000 0.4985406407682350	0.043474
C	0.4153419808452742 0.9960605216989116 0.5015689426540205	0.255575
C	0.8180648688043994 0.5036815687799179 0.0100825671961384	0.056115
C	0.9154473879160206 0.5035133168045444 0.0073882547212186	0.247752
H	0.5704693128421304 0.6422575540118176 0.7710875890352342	0.109013
H	0.5794991816922442 0.8068322342212865 0.7703058798520211	0.125301
H	0.4368802198045438 0.3597817833451465 0.7737241360353704	0.110207
H	0.4290399623514669 0.1943810141069054 0.7753839190563485	0.119799
H	0.8593334592874189 0.9530764855743511 0.2568203534137882	0.107443
H	0.6950969097907517 0.9472119968866566 0.2507753573890409	0.122229
H	0.3602238861310619 0.5701530913434347 0.7681445765814447	0.109431
H	0.1958592953343127 0.5807781273229480 0.7668557811169722	0.126746
H	0.1441601492949687 0.9544087215130734 0.2453995740964267	0.102541
H	0.3077770232463216 0.9509241241279756 0.2405599334893009	0.118323
H	0.6423175205632312 0.4347335677324142 0.7813724672400041	0.110026
H	0.8077433416857174 0.4274783044783916 0.7813535262435324	0.119696
H	0.4251336831787755 0.6425184813519901 0.2142227814257857	0.110783
H	0.4173435167880286 0.8079132978565359 0.2164452712775790	0.118176
H	0.5664527938783471 0.3626534104469741 0.2341502111152095	0.108957
H	0.5743836003942682 0.1981896200384188 0.2409730260247078	0.125617
H	0.1401675492910172 0.0379558924326023 0.7436019863169128	0.106045
H	0.3040103658253752 0.0419907060777780 0.7553226582338846	0.121273
H	0.6391737409640869 0.5717438055796182 0.2338828171514750	0.109639
H	0.8036319364245222 0.5808865701604664 0.2382268662857529	0.125855
H	0.8585066873154001 0.0488915782787382 0.7469386546499368	0.101533
H	0.6949576290038849 0.0525206258089873 0.7555984588508298	0.122706
H	0.3585534562803454 0.4291677124679609 0.2163519953211634	0.109144
H	0.1931198188799317 0.4226603740013772 0.2176105587731321	0.119107
H	0.9452574371781483 0.8575601663520012 0.7420822836039285	0.108191
H	0.9421432094623318 0.6934494994153275 0.7526631151370006	0.121469
H	0.9680252361008533 0.1401863674776065 0.7507926915341626	0.100887
H	0.9603064553983328 0.3037588421307872 0.7563785246560110	0.121528
H	0.0399408582439753 0.8552967694759049 0.2510599503827722	0.100397
H	0.0467090202056729 0.6917858901643654 0.2469593939007742	0.120662
H	0.0492954164153496 0.1389444437874383 0.2513321720813007	0.108430
H	0.0496444202826428 0.3032362769098714 0.2403679752787289	0.120405
N	0.9448655168214787 0.5398686099425793 0.6104349159453312	-0.136127
N	0.4209916044298386 0.0462449887831350 0.0085050816342397	-0.146605
N	0.5426925158167620 0.0493322394882325 0.6161068267937201	-0.136383
N	0.9561180291782847 0.4242038434039456 0.0024307533239451	-0.145952
N	0.0507846351830316 0.5427182416222811 0.3881335193237412	-0.134784
N	0.5789364665080358 0.0444475406839443 0.0114612508412302	-0.146969
N	0.9569768883609385 0.5821669108224644 0.0050537320593058	-0.145864
N	0.5450993970110508 0.9430532153817560 0.3946392488218498	-0.132345
N	0.0531742916363615 0.4559632262483186 0.3875607117084802	-0.130672
N	0.5781835947752031 0.9573771982832791 0.0009346324870167	-0.145117
N	0.4582862970660080 0.9420787628089992 0.3939147140097911	-0.130703
N	0.0440478854479780 0.5814565782319472 0.9942641345722429	-0.144522
N	0.9464566436398995 0.4530182138826457 0.6080351960701968	-0.132134
N	0.4203318575235063 0.9590467075254009 0.0065583242743045	-0.144543
N	0.0432768519194727 0.4235039317631207 0.9991950668418831	-0.145659
N	0.4559043520553817 0.0486997999109115 0.6142670137272001	-0.134147
N	0.0070324628288486 0.1332846451460158 0.5000823599294557	-0.213454
N	0.4980220031851660 0.6367934229252246 0.9931074053413997	-0.221721
N	0.9940481341919867 0.8628207587180905 0.4975537214410896	-0.215306
N	0.5016002827143533 0.3668249144971761 0.0037038750399858	-0.225534
N	0.8652606648859886 0.0018680466396020 0.5010132251607050	-0.214241
N	0.3650312836130623 0.4996780039931338 0.9925824664831162	-0.225019
N	0.1357651292385750 0.9951744635601236 0.4951920746955449	-0.213365
N	0.6351392060215230 0.5030898759610101 0.0072976718676771	-0.223939
Cu	0.0005177412276983 0.9981229357221095 0.4982076806036758	0.716772
Cu	0.5001057478681287 0.5017567939029256 0.9992494691715176	0.727663
Ge	0.9997614219176074 0.9970256659842934 0.9984015599180981	1.762385
Ge	0.4994674601801886 0.5034040573063108 0.4989659998876171	1.783270
F	0.9971553464752586 0.0017544606122219 0.2289130793046299	-0.538547
F	0.5064977717942504 0.4996136824319400 0.7296718521632637	-0.546246
F	0.0024812421266328 0.9923589302635960 0.7679209604718580	-0.539352
F	0.4926826713428257 0.5064458943725374 0.2682984276293262	-0.547272
F	0.0854737610981170 0.0817523954427347 0.9953263597211235	-0.544511
F	0.5826401998615145 0.5909735463853485 0.4949089261742071	-0.559703
F	0.9139205350761185 0.9126676863043410 0.0011103831842346	-0.543822
F	0.4164766543836615 0.4159669933598803 0.5035652355510052	-0.562444
F	0.9154789618967157 0.0832921948657987 0.9863777830057369	-0.541343
F	0.4123120348712442 0.5869282113305261 0.5121582440633347	-0.559266
F	0.0848485540242789 0.9115359008858700 0.0109358215904074	-0.541447
F	0.5872826705084723 0.4203801683854271 0.4853543718037371	-0.560554
	  	
