#======================================================================

# CRYSTAL DATA

#----------------------------------------------------------------------

data_VESTA_phase_1


_pd_phase_name                         GeFSIX_7_Cu
_cell_length_a                         18.90215
_cell_length_b                         18.90215
_cell_length_c                         8.23662
_cell_angle_alpha                      90
_cell_angle_beta                       90
_cell_angle_gamma                      90
_symmetry_space_group_name_H-M         P 1
_symmetry_Int_Tables_number            1

loop_
_symmetry_equiv_pos_as_xyz
   x, y, z

loop_
   _atom_site_label
   _atom_site_fract_x
   _atom_site_fract_y
   _atom_site_fract_z
   _atom_site_charge
C	0.6664120955133176 0.8695234620264348 0.6957441225506494	0.102345
C	0.6146663391559242 0.9217101677826510 0.6994294287778523	-0.172317
C	0.5809493388946716 0.8873919501834912 0.4298268177512434	-0.166501
C	0.6331014412749567 0.8358749434640566 0.4348502831427984	0.097366
C	0.8335879044866824 0.6304765379735652 0.6957441225506494	0.102344
C	0.8853337108440729 0.5782898832173496 0.6994294287778523	-0.172317
C	0.9190505601053307 0.6126081008165024 0.4298268177512434	-0.166502
C	0.8668985587250433 0.6641250565359434 0.4348502831427984	0.097366
C	0.6304765379735652 0.6664120955133176 0.6957441225506494	0.102345
C	0.5782898832173496 0.6146663391559242 0.6994294287778523	-0.172317
C	0.6126081008165024 0.5809493388946716 0.4298268177512434	-0.166501
C	0.6641250565359434 0.6331014412749567 0.4348502831427984	0.097366
C	0.8695234620264348 0.8335879044866824 0.6957441225506494	0.102345
C	0.9217101677826510 0.8853337108440729 0.6994294287778523	-0.172316
C	0.8873919501834912 0.9190505601053307 0.4298268177512434	-0.166501
C	0.8358749434640566 0.8668985587250433 0.4348502831427984	0.097366
C	0.3335878794866840 0.3695234120264306 0.3042559074493528	0.102344
C	0.3853336608440758 0.4217101677826505 0.3005706012221506	-0.172316
C	0.4190506611053284 0.3873918991834974 0.5701731822487566	-0.166502
C	0.3668985077250498 0.3358749434640570 0.5651497468572042	0.097366
C	0.1664121205133159 0.1304765749735719 0.3042559074493528	0.102344
C	0.1146663391559240 0.0782898322173494 0.3005706012221506	-0.172316
C	0.0809493198946664 0.1126081008165025 0.5701731822487566	-0.166502
C	0.1331014922749502 0.1641250445359420 0.5651497468572042	0.097366
C	0.3695234120264306 0.1664121205133159 0.3042559074493528	0.102344
C	0.4217101677826505 0.1146663391559240 0.3005706012221506	-0.172316
C	0.3873918991834974 0.0809493198946664 0.5701731822487566	-0.166501
C	0.3358749434640570 0.1331014922749502 0.5651497468572042	0.097366
C	0.1304765749735719 0.3335878794866840 0.3042559074493528	0.102344
C	0.0782898322173494 0.3853336608440758 0.3005706012221506	-0.172316
C	0.1126081008165025 0.4190506611053284 0.5701731822487566	-0.166501
C	0.1641250445359420 0.3668985077250498 0.5651497468572042	0.097366
C	0.4322876084690718 0.0707321517245473 0.4359917460468906	0.140752
C	0.4872677468564491 0.0167511054209862 0.4334467819315857	-0.120812
C	0.0677123915309285 0.4292678412754557 0.4359917460468906	0.140752
C	0.0127322211435483 0.4832488305790155 0.4334467819315857	-0.120815
C	0.4292678412754557 0.4322876084690718 0.4359917460468906	0.140752
C	0.4832488305790155 0.4872677468564491 0.4334467819315857	-0.120812
C	0.0707321517245473 0.0677123915309285 0.4359917460468906	0.140752
C	0.0167511054209862 0.0127322211435483 0.4334467819315857	-0.120815
C	0.5677123915309287 0.5707321587245444 0.5640082539531093	0.140751
C	0.5127323041435443 0.5167511194209801 0.5665532470684133	-0.120801
C	0.9322875584690743 0.9292677912754514 0.5640082539531093	0.140751
C	0.9872677468564492 0.9832489315790206 0.5665532470684133	-0.120796
C	0.5707321587245444 0.9322875584690743 0.5640082539531093	0.140751
C	0.5167511194209801 0.9872677468564492 0.5665532470684133	-0.120801
C	0.9292677912754514 0.5677123915309287 0.5640082539531093	0.140751
C	0.9832489315790206 0.5127323041435443 0.5665532470684133	-0.120796
H	0.7005389408316960 0.8596167346935696 0.7998986632457905	0.106530
H	0.6089097784924140 0.9542211031577116 0.8079373556651233	0.120243
H	0.5476727016427289 0.8912614348929490 0.3221550228405050	0.119705
H	0.6427028212534200 0.8010824489666508 0.3318693148309543	0.106994
H	0.7994610591683040 0.6403832653064304 0.7998986632457905	0.106530
H	0.8910902215075860 0.5457789478422891 0.8079373556651233	0.120243
H	0.9523273493572718 0.6087386161070517 0.3221550228405050	0.119705
H	0.8572971787465800 0.6989175510333492 0.3318693148309543	0.106994
H	0.6403832653064304 0.7005389408316960 0.7998986632457905	0.106530
H	0.5457789478422891 0.6089097784924140 0.8079373556651233	0.120243
H	0.6087386161070517 0.5476727016427289 0.3221550228405050	0.119705
H	0.6989175510333492 0.6427028212534200 0.3318693148309543	0.106994
H	0.8596167346935696 0.7994610591683040 0.7998986632457905	0.106530
H	0.9542211031577116 0.8910902215075860 0.8079373556651233	0.120243
H	0.8912614348929490 0.9523273493572718 0.3221550228405050	0.119705
H	0.8010824489666508 0.8572971787465800 0.3318693148309543	0.106994
H	0.2994610851683062 0.3596166586935706 0.2001013217542119	0.106530
H	0.3910901455075796 0.4542210521577111 0.1920626003348731	0.120243
H	0.4523273493572719 0.3912614348929493 0.6778449471594999	0.119706
H	0.3572972037465852 0.3010824749666530 0.6681306851690461	0.106994
H	0.2005389278316913 0.1403833673064317 0.2001013217542118	0.106530
H	0.1089098294924147 0.0457789638422903 0.1920626003348731	0.120243
H	0.0476726446427275 0.1087385911070530 0.6778449471594999	0.119705
H	0.1427028212534203 0.1989175130333460 0.6681306851690461	0.106994
H	0.3596166586935706 0.2005389278316913 0.2001013217542118	0.106530
H	0.4542210521577111 0.1089098294924147 0.1920626003348731	0.120243
H	0.3912614348929493 0.0476726446427275 0.6778449471594999	0.119706
H	0.3010824749666530 0.1427028212534203 0.6681306851690461	0.106994
H	0.1403833673064317 0.2994610851683062 0.2001013217542119	0.106530
H	0.0457789638422903 0.3910901455075796 0.1920626003348731	0.120243
H	0.1087385911070530 0.4523273493572719 0.6778449471594999	0.119705
H	0.1989175130333460 0.3572972037465852 0.6681306851690461	0.106994
H	0.5066565532870518 0.0014265161239927 0.3133366877895482	0.104287
H	0.9933434977129488 0.4985734558760051 0.3133366877895482	0.104288
H	0.4985734558760051 0.5066565532870518 0.3133366877895482	0.104287
H	0.0014265161239927 0.9933434977129488 0.3133366877895482	0.104288
H	0.4933434467129479 0.5014264941239982 0.6866633422104470	0.104288
H	0.0066565442870549 0.9985734558760048 0.6866633422104470	0.104286
H	0.5014264941239982 0.0066565442870549 0.6866633422104470	0.104288
H	0.9985734558760048 0.4933434467129479 0.6866633422104470	0.104286
Cu	0.2500000000000000 0.2500000000000000 0.4335735215733105	0.709090
Cu	0.7500000000000000 0.7500000000000000 0.5664264784266895	0.709089
Ge	0.2500000000000000 0.2500000000000000 0.9349644342957598	1.775377
Ge	0.7500000000000000 0.7500000000000000 0.0650355507042428	1.775377
F	0.2500000000000000 0.2500000000000000 0.1611102742517502	-0.543908
F	0.2500000000000000 0.2500000000000000 0.7086922334707459	-0.543788
F	0.7500000000000000 0.7500000000000000 0.8388897557482522	-0.543908
F	0.7500000000000000 0.7500000000000000 0.2913077665292538	-0.543788
F	0.3192850605602497 0.3173953202982402 0.9351960209572144	-0.560521
F	0.1807149644397488 0.1826047047017583 0.9351960209572144	-0.560521
F	0.1826047047017583 0.3192850605602497 0.9351960209572144	-0.560521
F	0.3173953202982402 0.1807149644397488 0.9351960209572144	-0.560521
F	0.6807149644397492 0.8173953202982400 0.0648039790427856	-0.560521
F	0.8192850355602508 0.6826046797017600 0.0648039790427856	-0.560521
F	0.8173953202982400 0.8192850355602508 0.0648039790427856	-0.560521
F	0.6826046797017600 0.6807149644397492 0.0648039790427856	-0.560521
N	0.3272967878947038 0.1752621835310776 0.4344326102468826	-0.227271
N	0.1727032371052949 0.3247378414689209 0.4344326102468826	-0.227271
N	0.3247378414689209 0.3272967878947038 0.4344326102468826	-0.227271
N	0.1752621835310776 0.1727032371052949 0.4344326102468826	-0.227271
N	0.6727032121052967 0.6752621585310788 0.5655673897531169	-0.227270
N	0.8272967878947033 0.8247378414689212 0.5655673897531169	-0.227270
N	0.6752621585310788 0.8272967878947033 0.5655673897531169	-0.227270
N	0.8247378414689212 0.6727032121052967 0.5655673897531169	-0.227270
	  	
