#======================================================================

# CRYSTAL DATA

#----------------------------------------------------------------------

data_VESTA_phase_1


_pd_phase_name                         GeFSIX_14_Cu_i
_cell_length_a                         13.09620
_cell_length_b                         13.08347
_cell_length_c                         8.20943
_cell_angle_alpha                      89.31649
_cell_angle_beta                       89.28819
_cell_angle_gamma                      89.11874
_symmetry_space_group_name_H-M         P 1
_symmetry_Int_Tables_number            1

loop_
_symmetry_equiv_pos_as_xyz
   x, y, z

loop_
   _atom_site_label
   _atom_site_fract_x
   _atom_site_fract_y
   _atom_site_fract_z
   _atom_site_charge
C	0.5688831134457767 0.2657302289831044 0.3627195798776979	-0.176237
C	0.4630193167294169 0.2705052450126901 0.3676471669787132	0.107790
C	0.9418913636825492 0.2876981571169464 0.4164006230676526	-0.163662
C	0.0475755213177777 0.2802333524240473 0.4022892467875090	0.112774
C	0.2638400037739843 0.5686920209343554 0.3654541096173947	-0.177714
C	0.2684783013207092 0.4626694797921160 0.3703865315582905	0.108684
C	0.2956745011752242 0.9419896101945187 0.4119424049157907	-0.161757
C	0.2868013343974770 0.0476958179187569 0.3988232888772349	0.110886
C	0.9313163422397591 0.2367481352757366 0.1352363461705624	-0.177233
C	0.0372175809665000 0.2324907430881578 0.1300741479481023	0.107123
C	0.5581196957397143 0.2074481012700994 0.0853008817850885	-0.161029
C	0.4524327379941050 0.2155494444671998 0.0990516417839903	0.112473
C	0.2088476421917727 0.5581038532202938 0.0863442593131651	-0.163896
C	0.2172488412757182 0.4524041875136638 0.0998491481687193	0.110762
C	0.2335968838029887 0.9312306305069897 0.1368102215492762	-0.178028
C	0.2285812470403706 0.0372243566025029 0.1320897117125249	0.109575
C	0.4314526347601176 0.7356771332959180 0.6372006160108438	-0.175601
C	0.5372654324986854 0.7335019842973037 0.6307801166032715	0.107186
C	0.0578250768248262 0.7295126632504498 0.5756211678574550	-0.155722
C	0.9520911739214437 0.7312738194124032 0.5923319394994823	0.113950
C	0.7365515717498277 0.4313929303811789 0.6362358835095987	-0.174866
C	0.7341063469722108 0.5373405196867670 0.6301384367892892	0.107322
C	0.7171888191560318 0.0575088410174380 0.5799849773225074	-0.156189
C	0.7220943458921396 0.9516868554726974 0.5954551482362814	0.110863
C	0.0687129949591223 0.7617291461920169 0.8641457541748789	-0.174408
C	0.9628834835660485 0.7629205888468313 0.8706582572860769	0.106659
C	0.4425060780029993 0.7761250829877518 0.9228561478935086	-0.155257
C	0.5482385231850542 0.7733836602980955 0.9061920173751632	0.113899
C	0.7771495483426505 0.4422842125949309 0.9218536525948687	-0.158937
C	0.7732557908259472 0.5481035678451149 0.9059188152385094	0.113365
C	0.7657935631652928 0.0684423843458089 0.8621996245327526	-0.175458
C	0.7691800472632440 0.9625149094018848 0.8678638589597819	0.107983
C	0.6176055529363917 0.2344930674340996 0.2179299781206827	0.189792
C	0.8824938395681584 0.2640036434028739 0.2819626465802123	0.193604
C	0.2342654140347565 0.6175112147838017 0.2199968288703647	0.194124
C	0.2669440526970676 0.8824882787812111 0.2802430812383757	0.190811
C	0.3829075331709444 0.7570099244578699 0.7868664260516833	0.190689
C	0.1173348615892216 0.7450919916933018 0.7130174930044963	0.189897
C	0.7580062317742279 0.3827227113967840 0.7856648449396800	0.191451
C	0.7398359622618196 0.1171145203767594 0.7146213566568644	0.189118
H	0.6131995141417812 0.2820780175845859 0.4703605419084637	0.107856
H	0.4217600812072112 0.2920835192939778 0.4784138044151059	0.105490
H	0.9063383783056442 0.3108285015323476 0.5308788116923358	0.128513
H	0.0963988846274605 0.2969068582647599 0.5048592464633842	0.103279
H	0.2789010920599948 0.6132191406651740 0.4734504190658571	0.111274
H	0.2885640753857364 0.4212432611973339 0.4817360194831743	0.104771
H	0.3235964005986318 0.9064375565568318 0.5236328382541893	0.128111
H	0.3066690709834438 0.0966178955463444 0.4998346542487030	0.104137
H	0.8869523070201567 0.2231377555322048 0.0265553368023699	0.108546
H	0.0785688561141596 0.2138469402237201 0.0180149027548371	0.105224
H	0.5935838337364551 0.1810606991856578 0.9725695634453932	0.128448
H	0.4035197662174464 0.1963827560058347 0.9977638993439096	0.103727
H	0.1840425878994390 0.5937578006780065 0.9728618540730911	0.128007
H	0.1998477993355610 0.4035650364403407 0.9974980968160311	0.103096
H	0.2158482683343595 0.8866997789173118 0.0299894684598259	0.111616
H	0.2056462027527030 0.0785534920209632 0.0221018326901556	0.105459
H	0.3874973337112348 0.7236800642950587 0.5275278483269847	0.102953
H	0.5785198111244125 0.7179992704310124 0.5175086693012958	0.105979
H	0.0932071155592824 0.7163089282704983 0.4571020836413732	0.127120
H	0.9033250965762986 0.7186662732647427 0.4883352795518411	0.101438
H	0.7253626383833623 0.3872732094282416 0.5264308006667587	0.104496
H	0.7189913432918531 0.5787588474860786 0.5168622109159936	0.106595
H	0.6960866556769445 0.0929212155486564 0.4645407623188592	0.127939
H	0.7047370361351383 0.9028495128796563 0.4932577762632043	0.102006
H	0.1126618056928108 0.7709381771516082 0.9746521232845056	0.102435
H	0.9215385141981600 0.7748622852342151 0.9849752794656117	0.106254
H	0.4072307308771994 0.7929792110598233 0.0402313639468668	0.127612
H	0.5970536428539380 0.7888297492035968 0.0090620799956538	0.101332
H	0.7946665209904119 0.4068544690936718 0.0388393676482202	0.127889
H	0.7879152870704600 0.5969333127620781 0.0092371612068977	0.101542
H	0.7798149507068803 0.1124928715069486 0.9710972528279188	0.105197
H	0.7877307389784907 0.9211707756715489 0.9798591948420229	0.106544
N	0.7752895337648081 0.2741586342952483 0.3006621071594873	-0.100658
N	0.2785117657812162 0.7751427255305161 0.2971557591056637	-0.102017
N	0.7248594402927810 0.2239383590650459 0.1993198390986550	-0.101840
N	0.2230008775694201 0.7248004076806781 0.2030504874703236	-0.102243
N	0.2243501784180891 0.7398476163725076 0.6883543067749847	-0.099585
N	0.7316876487958870 0.2242707183853180 0.6919581061737847	-0.098548
N	0.2758736438231366 0.7628882623381588 0.8114776035507977	-0.099672
N	0.7656344342158927 0.2756055107303712 0.8084657444813088	-0.100897
N	0.4059763992716211 0.2467421423534914 0.2377130079471408	-0.216454
N	0.0941760366883182 0.2528979770151602 0.2616509809398901	-0.216861
N	0.2466348423508874 0.4057494907311992 0.2394089815596402	-0.216520
N	0.2537733296122585 0.0942279244055368 0.2613266944775717	-0.217364
N	0.5945312208841517 0.7520208346105781 0.7629569109445912	-0.213557
N	0.9057005825905369 0.7481377537384504 0.7370769679163743	-0.214093
N	0.7518875261788039 0.5945202494211270 0.7627261840076759	-0.214405
N	0.7478661824031554 0.9053108538176258 0.7367575073425483	-0.212459
F	0.3484224569207662 0.1473714175021596 0.7512253090166562	-0.545472
F	0.1533884800182098 0.3509027995169020 0.7490579163874205	-0.546136
F	0.3502569125099508 0.3445134176616124 0.7614543014740820	-0.555776
F	0.1514395022513786 0.1537068606655571 0.7387139189535755	-0.555940
F	0.6492076380782976 0.8500439869845260 0.2507415744496175	-0.542836
F	0.8491596366678594 0.6517725398035447 0.2491075628326007	-0.543935
F	0.6524444433883198 0.6532690164087506 0.2331136506413823	-0.551672
F	0.8459843088851049 0.8484672004295014 0.2665305438618394	-0.551789
F	0.2595135806643979 0.2570103674623350 0.5232274710900993	-0.543287
F	0.2420539661484446 0.2415073877514014 0.9769507484976361	-0.543157
F	0.7397677160942240 0.7402888439018614 0.4763149046227792	-0.540179
F	0.7593416759108804 0.7607803200386226 0.0235011651748187	-0.540150
Ge	0.2509051891374760 0.2490957179857755 0.7500882247586727	1.768530
Ge	0.7492090046896033 0.7508831160503873 0.2498944019729341	1.763509
Cu	0.2500588726233253 0.2499932464023606 0.2500320704427973	0.705857
Cu	0.7501036536116633 0.7499503470363837 0.7497857432934786	0.699932
	  	
