#======================================================================

# CRYSTAL DATA

#----------------------------------------------------------------------

data_VESTA_phase_1


_pd_phase_name                         GeFSIX_14_Co_i
_cell_length_a                         12.96389
_cell_length_b                         12.95113
_cell_length_c                         8.10251
_cell_angle_alpha                      87.67274
_cell_angle_beta                       87.51758
_cell_angle_gamma                      87.98210
_symmetry_space_group_name_H-M         P 1
_symmetry_Int_Tables_number            1

loop_
_symmetry_equiv_pos_as_xyz
   x, y, z

loop_
   _atom_site_label
   _atom_site_fract_x
   _atom_site_fract_y
   _atom_site_fract_z
   _atom_site_charge
C	0.5639184695666870 0.2695639903521062 0.3625568465664047	-0.174597
C	0.4569008059356157 0.2726985934594063 0.3683194533190047	0.095940
C	0.9406746968548713 0.2899331162029732 0.4148001305194713	-0.164671
C	0.0475335741828798 0.2836248493325935 0.4008243070841764	0.098395
C	0.2677730961352439 0.5638824594775160 0.3635400930243973	-0.173617
C	0.2707521413787897 0.4567498759494266 0.3696377960714418	0.096982
C	0.2967207927658078 0.9404946687110386 0.4100481795887709	-0.163059
C	0.2896349622703199 0.0474344403930331 0.3969068248196219	0.097447
C	0.9363328259724563 0.2326895149059185 0.1361067004585686	-0.174734
C	0.0434029732868215 0.2298552311810746 0.1301417106519146	0.095968
C	0.5596578018553303 0.2056890981016744 0.0879196857209782	-0.163442
C	0.4527976717783194 0.2124815018283719 0.1015070305972118	0.100176
C	0.2067691001029023 0.5589401196883260 0.0874457827312142	-0.165665
C	0.2135498963918770 0.4520363146283213 0.1012810718763101	0.098866
C	0.2296884336606303 0.9359745769054646 0.1378059849361119	-0.173814
C	0.2266183167645329 0.0430996956695612 0.1322060086330718	0.096282
C	0.4360901913529473 0.7343448279038942 0.6359310887886251	-0.173707
C	0.5430696635626829 0.7318657329048045 0.6296892139335567	0.097007
C	0.0592110713969352 0.7231162537006965 0.5778822496821734	-0.160176
C	0.9523758453073679 0.7269595979519166 0.5934534705713483	0.099556
C	0.7352420526484890 0.4361164593273282 0.6360433861314949	-0.172980
C	0.7331878215646095 0.5431664749059353 0.6296867244506665	0.097453
C	0.7114031193493173 0.0592616927038700 0.5832069570838170	-0.159368
C	0.7162982051271384 0.9522950353904026 0.5978912967563457	0.098779
C	0.0639450218944902 0.7627756540604609 0.8652671667271162	-0.173997
C	0.9569699778781180 0.7645740923861122 0.8719172001558347	0.096351
C	0.4406620045030788 0.7824803000360084 0.9195619397184431	-0.158814
C	0.5475176231515915 0.7780468611902205 0.9043542589513950	0.099562
C	0.7834718601709911 0.4409235671421976 0.9193909977725464	-0.161411
C	0.7791880725418566 0.5478807054890455 0.9042764254146727	0.099892
C	0.7674669416505856 0.0639225952041847 0.8624087883033889	-0.174066
C	0.7700208693625283 0.9568802130071218 0.8683921505425082	0.099405
C	0.6172415606697911 0.2359791990350726 0.2187915789436257	0.191855
C	0.8830554357984673 0.2627113039870996 0.2820292678606127	0.192766
C	0.2357848345237961 0.6168748244860355 0.2189105048008193	0.192376
C	0.2649190994274850 0.8827796390777388 0.2802266788910435	0.190614
C	0.3829839135898526 0.7598161129061273 0.7844570186263473	0.192349
C	0.1169662123534432 0.7419055496801813 0.7147116609734976	0.193208
C	0.7603472362950072 0.3830739401283932 0.7844627894611852	0.193530
C	0.7380790895383691 0.1170407182168142 0.7162483243089738	0.192365
H	0.6055895290998238 0.2886899519739922 0.4703217898110080	0.112788
H	0.4138757011915593 0.2950902443275613 0.4803703913216534	0.101188
H	0.9025275787014679 0.3152078031856872 0.5289442929745769	0.126844
H	0.0937866259321856 0.3033682157430707 0.5030774530774496	0.105514
H	0.2856364213692927 0.6060268054575023 0.4715993038633505	0.112649
H	0.2918607110158253 0.4139124369750399 0.4822572432930892	0.100876
H	0.3261926372706322 0.9023811267480781 0.5211877504460698	0.126786
H	0.3123552268834118 0.0937281981280333 0.4974312894844258	0.106221
H	0.8945086640274486 0.2161474137143783 0.0271679984204291	0.111836
H	0.0863657793811656 0.2101534711160009 0.0166708519228118	0.101019
H	0.5978466545419217 0.1774834077912341 0.9756984724819611	0.126924
H	0.4066167855732858 0.1905639607476466 0.0004629949746052	0.104592
H	0.1800050587581140 0.5968081767489506 0.9742961715319982	0.127088
H	0.1929223880143534 0.4056631225730385 -0.0004847815031221	0.105018
H	0.2093030981343844 0.8940224298104511 0.0309160219433311	0.113736
H	0.2032408928209080 0.0860487939094643 0.0209181057088445	0.101537
H	0.3945345801111373 0.7200247990473999 0.5255713553895960	0.109288
H	0.5861078923816752 0.7140653600804533 0.5154310862891521	0.101711
H	0.0970077749607638 0.7063122271598932 0.4593342108649012	0.126871
H	0.9062609069203422 0.7130097163260132 0.4883502697558336	0.103626
H	0.7212106316702598 0.3942409185332840 0.5257587811626470	0.109376
H	0.7159545829369591 0.5860776820228633 0.5153202737455209	0.102259
H	0.6873938415981917 0.0971296713340556 0.4684166563294658	0.127422
H	0.6964617826968544 0.9061229694391587 0.4955445221220531	0.103796
H	0.1056474082396856 0.7741263951064258 0.9766530306998656	0.109048
H	0.9140439535243217 0.7786856245969647 0.9877002013723292	0.101485
H	0.4026794409491479 0.8031661351452765 0.0362797021680168	0.126895
H	0.5935753942436027 0.7951493445458627 0.0080851263926812	0.103350
H	0.8040142649144734 0.4030996478115556 0.0360445583864734	0.127110
H	0.7963556289492335 0.5940763699149680 0.0080851558830050	0.103213
H	0.7843993875783956 0.1056451047938334 0.9714897106497479	0.110280
H	0.7905872769748411 0.9139009142186731 0.9811636351052658	0.101798
N	0.7747574275995508 0.2734405270195443 0.3019268726525025	-0.111905
N	0.2766438914711744 0.7743679840940013 0.2984200889357908	-0.114695
N	0.7255755306672416 0.2248827499643935 0.1991717344669977	-0.114943
N	0.2244831492186895 0.7252330932892657 0.2003375116458868	-0.114527
N	0.2250638721380462 0.7344159279720460 0.6909034297673623	-0.108889
N	0.7293583755671744 0.2253281096299887 0.6942342870367739	-0.110398
N	0.2748347267354364 0.7678088935866989 0.8080084778018426	-0.108868
N	0.7686219566710624 0.2748264204435032 0.8066883242472301	-0.111283
N	0.4015018302638453 0.2459837040377602 0.2393073601090052	-0.179726
N	0.0988341938200346 0.2535067704989591 0.2609170321669856	-0.178873
N	0.2455999588867560 0.4010415700842103 0.2399687875012612	-0.179579
N	0.2546719192117352 0.0986065874817426 0.2603269959845590	-0.178964
N	0.5987094457586674 0.7527956101705500 0.7618040941128313	-0.178882
N	0.9012253826728431 0.7476340169242209 0.7381060791542456	-0.179318
N	0.7539396195093839 0.5989557205002277 0.7618885263881305	-0.180021
N	0.7456173400059436 0.9011972760769104 0.7380429887183154	-0.179801
F	0.3510830929042313 0.1463628727443822 0.7497917670902267	-0.539755
F	0.1509478017208375 0.3520947677526263 0.7505338290108661	-0.539698
F	0.3496987074000762 0.3456079739622228 0.7277059029944130	-0.538539
F	0.1519410364184486 0.1529533576531534 0.7722896959771386	-0.538450
F	0.6467711145175933 0.8509244613055711 0.2514551787345806	-0.535122
F	0.8524302302563656 0.6511042514578728 0.2480433557260940	-0.535787
F	0.6536727929616022 0.6516195906280857 0.2642715333973854	-0.536107
F	0.8460475663382587 0.8493944378638417 0.2354583767964574	-0.536567
F	0.2484896973944121 0.2469278358016589 0.5202399165096577	-0.513226
F	0.2532614005693808 0.2513512383805873 0.9799894649413500	-0.513335
F	0.7488628002953889 0.7499077210272080 0.4805732871593622	-0.510332
F	0.7496897533172240 0.7517266523183801 0.0192002612820221	-0.510026
Ge	0.2509805057656360 0.2491156654851784 0.7501400371277021	1.750913
Ge	0.7494209585795938 0.7508786283738954 0.2498559177272544	1.746574
Co	0.2502079048401136 0.2498418521342701 0.2502320983325531	0.602301
Co	0.7499645595955656 0.7500961397017617 0.7498640349854737	0.606677
	  	
