#======================================================================

# CRYSTAL DATA

#----------------------------------------------------------------------

data_VESTA_phase_1


_pd_phase_name                         GeFSIX_3_Cu
_cell_length_a                         13.81826
_cell_length_b                         13.81826
_cell_length_c                         7.96759
_cell_angle_alpha                      90
_cell_angle_beta                       90
_cell_angle_gamma                      90
_symmetry_space_group_name_H-M         P 1
_symmetry_Int_Tables_number            1

loop_
_symmetry_equiv_pos_as_xyz
   x, y, z

loop_
   _atom_site_label
   _atom_site_fract_x
   _atom_site_fract_y
   _atom_site_fract_z
   _atom_site_charge
C	0.2704493394509433 0.4495476479350211 0.6407387894374073	0.068783
C	0.2295506605490565 0.0504523560649792 0.6407387894374073	0.068783
C	0.2295506605490565 0.4495476479350211 0.3592611785625901	0.068784
C	0.2704493394509433 0.0504523560649792 0.3592611785625901	0.068785
C	0.0504523560649792 0.2704493394509433 0.3592611785625901	0.068786
C	0.4495476479350211 0.2295506605490565 0.3592611785625901	0.068785
C	0.4495476479350211 0.2704493394509433 0.6407387894374073	0.068787
C	0.0504523560649792 0.2295506605490565 0.6407387894374073	0.068787
C	0.9495475799350227 0.2295506605490565 0.6407387894374073	0.068818
C	0.5504524200649773 0.2704493394509433 0.6407387894374073	0.068819
C	0.5504524200649773 0.2295506605490565 0.3592611785625901	0.068820
C	0.9495475799350227 0.2704493394509433 0.3592611785625901	0.068820
C	0.7295506775490544 0.0504523560649792 0.3592611785625901	0.068786
C	0.7704493224509456 0.4495476479350211 0.3592611785625901	0.068785
C	0.7704493224509456 0.0504523560649792 0.6407387894374073	0.068788
C	0.7295506775490544 0.4495476479350211 0.6407387894374073	0.068787
C	0.4495476479350211 0.7295506775490544 0.6407387894374073	0.068783
C	0.0504523560649792 0.7704493224509456 0.6407387894374073	0.068783
C	0.0504523560649792 0.7295506775490544 0.3592611785625901	0.068785
C	0.4495476479350211 0.7704493224509456 0.3592611785625901	0.068784
C	0.2295506605490565 0.5504524200649773 0.3592611785625901	0.068821
C	0.2704493394509433 0.9495475799350227 0.3592611785625901	0.068821
C	0.2704493394509433 0.5504524200649773 0.6407387894374073	0.068823
C	0.2295506605490565 0.9495475799350227 0.6407387894374073	0.068822
C	0.7704493224509456 0.9495475799350227 0.6407387894374073	0.068818
C	0.7295506775490544 0.5504524200649773 0.6407387894374073	0.068819
C	0.7295506775490544 0.9495475799350227 0.3592611785625901	0.068819
C	0.7704493224509456 0.5504524200649773 0.3592611785625901	0.068820
C	0.5504524200649773 0.7704493224509456 0.3592611785625901	0.068822
C	0.9495475799350227 0.7295506775490544 0.3592611785625901	0.068821
C	0.9495475799350227 0.7704493224509456 0.6407387894374073	0.068822
C	0.5504524200649773 0.7295506775490544 0.6407387894374073	0.068823
H	0.2863886506667927 0.4094994731461244 0.7555372930439531	0.117698
H	0.2136113153332044 0.0905005268538756 0.7555372930439531	0.117698
H	0.2136113153332044 0.4094994731461244 0.2444626759560477	0.117699
H	0.2863886506667927 0.0905005268538756 0.2444626759560477	0.117698
H	0.0905005268538756 0.2863886506667927 0.2444626759560477	0.117698
H	0.4094994731461244 0.2136113153332044 0.2444626759560477	0.117698
H	0.4094994731461244 0.2863886506667927 0.7555372930439531	0.117697
H	0.0905005268538756 0.2136113153332044 0.7555372930439531	0.117697
H	0.9094995411461300 0.2136113153332044 0.7555372930439531	0.117685
H	0.5905004588538700 0.2863886506667927 0.7555372930439531	0.117685
H	0.5905004588538700 0.2136113153332044 0.2444626759560477	0.117686
H	0.9094995411461300 0.2863886506667927 0.2444626759560477	0.117685
H	0.7136112813332087 0.0905005268538756 0.2444626759560477	0.117698
H	0.7863887186667913 0.4094994731461244 0.2444626759560477	0.117698
H	0.7863887186667913 0.0905005268538756 0.7555372930439531	0.117697
H	0.7136112813332087 0.4094994731461244 0.7555372930439531	0.117697
H	0.4094994731461244 0.7136112813332087 0.7555372930439531	0.117698
H	0.0905005268538756 0.7863887186667913 0.7555372930439531	0.117698
H	0.0905005268538756 0.7136112813332087 0.2444626759560477	0.117698
H	0.4094994731461244 0.7863887186667913 0.2444626759560477	0.117698
H	0.2136113153332044 0.5905004588538700 0.2444626759560477	0.117685
H	0.2863886506667927 0.9094995411461300 0.2444626759560477	0.117685
H	0.2863886506667927 0.5905004588538700 0.7555372930439531	0.117684
H	0.2136113153332044 0.9094995411461300 0.7555372930439531	0.117684
H	0.7863887186667913 0.9094995411461300 0.7555372930439531	0.117685
H	0.7136112813332087 0.5905004588538700 0.7555372930439531	0.117685
H	0.7136112813332087 0.9094995411461300 0.2444626759560477	0.117685
H	0.7863887186667913 0.5905004588538700 0.2444626759560477	0.117685
H	0.5905004588538700 0.7863887186667913 0.2444626759560477	0.117685
H	0.9094995411461300 0.7136112813332087 0.2444626759560477	0.117685
H	0.9094995411461300 0.7863887186667913 0.7555372930439531	0.117684
H	0.5905004588538700 0.7136112813332087 0.7555372930439531	0.117684
Cu	0.2500000000000000 0.2500000000000000 0.5000000000000000	0.719030
Cu	0.7500000340000028 0.2500000000000000 0.5000000000000000	0.719035
Cu	0.2500000000000000 0.7500000340000028 0.5000000000000000	0.719035
Cu	0.7500000340000028 0.7500000340000028 0.5000000000000000	0.719039
Ge	0.2500000000000000 0.2500000000000000 -0.0000000000000000	1.753078
Ge	0.7500000340000028 0.2500000000000000 -0.0000000000000000	1.753079
Ge	0.2500000000000000 0.7500000340000028 -0.0000000000000000	1.753079
Ge	0.7500000340000028 0.7500000340000028 -0.0000000000000000	1.753079
F	0.2500000000000000 0.2500000000000000 0.7669895000690229	-0.546778
F	0.2500000000000000 0.2500000000000000 0.2330104999309772	-0.546778
F	0.3431239345959749 0.3431239345959749 -0.0054841928703695	-0.531281
F	0.1568760654040250 0.1568760654040250 -0.0054841928703695	-0.531279
F	0.1568760654040250 0.3431239345959749 0.0054842138703676	-0.531280
F	0.3431239345959749 0.1568760654040250 0.0054842138703676	-0.531280
F	0.7500000340000028 0.2500000000000000 0.7669895000690229	-0.546780
F	0.7500000340000028 0.2500000000000000 0.2330104999309772	-0.546780
F	0.8431239685959776 0.3431239345959749 0.0054842138703676	-0.531283
F	0.6568760314040224 0.1568760654040250 0.0054842138703676	-0.531281
F	0.6568760314040224 0.3431239345959749 -0.0054841928703695	-0.531282
F	0.8431239685959776 0.1568760654040250 -0.0054841928703695	-0.531282
F	0.2500000000000000 0.7500000340000028 0.7669895000690229	-0.546780
F	0.2500000000000000 0.7500000340000028 0.2330104999309772	-0.546780
F	0.3431239345959749 0.8431239685959776 0.0054842138703676	-0.531283
F	0.1568760654040250 0.6568760314040224 0.0054842138703676	-0.531281
F	0.1568760654040250 0.8431239685959777 -0.0054841928703695	-0.531282
F	0.3431239345959749 0.6568760314040223 -0.0054841928703695	-0.531282
F	0.7500000340000028 0.7500000340000028 0.7669895000690229	-0.546782
F	0.7500000340000028 0.7500000340000028 0.2330104999309772	-0.546783
F	0.8431239685959776 0.8431239685959776 -0.0054841928703695	-0.531285
F	0.6568760314040224 0.6568760314040224 -0.0054841928703695	-0.531282
F	0.6568760314040224 0.8431239685959776 0.0054842138703676	-0.531283
F	0.8431239685959776 0.6568760314040224 0.0054842138703676	-0.531283
N	0.3996434096039492 0.2500000000000000 0.5000000000000000	-0.186334
N	0.1003565903960509 0.2500000000000000 0.5000000000000000	-0.186334
N	0.2500000000000000 0.3996434096039492 0.5000000000000000	-0.186333
N	0.2500000000000000 0.1003565903960509 0.5000000000000000	-0.186333
N	0.8996434096039492 0.2500000000000000 0.5000000000000000	-0.186356
N	0.6003565903960508 0.2500000000000000 0.5000000000000000	-0.186355
N	0.7500000340000028 0.3996434096039492 0.5000000000000000	-0.186334
N	0.7500000340000028 0.1003565903960509 0.5000000000000000	-0.186333
N	0.3996434096039492 0.7500000340000028 0.5000000000000000	-0.186334
N	0.1003565903960509 0.7500000340000028 0.5000000000000000	-0.186333
N	0.2500000000000000 0.8996434096039492 0.5000000000000000	-0.186356
N	0.2500000000000000 0.6003565903960508 0.5000000000000000	-0.186356
N	0.8996434096039492 0.7500000340000028 0.5000000000000000	-0.186357
N	0.6003565903960508 0.7500000340000028 0.5000000000000000	-0.186356
N	0.7500000340000028 0.8996434096039492 0.5000000000000000	-0.186356
N	0.7500000340000028 0.6003565903960508 0.5000000000000000	-0.186355
	  	
