#======================================================================

# CRYSTAL DATA

#----------------------------------------------------------------------

data_VESTA_phase_1


_pd_phase_name                         GeFSIX_5_Cd_i
_cell_length_a                         20.30628
_cell_length_b                         20.30628
_cell_length_c                         16.22335
_cell_angle_alpha                      90
_cell_angle_beta                       90
_cell_angle_gamma                      90
_symmetry_space_group_name_H-M         P 1
_symmetry_Int_Tables_number            1

loop_
_symmetry_equiv_pos_as_xyz
   x, y, z

loop_
   _atom_site_label
   _atom_site_fract_x
   _atom_site_fract_y
   _atom_site_fract_z
   _atom_site_charge
F	0.3188023542260646 0.1921665681168412 0.3506859480104009	-0.571362
F	0.1811976337739344 0.3078334318831587 0.3506859480104009	-0.571366
F	0.3078334318831587 0.3188023542260646 0.3506859480104009	-0.571365
F	0.1921665681168412 0.1811976337739344 0.3506859480104009	-0.571363
F	0.6811976697739301 0.6921665921168436 0.1493140519895991	-0.571363
F	0.8188023302260699 0.8078334078831564 0.1493140519895991	-0.571365
F	0.6921665921168436 0.8188023302260699 0.1493140519895991	-0.571366
F	0.8078334078831564 0.6811976697739301 0.1493140519895991	-0.571363
F	0.6811976697739301 0.8078334078831564 0.6493140839896020	-0.571368
F	0.8188023302260699 0.6921665921168436 0.6493140839896020	-0.571364
F	0.6921665921168436 0.6811976697739301 0.6493140839896020	-0.571365
F	0.8078334078831564 0.8188023302260699 0.6493140839896020	-0.571367
F	0.3188023542260646 0.3078334318831587 0.8506859160103980	-0.571367
F	0.1811976337739344 0.1921665681168412 0.8506859160103980	-0.571365
F	0.3078334318831587 0.1811976337739344 0.8506859160103980	-0.571365
F	0.1921665681168412 0.3188023542260646 0.8506859160103980	-0.571368
F	0.2500000000000000 0.2500000000000000 0.4645135742407578	-0.525483
F	0.2500000000000000 0.2500000000000000 0.2368770480175037	-0.524863
F	0.7500000000000000 0.7500000000000000 0.0354864527592407	-0.525483
F	0.7500000000000000 0.7500000000000000 0.2631229359824950	-0.524863
F	0.7500000000000000 0.7500000000000000 0.5354864567592409	-0.525530
F	0.7500000000000000 0.7500000000000000 0.7631229359824954	-0.524867
F	0.2500000000000000 0.2500000000000000 0.9645135432407591	-0.525530
F	0.2500000000000000 0.2500000000000000 0.7368770640175046	-0.524867
N	0.3644761302931659 0.2472076848616057 0.6013244023680491	-0.243732
N	0.1355238697068341 0.2527923151383943 0.6013244023680491	-0.243732
N	0.2527923151383943 0.3644761302931659 0.6013244023680491	-0.243733
N	0.2472076848616057 0.1355238697068341 0.6013244023680491	-0.243732
N	0.6355238937068365 0.7472076608616035 0.8986755976319509	-0.243732
N	0.8644761062931635 0.7527923391383965 0.8986755976319509	-0.243733
N	0.7472076608616035 0.8644761062931635 0.8986755976319509	-0.243733
N	0.7527923391383965 0.6355238937068365 0.8986755976319509	-0.243732
N	0.6355238937068365 0.7527923391383965 0.3986756286319497	-0.243731
N	0.8644761062931635 0.7472076608616035 0.3986756286319497	-0.243731
N	0.7472076608616035 0.6355238937068365 0.3986756286319497	-0.243730
N	0.7527923391383965 0.8644761062931635 0.3986756286319497	-0.243732
N	0.3644761302931659 0.2527923151383943 0.1013244023680493	-0.243731
N	0.1355238697068341 0.2472076848616057 0.1013244023680493	-0.243730
N	0.2527923151383943 0.1355238697068341 0.1013244023680493	-0.243730
N	0.2472076848616057 0.3644761302931659 0.1013244023680493	-0.243731
C	0.3966339022722411 0.2192269744285595 0.6648277789060667	0.104008
C	0.4649999117900645 0.2176807450553560 0.6684300813458074	-0.177794
C	0.5021083850863238 0.2471767789165301 0.6054359222573694	0.106253
C	0.4674672205639207 0.2764052565363423 0.5400363586436758	-0.179409
C	0.3990189892505441 0.2749539796840569 0.5396521863699622	0.104551
C	0.5746443316278225 0.2479272180149470 0.6083569054402923	0.055215
C	0.6100248231826880 0.1929340456410174 0.6370355761370194	-0.130544
C	0.6784883959052094 0.1937139823696516 0.6392763143719609	-0.124241
C	0.7137560362251714 0.2497803071009873 0.6142991872098561	0.067403
C	0.6784270996636275 0.3050447473090698 0.5868680240874217	-0.120640
C	0.6100079578439164 0.3039593809402976 0.5831436335940019	-0.126378
C	0.1033660737277640 0.2807730495714425 0.6648277789060667	0.104008
C	0.0350000282099377 0.2823192789446461 0.6684300813458074	-0.177796
C	-0.0021084060863219 0.2528232210834700 0.6054359222573694	0.106250
C	0.0325328064360780 0.2235947434636576 0.5400363586436758	-0.179404
C	0.1009809747494529 0.2250460443159452 0.5396521863699622	0.104549
C	0.9253556203721807 0.2520727579850510 0.6083569054402923	0.055215
C	0.8899752248173088 0.3070659893589819 0.6370355761370194	-0.130542
C	0.8215116040947906 0.3062860296303423 0.6392763143719609	-0.124240
C	0.7862439637748286 0.2502196688990108 0.6142991872098561	0.067402
C	0.8215729473363729 0.1949552526909303 0.5868680240874217	-0.120636
C	0.8899921381560845 0.1960406540597017 0.5831436335940019	-0.126377
C	0.2807730495714425 0.3966339022722411 0.6648277789060667	0.104010
C	0.2823192789446461 0.4649999117900645 0.6684300813458074	-0.177796
C	0.2528232210834700 0.5021083850863238 0.6054359222573694	0.106252
C	0.2235947434636576 0.4674672205639207 0.5400363586436758	-0.179406
C	0.2250460443159452 0.3990189892505441 0.5396521863699622	0.104552
C	0.2520727579850510 0.5746443316278225 0.6083569054402923	0.055215
C	0.3070659893589819 0.6100248231826880 0.6370355761370194	-0.130545
C	0.3062860296303423 0.6784883959052094 0.6392763143719609	-0.124242
C	0.2502196688990108 0.7137560362251714 0.6142991872098561	0.067401
C	0.1949552526909303 0.6784270996636275 0.5868680240874217	-0.120639
C	0.1960406540597017 0.6100079578439164 0.5831436335940019	-0.126379
C	0.2192269744285595 0.1033660737277640 0.6648277789060667	0.104008
C	0.2176807450553560 0.0350000282099377 0.6684300813458074	-0.177793
C	0.2471767789165301 -0.0021084060863219 0.6054359222573694	0.106252
C	0.2764052565363423 0.0325328064360780 0.5400363586436758	-0.179406
C	0.2749539796840569 0.1009809747494529 0.5396521863699622	0.104549
C	0.2479272180149470 0.9253556203721807 0.6083569054402923	0.055216
C	0.1929340456410174 0.8899752248173088 0.6370355761370194	-0.130541
C	0.1937139823696516 0.8215116040947906 0.6392763143719609	-0.124239
C	0.2497803071009873 0.7862439637748286 0.6142991872098561	0.067404
C	0.3050447473090698 0.8215729473363729 0.5868680240874217	-0.120637
C	0.3039593809402976 0.8899921381560845 0.5831436335940019	-0.126376
C	0.6033660737277643 0.7192270224285566 0.8351722210939333	0.104007
C	0.5350000402099386 0.7176807690553512 0.8315699186541926	-0.177792
C	0.4978916149136763 0.7471768269165268 0.8945640777426306	0.106251
C	0.5325328754360803 0.7764052085363385 0.9599636413563242	-0.179405
C	0.6009810347494507 0.7749540036840517 0.9603478136300378	0.104548
C	0.4253556683721771 0.7479272900149461 0.8916430945597077	0.055216
C	0.3899751768173121 0.6929340106410180 0.8629644238629806	-0.130542
C	0.3215115320947851 0.6937139463696559 0.8607236856280391	-0.124240
C	0.2862440117748326 0.7497803311009895 0.8857008127901439	0.067401
C	0.3215728523363688 0.8050447473090697 0.9131319759125783	-0.120638
C	0.3899920661560782 0.8039593099402950 0.9168563664059981	-0.126376
C	0.8966339262722357 0.7807729775714434 0.8351722210939333	0.104010
C	0.9649999597900614 0.7823192309446488 0.8315699186541926	-0.177798
C	0.0021084330863204 0.7528231730834732 0.8945640777426306	0.106252
C	0.9674671725639237 0.7235947914636615 0.9599636413563242	-0.179402
C	0.8990189652505493 0.7250459963159483 0.9603478136300378	0.104550
C	0.0746443676278187 0.7520727099850539 0.8916430945597077	0.055214
C	0.1100248111826871 0.8070659893589820 0.8629644238629806	-0.130543
C	0.1784884439052130 0.8062860056303472 0.8607236856280391	-0.124241
C	0.2137559882251675 0.7502196688990105 0.8857008127901439	0.067403
C	0.1784271236636292 0.6949552526909303 0.9131319759125783	-0.120638
C	0.1100079338439218 0.6960406430597047 0.9168563664059981	-0.126379
C	0.7192270224285566 0.8966339262722357 0.8351722210939333	0.104011
C	0.7176807690553512 0.9649999597900614 0.8315699186541926	-0.177794
C	0.7471768269165268 0.0021084330863204 0.8945640777426306	0.106251
C	0.7764052085363385 0.9674671725639237 0.9599636413563242	-0.179405
C	0.7749540036840517 0.8990189652505493 0.9603478136300378	0.104550
C	0.7479272900149461 0.0746443676278187 0.8916430945597077	0.055215
C	0.6929340106410180 0.1100248111826871 0.8629644238629806	-0.130544
C	0.6937139463696559 0.1784884439052130 0.8607236856280391	-0.124240
C	0.7497803311009895 0.2137559882251675 0.8857008127901439	0.067402
C	0.8050447473090697 0.1784271236636292 0.9131319759125783	-0.120638
C	0.8039593099402950 0.1100079338439218 0.9168563664059981	-0.126379
C	0.7807729775714434 0.6033660737277643 0.8351722210939333	0.104007
C	0.7823192309446488 0.5350000402099386 0.8315699186541926	-0.177795
C	0.7528231730834732 0.4978916149136763 0.8945640777426306	0.106252
C	0.7235947914636615 0.5325328754360803 0.9599636413563242	-0.179401
C	0.7250459963159483 0.6009810347494507 0.9603478136300378	0.104549
C	0.7520727099850539 0.4253556683721771 0.8916430945597077	0.055216
C	0.8070659893589820 0.3899751768173121 0.8629644238629806	-0.130541
C	0.8062860056303472 0.3215115320947851 0.8607236856280391	-0.124242
C	0.7502196688990105 0.2862440117748326 0.8857008127901439	0.067403
C	0.6949552526909303 0.3215728523363688 0.9131319759125783	-0.120638
C	0.6960406430597047 0.3899920661560782 0.9168563664059981	-0.126376
C	0.6033660737277643 0.7807729775714434 0.3351722520939320	0.104009
C	0.5350000402099386 0.7823192309446488 0.3315699186541924	-0.177795
C	0.4978916149136763 0.7528231730834732 0.3945640777426307	0.106251
C	0.5325328754360803 0.7235947914636615 0.4599636723563306	-0.179401
C	0.6009810347494507 0.7250459963159483 0.4603478136300380	0.104548
C	0.4253556683721771 0.7520727099850539 0.3916430945597077	0.055215
C	0.3899751768173121 0.8070659893589820 0.3629643928629820	-0.130540
C	0.3215115320947851 0.8062860056303472 0.3607237166280381	-0.124242
C	0.2862440117748326 0.7502196688990105 0.3857007187901433	0.067402
C	0.3215728523363688 0.6949552526909303 0.4131320069125773	-0.120637
C	0.3899920661560782 0.6960406430597047 0.4168563664059983	-0.126376
C	0.8966339262722357 0.7192270224285566 0.3351722520939320	0.104009
C	0.9649999597900614 0.7176807690553512 0.3315699186541924	-0.177793
C	0.0021084330863204 0.7471768269165268 0.3945640777426307	0.106254
C	0.9674671725639237 0.7764052085363385 0.4599636723563306	-0.179406
C	0.8990189652505493 0.7749540036840517 0.4603478136300380	0.104551
C	0.0746443676278187 0.7479272900149461 0.3916430945597077	0.055215
C	0.1100248111826871 0.6929340106410180 0.3629643928629820	-0.130543
C	0.1784884439052130 0.6937139463696559 0.3607237166280381	-0.124242
C	0.2137559882251675 0.7497803311009895 0.3857007187901433	0.067404
C	0.1784271236636292 0.8050447473090697 0.4131320069125773	-0.120640
C	0.1100079338439218 0.8039593099402950 0.4168563664059983	-0.126377
C	0.7192270224285566 0.6033660737277643 0.3351722520939320	0.104009
C	0.7176807690553512 0.5350000402099386 0.3315699186541924	-0.177793
C	0.7471768269165268 0.4978916149136763 0.3945640777426307	0.106252
C	0.7764052085363385 0.5325328754360803 0.4599636723563306	-0.179403
C	0.7749540036840517 0.6009810347494507 0.4603478136300380	0.104548
C	0.7479272900149461 0.4253556683721771 0.3916430945597077	0.055216
C	0.6929340106410180 0.3899751768173121 0.3629643928629820	-0.130540
C	0.6937139463696559 0.3215115320947851 0.3607237166280381	-0.124241
C	0.7497803311009895 0.2862440117748326 0.3857007187901433	0.067404
C	0.8050447473090697 0.3215728523363688 0.4131320069125773	-0.120638
C	0.8039593099402950 0.3899920661560782 0.4168563664059983	-0.126375
C	0.7807729775714434 0.8966339262722357 0.3351722520939320	0.104010
C	0.7823192309446488 0.9649999597900614 0.3315699186541924	-0.177795
C	0.7528231730834732 0.0021084330863204 0.3945640777426307	0.106252
C	0.7235947914636615 0.9674671725639237 0.4599636723563306	-0.179403
C	0.7250459963159483 0.8990189652505493 0.4603478136300380	0.104552
C	0.7520727099850539 0.0746443676278187 0.3916430945597077	0.055215
C	0.8070659893589820 0.1100248111826871 0.3629643928629820	-0.130544
C	0.8062860056303472 0.1784884439052130 0.3607237166280381	-0.124243
C	0.7502196688990105 0.2137559882251675 0.3857007187901433	0.067402
C	0.6949552526909303 0.1784271236636292 0.4131320069125773	-0.120639
C	0.6960406430597047 0.1100079338439218 0.4168563664059983	-0.126378
C	0.3966339022722411 0.2807730495714425 0.1648277639060692	0.104010
C	0.4649999117900645 0.2823192789446461 0.1684300503458084	-0.177797
C	0.5021083850863238 0.2528232210834700 0.1054359222573692	0.106253
C	0.4674672205639207 0.2235947434636576 0.0400363236436763	-0.179402
C	0.3990189892505441 0.2250460443159452 0.0396521783699613	0.104551
C	0.5746443316278225 0.2520727579850510 0.1083568974402917	0.055215
C	0.6100248231826880 0.3070659893589819 0.1370355761370192	-0.130543
C	0.6784883959052094 0.3062860296303423 0.1392762673719606	-0.124242
C	0.7137560362251714 0.2502196688990108 0.1142992582098584	0.067404
C	0.6784270996636275 0.1949552526909303 0.0868680080874205	-0.120639
C	0.6100079578439164 0.1960406540597017 0.0831436485939994	-0.126378
C	0.1033660737277640 0.2192269744285595 0.1648277639060692	0.104007
C	0.0350000282099377 0.2176807450553560 0.1684300503458084	-0.177791
C	-0.0021084060863219 0.2471767789165301 0.1054359222573692	0.106251
C	0.0325328064360780 0.2764052565363423 0.0400363236436763	-0.179405
C	0.1009809747494529 0.2749539796840569 0.0396521783699613	0.104549
C	0.9253556203721807 0.2479272180149470 0.1083568974402917	0.055216
C	0.8899752248173088 0.1929340456410174 0.1370355761370192	-0.130542
C	0.8215116040947906 0.1937139823696516 0.1392762673719606	-0.124241
C	0.7862439637748286 0.2497803071009873 0.1142992582098584	0.067402
C	0.8215729473363729 0.3050447473090698 0.0868680080874205	-0.120638
C	0.8899921381560845 0.3039593809402976 0.0831436485939994	-0.126375
C	0.2807730495714425 0.1033660737277640 0.1648277639060692	0.104007
C	0.2823192789446461 0.0350000282099377 0.1684300503458084	-0.177795
C	0.2528232210834700 -0.0021084060863219 0.1054359222573692	0.106253
C	0.2235947434636576 0.0325328064360780 0.0400363236436763	-0.179401
C	0.2250460443159452 0.1009809747494529 0.0396521783699613	0.104550
C	0.2520727579850510 0.9253556203721807 0.1083568974402917	0.055216
C	0.3070659893589819 0.8899752248173088 0.1370355761370192	-0.130541
C	0.3062860296303423 0.8215116040947906 0.1392762673719606	-0.124242
C	0.2502196688990108 0.7862439637748286 0.1142992582098584	0.067403
C	0.1949552526909303 0.8215729473363729 0.0868680080874205	-0.120638
C	0.1960406540597017 0.8899921381560845 0.0831436485939994	-0.126376
C	0.2192269744285595 0.3966339022722411 0.1648277639060692	0.104011
C	0.2176807450553560 0.4649999117900645 0.1684300503458084	-0.177793
C	0.2471767789165301 0.5021083850863238 0.1054359222573692	0.106252
C	0.2764052565363423 0.4674672205639207 0.0400363236436763	-0.179405
C	0.2749539796840569 0.3990189892505441 0.0396521783699613	0.104550
C	0.2479272180149470 0.5746443316278225 0.1083568974402917	0.055215
C	0.1929340456410174 0.6100248231826880 0.1370355761370192	-0.130544
C	0.1937139823696516 0.6784883959052094 0.1392762673719606	-0.124241
C	0.2497803071009873 0.7137560362251714 0.1142992582098584	0.067403
C	0.3050447473090698 0.6784270996636275 0.0868680080874205	-0.120638
C	0.3039593809402976 0.6100079578439164 0.0831436485939994	-0.126377
H	0.3662802050694610 0.1988570287153984 0.7143414340606750	0.101729
H	0.4891152431607899 0.1953125341038110 0.7214576287519943	0.115220
H	0.4936253277727466 0.2989813703735693 0.4886804885854227	0.114320
H	0.3704689116503534 0.2955725938622458 0.4886393440290069	0.102079
H	0.5834577549124369 0.1487793804826640 0.6563816563014528	0.100872
H	0.7053560710957419 0.1508361305816649 0.6618162685812961	0.101375
H	0.7052289510303210 0.3485177870079014 0.5660609744612535	0.102800
H	0.5834996951459597 0.3474612233913801 0.5615563221589507	0.104300
H	0.1337197589305361 0.3011429952846035 0.7143414340606750	0.101728
H	0.0108847628392035 0.3046874898961909 0.7214576287519943	0.115223
H	0.0063746612272562 0.2010186416264317 0.4886804885854227	0.114318
H	0.1295311123496485 0.2044273941377534 0.4886393440290069	0.102079
H	0.9165422920875634 0.3512206195173360 0.6563816563014528	0.100873
H	0.7946439289042581 0.3491638574183341 0.6618162685812961	0.101375
H	0.7947710489696790 0.1514822249920995 0.5660609744612535	0.102805
H	0.9165003048540403 0.1525387646086260 0.5615563221589507	0.104303
H	0.3011429952846035 0.3662802050694610 0.7143414340606750	0.101730
H	0.3046874898961909 0.4891152431607899 0.7214576287519943	0.115223
H	0.2010186416264317 0.4936253277727466 0.4886804885854227	0.114319
H	0.2044273941377534 0.3704689116503534 0.4886393440290069	0.102078
H	0.3512206195173360 0.5834577549124369 0.6563816563014528	0.100871
H	0.3491638574183341 0.7053560710957419 0.6618162685812961	0.101374
H	0.1514822249920995 0.7052289510303210 0.5660609744612535	0.102802
H	0.1525387646086260 0.5834996951459597 0.5615563221589507	0.104303
H	0.1988570287153984 0.1337197589305361 0.7143414340606750	0.101728
H	0.1953125341038110 0.0108847628392035 0.7214576287519943	0.115220
H	0.2989813703735693 0.0063746612272562 0.4886804885854227	0.114319
H	0.2955725938622458 0.1295311123496485 0.4886393440290069	0.102079
H	0.1487793804826640 0.9165422920875634 0.6563816563014528	0.100874
H	0.1508361305816649 0.7946439289042581 0.6618162685812961	0.101376
H	0.3485177870079014 0.7947710489696790 0.5660609744612535	0.102802
H	0.3474612233913801 0.9165003048540403 0.5615563221589507	0.104300
H	0.6337197469305349 0.6988570287153985 0.7856585659393250	0.101728
H	0.5108847088392063 0.6953125101038091 0.7785423712480057	0.115221
H	0.5063746722272537 0.7989813703735690 0.0113194964145726	0.114316
H	0.6295310883496464 0.7955725698622438 0.0113606839709954	0.102078
H	0.4165422450875630 0.6487793804826636 0.8436183436985472	0.100873
H	0.2946439529042599 0.6508361425816662 0.8381837314187039	0.101376
H	0.2947710489696794 0.8485177870079016 0.9339390255387465	0.102802
H	0.4165003528540374 0.8474612473913749 0.9384436778410493	0.104303
H	0.8662803010694620 0.8011430192846055 0.7856585659393250	0.101729
H	0.9891151951607928 0.8046874898961909 0.7785423712480057	0.115222
H	0.9936252797727494 0.7010186296264310 0.0113194964145726	0.114318
H	0.8704688156503526 0.7044274301377562 0.0113606839709954	0.102080
H	0.0834577549124369 0.8512206195173364 0.8436183436985472	0.100871
H	0.2053560470957400 0.8491638574183338 0.8381837314187039	0.101374
H	0.2052289510303207 0.6514822609920953 0.9339390255387465	0.102803
H	0.0834996891459591 0.6525387526086251 0.9384436778410493	0.104301
H	0.6988570287153985 0.8662803010694620 0.7856585659393250	0.101729
H	0.6953125101038091 0.9891151951607928 0.7785423712480057	0.115221
H	0.7989813703735690 0.9936252797727494 0.0113194964145726	0.114319
H	0.7955725698622438 0.8704688156503527 0.0113606839709954	0.102080
H	0.6487793804826636 0.0834577549124369 0.8436183436985472	0.100873
H	0.6508361425816662 0.2053560470957400 0.8381837314187039	0.101375
H	0.8485177870079016 0.2052289510303207 0.9339390255387465	0.102801
H	0.8474612473913749 0.0834996891459591 0.9384436778410493	0.104301
H	0.8011430192846055 0.6337197469305349 0.7856585659393250	0.101728
H	0.8046874898961909 0.5108847088392063 0.7785423712480057	0.115221
H	0.7010186296264310 0.5063746722272537 0.0113194964145726	0.114315
H	0.7044274301377562 0.6295310883496464 0.0113606839709954	0.102077
H	0.8512206195173364 0.4165422450875630 0.8436183436985472	0.100871
H	0.8491638574183338 0.2946439529042599 0.8381837314187039	0.101375
H	0.6514822609920953 0.2947710489696794 0.9339390255387465	0.102804
H	0.6525387526086251 0.4165003528540374 0.9384436778410493	0.104303
H	0.6337197469305349 0.8011430192846055 0.2856585979393204	0.101728
H	0.5108847088392063 0.8046874898961909 0.2785424022480048	0.115222
H	0.5063746722272537 0.7010186296264310 0.5113194804145782	0.114314
H	0.6295310883496466 0.7044274301377562 0.5113606559709930	0.102078
H	0.4165422450875630 0.8512206195173364 0.3436183126985481	0.100872
H	0.2946439529042599 0.8491638574183338 0.3381836994187015	0.101375
H	0.2947710489696794 0.6514822609920953 0.4339390565387458	0.102805
H	0.4165003528540374 0.6525387526086251 0.4384437398410473	0.104302
H	0.8662803010694620 0.6988570287153985 0.2856585979393204	0.101729
H	0.9891151951607928 0.6953125101038091 0.2785424022480048	0.115219
H	0.9936252797727494 0.7989813703735690 0.5113194804145782	0.114317
H	0.8704688156503526 0.7955725698622438 0.5113606559709930	0.102078
H	0.0834577549124369 0.6487793804826636 0.3436183126985481	0.100872
H	0.2053560470957400 0.6508361425816662 0.3381836994187015	0.101375
H	0.2052289510303207 0.8485177870079016 0.4339390565387458	0.102800
H	0.0834996891459591 0.8474612473913749 0.4384437398410473	0.104299
H	0.6988570287153985 0.6337197469305349 0.2856585979393204	0.101727
H	0.6953125101038091 0.5108847088392063 0.2785424022480048	0.115219
H	0.7989813703735690 0.5063746722272537 0.5113194804145782	0.114315
H	0.7955725698622438 0.6295310883496464 0.5113606559709930	0.102078
H	0.6487793804826636 0.4165422450875630 0.3436183126985481	0.100873
H	0.6508361425816662 0.2946439529042599 0.3381836994187015	0.101376
H	0.8485177870079016 0.2947710489696794 0.4339390565387458	0.102802
H	0.8474612473913749 0.4165003528540374 0.4384437398410473	0.104299
H	0.8011430192846055 0.8662803010694620 0.2856585979393204	0.101729
H	0.8046874898961909 0.9891151951607928 0.2785424022480048	0.115222
H	0.7010186296264310 0.9936252797727494 0.5113194804145782	0.114316
H	0.7044274301377562 0.8704688156503527 0.5113606559709930	0.102078
H	0.8512206195173364 0.0834577549124369 0.3436183126985481	0.100870
H	0.8491638574183338 0.2053560470957400 0.3381836994187015	0.101374
H	0.6514822609920953 0.2052289510303207 0.4339390565387458	0.102802
H	0.6525387526086251 0.0834996891459591 0.4384437398410473	0.104302
H	0.3662802050694610 0.3011429952846035 0.2143414340606750	0.101729
H	0.4891152431607899 0.3046874898961909 0.2214576437519989	0.115221
H	0.4936253277727466 0.2010186416264317 0.9886805505854279	0.114316
H	0.3704689116503534 0.2044273941377534 0.9886393130290080	0.102079
H	0.5834577549124369 0.3512206195173360 0.1563816713014506	0.100871
H	0.7053560710957419 0.3491638574183341 0.1618163155812961	0.101374
H	0.7052289510303210 0.1514822249920995 0.0660609354612537	0.102803
H	0.5834996951459597 0.1525387646086260 0.0615562831589511	0.104300
H	0.1337197589305361 0.1988570287153984 0.2143414340606750	0.101728
H	0.0108847628392035 0.1953125341038110 0.2214576437519989	0.115220
H	0.0063746612272562 0.2989813703735693 0.9886805505854279	0.114315
H	0.1295311123496485 0.2955725938622458 0.9886393130290080	0.102077
H	0.9165422920875634 0.1487793804826640 0.1563816713014506	0.100873
H	0.7946439289042581 0.1508361305816649 0.1618163155812961	0.101376
H	0.7947710489696790 0.3485177870079014 0.0660609354612537	0.102802
H	0.9165003048540403 0.3474612233913801 0.0615562831589511	0.104301
H	0.3011429952846035 0.1337197589305361 0.2143414340606750	0.101728
H	0.3046874898961909 0.0108847628392035 0.2214576437519989	0.115220
H	0.2010186416264317 0.0063746612272562 0.9886805505854279	0.114313
H	0.2044273941377534 0.1295311123496485 0.9886393130290080	0.102076
H	0.3512206195173360 0.9165422920875634 0.1563816713014506	0.100870
H	0.3491638574183341 0.7946439289042581 0.1618163155812961	0.101375
H	0.1514822249920995 0.7947710489696790 0.0660609354612537	0.102804
H	0.1525387646086260 0.9165003048540403 0.0615562831589511	0.104301
H	0.1988570287153984 0.3662802050694610 0.2143414340606750	0.101728
H	0.1953125341038110 0.4891152431607899 0.2214576437519989	0.115220
H	0.2989813703735693 0.4936253277727466 0.9886805505854279	0.114317
H	0.2955725938622458 0.3704689116503534 0.9886393130290080	0.102079
H	0.1487793804826640 0.5834577549124369 0.1563816713014506	0.100873
H	0.1508361305816649 0.7053560710957419 0.1618163155812961	0.101375
H	0.3485177870079014 0.7052289510303210 0.0660609354612537	0.102801
H	0.3474612233913801 0.5834996951459597 0.0615562831589511	0.104299
Cd	0.2500000000000000 0.2500000000000000 0.6006043172163166	0.823215
Cd	0.7500000000000000 0.7500000000000000 0.8993956827836834	0.823215
Cd	0.7500000000000000 0.7500000000000000 0.3993956207836847	0.823216
Cd	0.2500000000000000 0.2500000000000000 0.1006043402163155	0.823216
Ge	0.2500000000000000 0.2500000000000000 0.3508015167668474	1.803011
Ge	0.7500000000000000 0.7500000000000000 0.1491984982331505	1.803011
Ge	0.7500000000000000 0.7500000000000000 0.6491985762331498	1.803065
Ge	0.2500000000000000 0.2500000000000000 0.8508014237668502	1.803065
	  	
