#======================================================================

# CRYSTAL DATA

#----------------------------------------------------------------------

data_VESTA_phase_1


_pd_phase_name                         GeFSIX_14_Ni_i
_cell_length_a                         13.26881
_cell_length_b                         13.25187
_cell_length_c                         7.85385
_cell_angle_alpha                      87.45750
_cell_angle_beta                       87.44244
_cell_angle_gamma                      89.38889
_symmetry_space_group_name_H-M         P 1
_symmetry_Int_Tables_number            1

loop_
_symmetry_equiv_pos_as_xyz
   x, y, z

loop_
   _atom_site_label
   _atom_site_fract_x
   _atom_site_fract_y
   _atom_site_fract_z
   _atom_site_charge
C	0.5682695513663814 0.2699370537043608 0.3657450356838974	-0.180192
C	0.4634470004061161 0.2736223811971566 0.3704890507880789	0.110158
C	0.9376086281206187 0.2895867375023084 0.4189127743216192	-0.169660
C	0.0420690286974769 0.2821147593827138 0.4042810497263185	0.111426
C	0.2679771431361920 0.5678253674844437 0.3679361849839368	-0.181790
C	0.2717300413794163 0.4628374088462742 0.3728769336956448	0.112391
C	0.2970317702439269 0.9373240548330378 0.4135344873115502	-0.171566
C	0.2885858572189148 0.0418545118287708 0.4001348606376114	0.109506
C	0.9320936472829106 0.2327750546482171 0.1321045010610838	-0.180108
C	0.0369347031720276 0.2292454580570082 0.1269819133917824	0.110312
C	0.5628436396224931 0.2059342081546264 0.0837506983268016	-0.170728
C	0.4583818436635789 0.2139585149447713 0.0975676946306221	0.111141
C	0.2069993255033246 0.5622503972535151 0.0839266871974330	-0.173825
C	0.2151654624831895 0.4577340310809093 0.0979653641444962	0.110218
C	0.2291628422290726 0.9317483720885388 0.1344568564879464	-0.179917
C	0.2254384747146938 0.0367280721407886 0.1297274657716194	0.111379
C	0.4321764169170350 0.7343111907759825 0.6314025239583063	-0.176895
C	0.5369459103563011 0.7319319018094281 0.6256747059922728	0.110831
C	0.0624596010514388 0.7275304521347289 0.5719747452036612	-0.160418
C	0.9578737533922353 0.7301809269772578 0.5894483370045520	0.112389
C	0.7348091325613892 0.4322449909280989 0.6312065075809027	-0.177667
C	0.7327553077170623 0.5371527711026115 0.6255878288159010	0.113563
C	0.7144027217957539 0.0622149706129450 0.5777717153106858	-0.161316
C	0.7192489385787167 0.9575192026820853 0.5937569459779450	0.110581
C	0.0680293065553706 0.7630067491580004 0.8700107291405540	-0.178909
C	0.9632378583820365 0.7646480551220898 0.8761665536872806	0.111847
C	0.4378029488702355 0.7784974209773178 0.9255093571869336	-0.161958
C	0.5423919370962392 0.7749982823455152 0.9084988288838248	0.112491
C	0.7793542704841685 0.4376311997626451 0.9251295242811112	-0.163705
C	0.7755099207344121 0.5423379027900085 0.9085839393762362	0.112495
C	0.7677681379333967 0.0677136287485601 0.8669604263987475	-0.176896
C	0.7706071758524532 0.9628200032229977 0.8721215323935350	0.112592
C	0.6194823168299971 0.2358135015415028 0.2186571547354364	0.188680
C	0.8809363721286403 0.2630344214923996 0.2818725008591763	0.189289
C	0.2353607158474731 0.6189502952311525 0.2198440969132904	0.192666
C	0.2653591535730386 0.8805957054005360 0.2799376589573935	0.188801
C	0.3811339592919039 0.7575057390276804 0.7855827899579835	0.188366
C	0.1191081723980578 0.7446109347323102 0.7137149654998804	0.187626
C	0.7579657505474023 0.3809964749335732 0.7851895879796951	0.187688
C	0.7397398434197358 0.1188695746977551 0.7155403476143765	0.186048
H	0.6094063579478387 0.2886235115895929 0.4767955953931571	0.109727
H	0.4215092328484701 0.2971706263995958 0.4847121945374263	0.096510
H	0.9008480667264092 0.3154050180418908 0.5356914436183875	0.123707
H	0.0879684779410295 0.3012161634165335 0.5095227165626317	0.097464
H	0.2856169327897718 0.6092751980723381 0.4792686307356265	0.112058
H	0.2942097569047719 0.4208062787307063 0.4876790569380766	0.094852
H	0.3273793281441614 0.9004739649021550 0.5268226758224511	0.124778
H	0.3110149532969956 0.0878442162323547 0.5033009919540672	0.098570
H	0.8908410144606957 0.2168247970917926 0.0197563511226763	0.109697
H	0.0788911276481124 0.2083281360621767 0.0111309023054500	0.095516
H	0.5996838350917679 0.1770079893909622 0.9693226837878689	0.124546
H	0.4125306068566558 0.1925421107059017 0.9936586815800037	0.098113
H	0.1795474957461323 0.5990257514521186 0.9683434627328120	0.124606
H	0.1951232047290758 0.4117745361176819 0.9932386163149904	0.098050
H	0.2087120144750446 0.8904023962232519 0.0245965128802350	0.112155
H	0.2004899291519669 0.0787493190296911 0.0165676168594776	0.095698
H	0.3914008629931868 0.7212090785374535 0.5171206607471820	0.104115
H	0.5789917180507383 0.7143928270335417 0.5081359365031825	0.095852
H	0.0991897735982092 0.7124802497130956 0.4492428249742891	0.121714
H	0.9122868629999272 0.7164486693600660 0.4813634759439632	0.095567
H	0.7220327829202807 0.3913499812131785 0.5169067757075427	0.105001
H	0.7156254570212969 0.5794075623977416 0.5080473721364323	0.095500
H	0.6911361449414860 0.0991760363667612 0.4595332201044265	0.123024
H	0.6999535032788504 0.9117672996370590 0.4884792498966499	0.096913
H	0.1088684855443581 0.7731178712425087 0.9853515173731331	0.103671
H	0.9211971636171845 0.7784961893329179 0.9953220592439374	0.095376
H	0.4010419240072201 0.7973002743491477 0.0464703401750026	0.122772
H	0.5880212611011527 0.7916568515931806 0.0152172300419355	0.096833
H	0.7986120659076229 0.4006748511383790 0.0456628681578902	0.122778
H	0.7920318051679587 0.5880129459577177 0.0154194762900592	0.096303
H	0.7836179504808852 0.1085804087848840 0.9799595236149518	0.105813
H	0.7913653028410754 0.9206509428593119 0.9878633763409852	0.096695
N	0.7748633214984092 0.2756896234681548 0.2989177717178523	-0.105152
N	0.2792599434289718 0.7744381354689822 0.2943724508471914	-0.107324
N	0.7255686016122840 0.2227201029851315 0.2020409924128233	-0.104453
N	0.2217589338844364 0.7250874510186482 0.2050984671329029	-0.104133
N	0.2252686901777981 0.7389411949287240 0.6869770913067336	-0.098903
N	0.7315119920352903 0.2251655915664236 0.6912090581581342	-0.100999
N	0.2749562089156400 0.7637592957053753 0.8120771171847261	-0.100829
N	0.7655313921343484 0.2747195377410160 0.8097463496048593	-0.100643
N	0.4090055550042541 0.2471132471887649 0.2385138390619675	-0.232472
N	0.0914598478528964 0.2524435697389049 0.2608539238478151	-0.233841
N	0.2468415057798367 0.4082996340840929 0.2400109342029116	-0.234577
N	0.2535945678168006 0.0912227299927342 0.2605461924198936	-0.232827
N	0.5915956264202418 0.7515986857429746 0.7615399557131297	-0.230485
N	0.9085709270344390 0.7488386896828648 0.7386040197766655	-0.230165
N	0.7522635671249809 0.5917449528586352 0.7616411211677411	-0.231829
N	0.7472745002382302 0.9082443469684381 0.7380551073921693	-0.230474
F	0.3467666906783938 0.1502398462949314 0.7504404828152618	-0.528498
F	0.1550392276536169 0.3480602685291369 0.7491045758506630	-0.528804
F	0.3485910597008867 0.3439604489636270 0.7295699283427209	-0.528886
F	0.1530825070373966 0.1546999016024889 0.7704414599811357	-0.529214
F	0.6511237565298762 0.8469224340426609 0.2504421339188352	-0.524887
F	0.8480973796307817 0.6546572942790052 0.2495502626041509	-0.525373
F	0.6545652231522401 0.6534862994697469 0.2671768455818687	-0.526082
F	0.8445568135336774 0.8479592759923129 0.2327723277513243	-0.526468
F	0.2494115543764442 0.2473692624421904 0.5101589545877282	-0.515820
F	0.2521255615686979 0.2509950426677776 0.9896085534922241	-0.515980
F	0.7496869084691565 0.7507458762200245 0.4899151707037301	-0.513493
F	0.7494079468700408 0.7504156856460520 0.0099847366952374	-0.514893
Ge	0.2509979404250960 0.2491477407183264 0.7498893289393345	1.762601
Ge	0.7495083167588392 0.7507741920177975 0.2499286593242068	1.758406
Ni	0.2503048652592364 0.2497465147265625 0.2499092737018074	0.758805
Ni	0.7500654136116017 0.7500086399171785 0.7498636314952319	0.756786
	  	
