#======================================================================

# CRYSTAL DATA

#----------------------------------------------------------------------

data_VESTA_phase_1


_pd_phase_name                         GeFSIX_16_Zn_i
_cell_length_a                         25.15222
_cell_length_b                         25.15222
_cell_length_c                         7.73212
_cell_angle_alpha                      90
_cell_angle_beta                       90
_cell_angle_gamma                      90
_symmetry_space_group_name_H-M         P 1
_symmetry_Int_Tables_number            1

loop_
_symmetry_equiv_pos_as_xyz
   x, y, z

loop_
   _atom_site_label
   _atom_site_fract_x
   _atom_site_fract_y
   _atom_site_fract_z
   _atom_site_charge
C	0.4779809463507206 0.3870675000182551 0.3680112236034740	0.100769
C	0.4769961738035956 0.3318834621545543 0.3632812304139365	-0.172378
C	0.9550146407689015 0.6130320641761295 0.9434364874359841	-0.125289
C	0.9551523553424397 0.5578406903359441 0.9441176053940032	-0.124708
C	0.5220190916492751 0.6129325379817409 0.3680112236034740	0.100660
C	0.5230038261964043 0.6681165758454419 0.3632812304139365	-0.172143
C	0.0449852832310993 0.3869678968238709 0.9434364874359841	-0.125289
C	0.0448476636575584 0.4421593476640594 0.9441176053940032	-0.124708
C	0.6129325379817409 0.4779809463507206 0.3680112236034740	0.100660
C	0.6681165758454419 0.4769961738035956 0.3632812304139365	-0.172143
C	0.3869678968238709 0.9550146407689015 0.9434364874359841	-0.125289
C	0.4421593476640594 0.9551523553424397 0.9441176053940032	-0.124708
C	0.3870675000182551 0.5220190916492751 0.3680112236034740	0.100769
C	0.3318834621545543 0.5230038261964043 0.3632812304139365	-0.172378
C	0.6130320641761295 0.0449852832310993 0.9434364874359841	-0.125289
C	0.5578406903359441 0.0448476636575584 0.9441176053940032	-0.124708
C	0.5220190916492751 0.3870675000182551 0.6319887763965258	0.100770
C	0.5230038261964043 0.3318834621545543 0.6367187375860608	-0.172378
C	0.0449852832310993 0.6130320641761295 0.0565635245640171	-0.125289
C	0.0448476636575584 0.5578406903359441 0.0558823706059947	-0.124708
C	0.4779809463507206 0.6129325379817409 0.6319887763965258	0.100661
C	0.4769961738035956 0.6681165758454419 0.6367187375860608	-0.172142
C	0.9550146407689015 0.3869678968238709 0.0565635245640171	-0.125289
C	0.9551523553424397 0.4421593476640594 0.0558823706059947	-0.124708
C	0.3870675000182551 0.4779809463507206 0.6319887763965258	0.100770
C	0.3318834621545543 0.4769961738035956 0.6367187375860608	-0.172378
C	0.6130320641761295 0.9550146407689015 0.0565635245640171	-0.125289
C	0.5578406903359441 0.9551523553424397 0.0558823706059947	-0.124708
C	0.6129325379817409 0.5220190916492751 0.6319887763965258	0.100661
C	0.6681165758454419 0.5230038261964043 0.6367187375860608	-0.172142
C	0.3869678968238709 0.0449852832310993 0.0565635245640171	-0.125289
C	0.4421593476640594 0.0448476636575584 0.0558823706059947	-0.124708
C	0.5449853212311024 0.8869678588238747 0.5565635445640115	-0.125289
C	0.5448476446575603 0.9421593476640591 0.5558823626059941	-0.124708
C	0.0220190456492786 0.1129324809817469 0.1319887763965259	0.100769
C	0.0230038241964041 0.1681165378454459 0.1367187535860621	-0.172378
C	0.4550147167689009 0.1130321121761263 0.5565635445640115	-0.125289
C	0.4551523173424435 0.0578406373359431 0.5558823626059941	-0.124708
C	0.9779809083507249 0.8870674620182591 0.1319887763965259	0.100660
C	0.9769961738035957 0.8318834621545541 0.1367187535860621	-0.172143
C	0.1130321121761263 0.5449853212311024 0.5565635445640115	-0.125289
C	0.0578406373359431 0.5448476446575603 0.5558823626059941	-0.124708
C	0.8870674620182591 0.0220190456492786 0.1319887763965259	0.100660
C	0.8318834621545541 0.0230038241964041 0.1367187535860621	-0.172143
C	0.8869678588238747 0.4550147167689009 0.5565635445640115	-0.125289
C	0.9421593476640591 0.4551523173424435 0.5558823626059941	-0.124708
C	0.1129324809817469 0.9779809083507249 0.1319887763965259	0.100769
C	0.1681165378454459 0.9769961738035957 0.1367187535860621	-0.172378
C	0.4550147167689009 0.8869678588238747 0.4434364874359840	-0.125289
C	0.4551523173424435 0.9421593476640591 0.4441176373940061	-0.124708
C	0.9779809083507249 0.1129324809817469 0.8680112556034698	0.100770
C	0.9769961738035957 0.1681165378454459 0.8632812304139366	-0.172378
C	0.5449853212311024 0.1130321121761263 0.4434364874359840	-0.125289
C	0.5448476446575603 0.0578406373359431 0.4441176373940061	-0.124708
C	0.0220190456492786 0.8870674620182591 0.8680112556034698	0.100660
C	0.0230038241964041 0.8318834621545541 0.8632812304139366	-0.172142
C	0.8869678588238747 0.5449853212311024 0.4434364874359840	-0.125289
C	0.9421593476640591 0.5448476446575603 0.4441176373940061	-0.124708
C	0.1129324809817469 0.0220190456492786 0.8680112556034698	0.100770
C	0.1681165378454459 0.0230038241964041 0.8632812304139366	-0.172377
C	0.1130321121761263 0.4550147167689009 0.4434364874359840	-0.125289
C	0.0578406373359431 0.4551523173424435 0.4441176373940061	-0.124708
C	0.8870674620182591 0.9779809083507249 0.8680112556034697	0.100660
C	0.8318834621545541 0.9769961738035957 0.8632812304139366	-0.172142
C	0.5000000000000000 0.3029257676161454 0.5000000000000000	0.176412
C	0.5000000000000000 0.2464876818869365 0.5000000000000000	-0.116154
C	0.5000000000000000 0.1979902315265652 0.5000000000000000	-0.095163
C	0.5000000000000000 0.1415976125270522 0.5000000000000000	0.124848
C	0.5000000000000000 0.0292734044322751 0.5000000000000000	0.066779
C	0.0000000000000000 0.8029257486161400 0.0000000000000000	0.176289
C	0.0000000000000000 0.7464876618869349 0.0000000000000000	-0.116150
C	0.0000000000000000 0.6979901935265693 0.0000000000000000	-0.095160
C	0.0000000000000000 0.6415975745270490 0.0000000000000000	0.124849
C	0.0000000000000000 0.5292734184322764 0.0000000000000000	0.066779
C	0.5000000000000000 0.6970742133838569 0.5000000000000000	0.176289
C	0.5000000000000000 0.7535123761130611 0.5000000000000000	-0.116150
C	0.5000000000000000 0.8020097684734346 0.5000000000000000	-0.095161
C	0.5000000000000000 0.8584023874729478 0.5000000000000000	0.124848
C	0.5000000000000000 0.9707265815677236 0.5000000000000000	0.066778
C	0.0000000000000000 0.1970742323838546 0.0000000000000000	0.176412
C	0.0000000000000000 0.2535123181130635 0.0000000000000000	-0.116154
C	0.0000000000000000 0.3020097484734331 0.0000000000000000	-0.095163
C	0.0000000000000000 0.3584023874729478 0.0000000000000000	0.124848
C	0.0000000000000000 0.4707266195677269 0.0000000000000000	0.066778
C	0.6970742133838569 0.5000000000000000 0.5000000000000000	0.176289
C	0.7535123761130611 0.5000000000000000 0.5000000000000000	-0.116150
C	0.8020097684734346 0.5000000000000000 0.5000000000000000	-0.095161
C	0.8584023874729478 0.5000000000000000 0.5000000000000000	0.124848
C	0.9707265815677236 0.5000000000000000 0.5000000000000000	0.066778
C	0.1970742323838546 -0.0000000000000000 0.0000000000000000	0.176412
C	0.2535123181130635 -0.0000000000000000 0.0000000000000000	-0.116154
C	0.3020097484734331 -0.0000000000000000 0.0000000000000000	-0.095163
C	0.3584023874729478 -0.0000000000000000 0.0000000000000000	0.124848
C	0.4707266195677269 -0.0000000000000000 0.0000000000000000	0.066778
C	0.3029257676161454 0.5000000000000000 0.5000000000000000	0.176412
C	0.2464876818869365 0.5000000000000000 0.5000000000000000	-0.116154
C	0.1979902315265652 0.5000000000000000 0.5000000000000000	-0.095163
C	0.1415976125270522 0.5000000000000000 0.5000000000000000	0.124848
C	0.0292734044322751 0.5000000000000000 0.5000000000000000	0.066779
C	0.8029257486161400 -0.0000000000000000 0.0000000000000000	0.176289
C	0.7464876618869349 -0.0000000000000000 0.0000000000000000	-0.116150
C	0.6979901935265693 -0.0000000000000000 0.0000000000000000	-0.095160
C	0.6415975745270490 -0.0000000000000000 0.0000000000000000	0.124849
C	0.5292734184322764 -0.0000000000000000 0.0000000000000000	0.066779
H	0.4613005873403095 0.4104780228994964 0.2622019937649626	0.101390
H	0.4588200116143472 0.3114728082554918 0.2540406105063108	0.125939
H	0.9202570515398978 0.6347391875163141 0.8978618267384405	0.111366
H	0.9204495498966366 0.5363610880781297 0.8963673562147594	0.105936
H	0.5386994126596906 0.5895219771005040 0.2622019937649626	0.101373
H	0.5411800263856558 0.6885272677445076 0.2540406105063108	0.125894
H	0.0797429294601043 0.3652608124836860 0.8978618267384405	0.111366
H	0.0795504791033623 0.4636389509218698 0.8963673562147594	0.105936
H	0.5895219771005040 0.4613005873403095 0.2622019937649626	0.101373
H	0.6885272677445076 0.4588200116143472 0.2540406105063108	0.125894
H	0.3652608124836860 0.9202570515398978 0.8978618267384405	0.111366
H	0.4636389509218698 0.9204495498966366 0.8963673562147594	0.105936
H	0.4104780228994964 0.5386994126596906 0.2622019937649626	0.101390
H	0.3114728082554918 0.5411800263856558 0.2540406105063108	0.125939
H	0.6347391875163141 0.0797429294601043 0.8978618267384405	0.111366
H	0.5363610880781297 0.0795504791033623 0.8963673562147594	0.105936
H	0.5386994126596906 0.4104780228994964 0.7377979902350360	0.101390
H	0.5411800263856558 0.3114728082554918 0.7459593894936893	0.125938
H	0.0797429294601043 0.6347391875163141 0.1021381492615573	0.111366
H	0.0795504791033623 0.5363610880781297 0.1036326437852406	0.105936
H	0.4613005873403095 0.5895219771005040 0.7377979902350360	0.101373
H	0.4588200116143472 0.6885272677445076 0.7459593894936893	0.125893
H	0.9202570515398978 0.3652608124836860 0.1021381492615573	0.111366
H	0.9204495498966366 0.4636389509218698 0.1036326437852406	0.105936
H	0.4104780228994964 0.4613005873403095 0.7377979902350360	0.101390
H	0.3114728082554918 0.4588200116143472 0.7459593894936893	0.125938
H	0.6347391875163141 0.9202570515398978 0.1021381492615573	0.111366
H	0.5363610880781297 0.9204495498966366 0.1036326437852406	0.105936
H	0.5895219771005040 0.5386994126596906 0.7377979902350360	0.101373
H	0.6885272677445076 0.5411800263856558 0.7459593894936893	0.125893
H	0.3652608124836860 0.0797429294601043 0.1021381492615573	0.111366
H	0.4636389509218698 0.0795504791033623 0.1036326437852406	0.105936
H	0.5797429484601022 0.8652608124836859 0.6021381412615568	0.111366
H	0.5795504501033634 0.9636389509218700 0.6036326757852433	0.105936
H	0.0386994226596913 0.0895219481005049 0.2377980062350373	0.101390
H	0.0411800313856527 0.1885272107445063 0.2459594214936847	0.125939
H	0.4202570895399009 0.1347392165163128 0.6021381412615568	0.111366
H	0.4204495108966368 0.0363610730781250 0.6036326757852433	0.105936
H	0.9613005873403094 0.9104780998994917 0.2377980062350373	0.101373
H	0.9588199736143442 0.8114728462554948 0.2459594214936847	0.125894
H	0.1347392165163128 0.5797429484601022 0.6021381412615568	0.111366
H	0.0363610730781250 0.5795504501033634 0.6036326757852433	0.105936
H	0.9104780998994917 0.0386994226596913 0.2377980062350373	0.101373
H	0.8114728462554948 0.0411800313856527 0.2459594214936847	0.125894
H	0.8652608124836859 0.4202570895399009 0.6021381412615568	0.111366
H	0.9636389509218700 0.4204495108966368 0.6036326757852433	0.105936
H	0.0895219481005049 0.9613005873403094 0.2377980062350373	0.101390
H	0.1885272107445063 0.9588199736143442 0.2459594214936847	0.125939
H	0.4202570895399009 0.8652608124836859 0.3978618267384408	0.111366
H	0.4204495108966368 0.9636389509218700 0.3963673882147550	0.105936
H	0.9613005873403094 0.0895219481005049 0.7622019777649613	0.101390
H	0.9588199736143442 0.1885272107445063 0.7540405785063151	0.125938
H	0.5797429484601022 0.1347392165163128 0.3978618267384408	0.111365
H	0.5795504501033634 0.0363610730781250 0.3963673882147550	0.105936
H	0.0386994226596913 0.9104780998994917 0.7622019777649613	0.101373
H	0.0411800313856527 0.8114728462554948 0.7540405785063151	0.125893
H	0.8652608124836859 0.5797429484601022 0.3978618267384408	0.111366
H	0.9636389509218700 0.5795504501033634 0.3963673882147550	0.105936
H	0.0895219481005049 0.0386994226596913 0.7622019777649613	0.101390
H	0.1885272107445063 0.0411800313856527 0.7540405785063151	0.125938
H	0.1347392165163128 0.4202570895399009 0.3978618267384408	0.111366
H	0.0363610730781250 0.4204495108966368 0.3963673882147550	0.105936
H	0.9104780998994917 0.9613005873403094 0.7622019777649613	0.101373
H	0.8114728462554948 0.9588199736143442 0.7540405785063151	0.125893
Zn	0.5000000000000000 0.5000000000000000 0.5000000000000000	0.736082
Zn	0.0000000000000000 -0.0000000000000000 0.0000000000000000	0.736082
Ge	0.5000000000000000 0.5000000000000000 0.0000000000000000	1.780963
Ge	0.0000000000000000 -0.0000000000000000 0.5000000000000000	1.780963
F	0.5000000000000000 0.5000000000000000 0.2380031473160623	-0.502337
F	0.0000000000000000 -0.0000000000000000 0.7380031153160668	-0.502337
F	0.5000000000000000 0.5000000000000000 0.7619967886839396	-0.502337
F	0.0000000000000000 -0.0000000000000000 0.2619968526839377	-0.502337
F	0.5513113196651755 0.5513113196651755 0.0000000000000000	-0.550024
F	0.0513112726651752 0.0513112726651752 0.5000000000000000	-0.550024
F	0.4486887563348309 0.4486887563348309 0.0000000000000000	-0.550024
F	0.9486887183348276 0.9486887183348276 0.5000000000000000	-0.550024
F	0.4486887563348309 0.5513113196651755 0.0000000000000000	-0.550024
F	0.9486887183348276 0.0513112726651752 0.5000000000000000	-0.550024
F	0.5513113196651755 0.4486887563348309 0.0000000000000000	-0.550024
F	0.0513112726651752 0.9486887183348276 0.5000000000000000	-0.550024
N	0.5000000000000000 0.4142460245189439 0.5000000000000000	-0.230841
N	0.0000000000000000 0.9142460625189471 0.0000000000000000	-0.230855
N	0.5000000000000000 0.5857539754810560 0.5000000000000000	-0.230855
N	0.0000000000000000 0.0857539844810533 0.0000000000000000	-0.230841
N	0.5857539754810560 0.5000000000000000 0.5000000000000000	-0.230855
N	0.0857539844810533 -0.0000000000000000 0.0000000000000000	-0.230841
N	0.4142460245189439 0.5000000000000000 0.5000000000000000	-0.230841
N	0.9142460625189471 -0.0000000000000000 0.0000000000000000	-0.230855
	  	
