#======================================================================

# CRYSTAL DATA

#----------------------------------------------------------------------

data_VESTA_phase_1


_pd_phase_name                         GeFSIX_4_Zn_i
_cell_length_a                         23.79916
_cell_length_b                         20.62061
_cell_length_c                         9.36407
_cell_angle_alpha                      90
_cell_angle_beta                       90
_cell_angle_gamma                      90
_symmetry_space_group_name_H-M         P 1
_symmetry_Int_Tables_number            1

loop_
_symmetry_equiv_pos_as_xyz
   x, y, z

loop_
   _atom_site_label
   _atom_site_fract_x
   _atom_site_fract_y
   _atom_site_fract_z
   _atom_site_charge
C	0.4148010192690059 0.5964348084494169 0.6274914259324345	0.105032
C	0.3713799414797352 0.5515698585154843 0.6254618890904220	-0.170502
C	0.2765182319417668 0.4492700298097409 0.6249811721532589	-0.117036
C	0.2312320123545119 0.4068552294255702 0.6236315933964727	-0.112989
C	0.1313266952687008 0.3206649348147125 0.6222262778109455	-0.165470
C	0.0851080162635992 0.2796392253499695 0.6256553292019906	0.097996
C	0.9148011022690021 0.0964348194494214 0.6274914259324345	0.105033
C	0.8713798994797392 0.0515698005154867 0.6254618890904220	-0.170501
C	0.7765182529417726 0.9492700768097411 0.6249811721532589	-0.117036
C	0.7312319923545103 0.9068552754255671 0.6236315933964727	-0.112989
C	0.6313266952687004 0.8206649818147133 0.6222262778109455	-0.165471
C	0.5851080012635943 0.7796393183499667 0.6256553292019906	0.097996
C	0.5851989807309941 0.4035651455505794 0.1274914339324352	0.105033
C	0.6286201005202608 0.4484301874845191 0.1254619040904199	-0.170502
C	0.7234817470582274 0.5507299231902589 0.1249811801532593	-0.117035
C	0.7687680076454897 0.5931447705744296 0.1236316013964735	-0.112989
C	0.8686733047312996 0.6793350651852871 0.1222262848109493	-0.165470
C	0.9148919987364057 0.7203607286500336 0.1256553442019886	0.097996
C	0.0851989917309987 0.9035652385505835 0.1274914339324352	0.105033
C	0.1286200585202648 0.9484300954845190 0.1254619040904199	-0.170503
C	0.2234817890582312 0.0507299701902590 0.1249811801532593	-0.117035
C	0.2687679666454899 0.0931447475744316 0.1236316013964735	-0.112990
C	0.3686733467313029 0.1793350761852845 0.1222262848109493	-0.165470
C	0.4148919987364059 0.2203607986500326 0.1256553442019886	0.097996
C	0.5851989807309941 0.5964348084494169 0.8725085430675665	0.105033
C	0.6286201005202608 0.5515698585154843 0.8745380799095790	-0.170502
C	0.7234817470582274 0.4492700298097409 0.8750188588467401	-0.117036
C	0.7687680076454897 0.4068552294255702 0.8763684376035263	-0.112989
C	0.8686733047312996 0.3206649348147125 0.8777737531890535	-0.165471
C	0.9148919987364057 0.2796392253499695 0.8743447017980084	0.097996
C	0.0851989917309987 0.0964348194494214 0.8725085430675665	0.105033
C	0.1286200585202648 0.0515698005154867 0.8745380799095790	-0.170502
C	0.2234817890582312 0.9492700768097411 0.8750188588467401	-0.117036
C	0.2687679666454899 0.9068552754255671 0.8763684376035263	-0.112989
C	0.3686733467313029 0.8206649818147133 0.8777737531890535	-0.165471
C	0.4148919987364059 0.7796393183499667 0.8743447017980084	0.097996
C	0.4148010192690059 0.4035651455505794 0.3725085740675655	0.105033
C	0.3713799414797352 0.4484301874845191 0.3745380799095789	-0.170502
C	0.2765182319417668 0.5507299231902589 0.3750188278467411	-0.117035
C	0.2312320123545119 0.5931447705744296 0.3763683756035282	-0.112989
C	0.1313266952687008 0.6793350651852871 0.3777736911890484	-0.165470
C	0.0851080162635992 0.7203607286500336 0.3743446397980102	0.097996
C	0.9148011022690021 0.9035652385505835 0.3725085740675655	0.105033
C	0.8713798994797392 0.9484300954845190 0.3745380799095789	-0.170502
C	0.7765182529417725 0.0507299701902589 0.3750188278467411	-0.117035
C	0.7312319923545103 0.0931447475744316 0.3763683756035283	-0.112990
C	0.6313266952687004 0.1793350761852845 0.3777736911890484	-0.165470
C	0.5851080012635943 0.2203607986500326 0.3743446397980102	0.097996
C	0.5851989807309941 0.4035651455505794 0.3725085740675655	0.105034
C	0.6286201005202608 0.4484301874845191 0.3745380799095789	-0.170502
C	0.7234817470582274 0.5507299231902589 0.3750188278467411	-0.117035
C	0.7687680076454897 0.5931447705744296 0.3763683756035283	-0.112990
C	0.8686733047312996 0.6793350651852871 0.3777736911890484	-0.165471
C	0.9148919987364057 0.7203607286500336 0.3743446397980102	0.097998
C	0.0851989917309987 0.9035652385505835 0.3725085740675655	0.105034
C	0.1286200585202648 0.9484300954845190 0.3745380799095789	-0.170503
C	0.2234817890582312 0.0507299701902589 0.3750188278467411	-0.117035
C	0.2687679666454899 0.0931447475744316 0.3763683756035283	-0.112990
C	0.3686733467313029 0.1793350761852845 0.3777736911890484	-0.165470
C	0.4148919987364059 0.2203607986500326 0.3743446397980102	0.097997
C	0.4148010192690059 0.5964348084494169 0.8725085430675665	0.105034
C	0.3713799414797352 0.5515698585154843 0.8745380799095790	-0.170502
C	0.2765182319417668 0.4492700298097409 0.8750188588467401	-0.117036
C	0.2312320123545119 0.4068552294255702 0.8763684376035263	-0.112989
C	0.1313266952687008 0.3206649348147125 0.8777737531890535	-0.165471
C	0.0851080162635992 0.2796392253499695 0.8743447017980084	0.097998
C	0.9148011022690021 0.0964348194494214 0.8725085430675665	0.105034
C	0.8713798994797392 0.0515698005154867 0.8745380799095790	-0.170501
C	0.7765182529417726 0.9492700768097411 0.8750188588467401	-0.117036
C	0.7312319923545103 0.9068552754255671 0.8763684376035263	-0.112989
C	0.6313266952687004 0.8206649818147133 0.8777737531890535	-0.165471
C	0.5851080012635943 0.7796393183499667 0.8743447017980084	0.097998
C	0.4148010192690059 0.4035651455505794 0.1274914339324352	0.105035
C	0.3713799414797352 0.4484301874845191 0.1254619040904199	-0.170502
C	0.2765182319417668 0.5507299231902589 0.1249811801532593	-0.117035
C	0.2312320123545119 0.5931447705744296 0.1236316013964735	-0.112989
C	0.1313266952687008 0.6793350651852871 0.1222262848109493	-0.165470
C	0.0851080162635992 0.7203607286500336 0.1256553442019886	0.097998
C	0.9148011022690021 0.9035652385505835 0.1274914339324352	0.105034
C	0.8713798994797392 0.9484300954845190 0.1254619040904199	-0.170502
C	0.7765182529417725 0.0507299701902589 0.1249811801532593	-0.117035
C	0.7312319923545103 0.0931447475744316 0.1236316013964735	-0.112990
C	0.6313266952687004 0.1793350761852845 0.1222262848109493	-0.165470
C	0.5851080012635943 0.2203607986500326 0.1256553442019886	0.097998
C	0.5851989807309941 0.5964348084494169 0.6274914259324345	0.105034
C	0.6286201005202608 0.5515698585154843 0.6254618890904220	-0.170502
C	0.7234817470582274 0.4492700298097409 0.6249811721532589	-0.117036
C	0.7687680076454897 0.4068552294255702 0.6236315933964727	-0.112989
C	0.8686733047312996 0.3206649348147125 0.6222262778109455	-0.165471
C	0.9148919987364057 0.2796392253499695 0.6256553292019906	0.097998
C	0.0851989917309987 0.0964348194494214 0.6274914259324345	0.105034
C	0.1286200585202648 0.0515698005154867 0.6254618890904220	-0.170502
C	0.2234817890582312 0.9492700768097411 0.6249811721532589	-0.117036
C	0.2687679666454899 0.9068552754255671 0.6236315933964727	-0.112989
C	0.3686733467313029 0.8206649818147133 0.6222262778109455	-0.165471
C	0.4148919987364059 0.7796393183499667 0.6256553292019906	0.097998
C	0.3472633324692749 0.5249349740913472 0.7500000149999977	0.117685
C	0.3008293453167929 0.4751463127900333 0.7500000149999977	0.068689
C	0.2058676631329745 0.3852030111663271 0.7500000149999977	0.066524
C	0.1562851230139758 0.3421178583588180 0.7500000149999977	0.103015
C	0.8472632904692784 0.0249349570913491 0.7500000149999977	0.117684
C	0.8008294073167912 0.9751462657900337 0.7500000149999977	0.068689
C	0.7058676631329748 0.8852030341663255 0.7500000149999977	0.066524
C	0.6562851230139762 0.8421177893588158 0.7500000149999977	0.103015
C	0.6527366675307252 0.4750650719086495 0.2500000000000000	0.117685
C	0.6991705926832088 0.5248536872099659 0.2500000000000000	0.068688
C	0.7941323368670252 0.6147970128336748 0.2500000000000000	0.066525
C	0.8437149179860307 0.6578821186411837 0.2500000000000000	0.103014
C	0.1527366785307227 0.9750651189086499 0.2500000000000000	0.117685
C	0.1991706756832052 0.0248536902099633 0.2500000000000000	0.068688
C	0.2941323368670256 0.1147969658336744 0.2500000000000000	0.066525
C	0.3437148769860244 0.1578821526411866 0.2500000000000000	0.103014
C	0.6527366675307252 0.5249349740913472 0.7500000149999977	0.117685
C	0.6991705926832088 0.4751463127900333 0.7500000149999977	0.068689
C	0.7941323368670252 0.3852030111663271 0.7500000149999977	0.066524
C	0.8437149179860307 0.3421178583588180 0.7500000149999977	0.103015
C	0.1527366785307227 0.0249349570913491 0.7500000149999977	0.117685
C	0.1991706756832052 0.9751462657900337 0.7500000149999977	0.068689
C	0.2941323368670256 0.8852030341663255 0.7500000149999977	0.066524
C	0.3437148769860244 0.8421177893588158 0.7500000149999977	0.103015
C	0.3472633324692749 0.4750650719086495 0.2500000000000000	0.117685
C	0.3008293453167929 0.5248536872099659 0.2500000000000000	0.068688
C	0.2058676631329745 0.6147970128336748 0.2500000000000000	0.066525
C	0.1562851230139758 0.6578821186411837 0.2500000000000000	0.103014
C	0.8472632904692784 0.9750651189086499 0.2500000000000000	0.117685
C	0.8008294073167912 0.0248536902099633 0.2500000000000000	0.068688
C	0.7058676631329748 0.1147969658336744 0.2500000000000000	0.066525
C	0.6562851230139762 0.1578821526411866 0.2500000000000000	0.103014
H	0.4324829798048072 0.6151135053752721 0.5278617278885761	0.108338
H	0.3583828743066179 0.5391920271962384 0.5192127242350781	0.106263
H	0.2922889128259719 0.4609365027268421 0.5207878379224652	0.087026
H	0.2159750766161269 0.3908232309382868 0.5197513589316156	0.103923
H	0.1473000288751569 0.3348908066685302 0.5180727240769747	0.120103
H	0.0654782989872205 0.2618352528151174 0.5274581454891006	0.108185
H	0.9324829378048041 0.1151135403752715 0.5278617278885761	0.108338
H	0.8583828333066178 0.0391919631962327 0.5192127242350781	0.106263
H	0.7922888918259740 0.9609365027268423 0.5207878379224652	0.087026
H	0.7159750346161229 0.8908231619382917 0.5197513589316156	0.103923
H	0.6473000188751558 0.8348908066685301 0.5180727240769747	0.120103
H	0.5654783299872189 0.7618352298151193 0.5274581454891006	0.108185
H	0.5675170201951925 0.3848864946247277 0.0278617898885735	0.108338
H	0.6416171256933824 0.4608080198037625 0.0192127242350778	0.106263
H	0.7077111081740260 0.5390634512731539 0.0207878999224626	0.087026
H	0.7840249653838771 0.6091767460617078 0.0197512979316133	0.103923
H	0.8526999811248442 0.6651091473314661 0.0180727240769749	0.120102
H	0.9345216290127812 0.7381647701848807 0.0274581144891019	0.108184
H	0.0675170261951935 0.8848864946247279 0.0278617898885735	0.108338
H	0.1416171666933820 0.9608080198037620 0.0192127242350778	0.106263
H	0.2077111081740263 0.0390634942731541 0.0207878999224626	0.087026
H	0.2840249233838730 0.1091767800617104 0.0197512979316134	0.103923
H	0.3526999811248441 0.1651091703314642 0.0180727240769749	0.120102
H	0.4345216700127804 0.2381647471848825 0.0274581144891019	0.108184
H	0.5675170201951925 0.6151135053752721 -0.0278617468885735	0.108338
H	0.6416171256933824 0.5391920271962384 -0.0192127512350835	0.106263
H	0.7077111081740260 0.4609365027268421 -0.0207878559224591	0.087026
H	0.7840249653838771 0.3908232309382868 -0.0197513519316111	0.103923
H	0.8526999811248442 0.3348908066685302 -0.0180727240769751	0.120102
H	0.9345216290127812 0.2618352528151174 -0.0274581524891050	0.108184
H	0.0675170261951935 0.1151135403752715 -0.0278617468885735	0.108338
H	0.1416171666933820 0.0391919631962327 -0.0192127512350835	0.106263
H	0.2077111081740263 0.9609365027268423 -0.0207878559224591	0.087026
H	0.2840249233838730 0.8908231619382917 -0.0197513519316111	0.103923
H	0.3526999811248441 0.8348908066685301 -0.0180727240769751	0.120103
H	0.4345216700127804 0.7618352298151193 -0.0274581524891050	0.108184
H	0.4324829798048072 0.3848864946247277 0.4721382411114257	0.108338
H	0.3583828743066179 0.4608080198037625 0.4807873067649212	0.106263
H	0.2922889128259719 0.5390634512731539 0.4792121310775366	0.087026
H	0.2159750766161269 0.6091767460617078 0.4802486100683859	0.103923
H	0.1473000288751569 0.6651091473314661 0.4819272449230261	0.120102
H	0.0654782989872204 0.7381647701848807 0.4725418545108991	0.108184
H	0.9324829378048041 0.8848864946247279 0.4721382411114258	0.108338
H	0.8583828333066178 0.9608080198037620 0.4807873067649212	0.106263
H	0.7922888918259740 0.0390634942731541 0.4792121310775366	0.087026
H	0.7159750346161229 0.1091767800617104 0.4802486100683859	0.103923
H	0.6473000188751558 0.1651091703314642 0.4819272449230261	0.120102
H	0.5654783299872189 0.2381647471848825 0.4725418545108991	0.108184
H	0.5675170201951925 0.3848864946247277 0.4721382411114257	0.108338
H	0.6416171256933824 0.4608080198037625 0.4807873067649212	0.106263
H	0.7077111081740260 0.5390634512731539 0.4792121310775366	0.087026
H	0.7840249653838771 0.6091767460617078 0.4802486100683859	0.103923
H	0.8526999811248442 0.6651091473314661 0.4819272449230261	0.120103
H	0.9345216290127812 0.7381647701848807 0.4725418545108991	0.108185
H	0.0675170261951934 0.8848864946247279 0.4721382411114257	0.108338
H	0.1416171666933820 0.9608080198037620 0.4807873067649212	0.106263
H	0.2077111081740263 0.0390634942731541 0.4792121310775366	0.087026
H	0.2840249233838730 0.1091767800617104 0.4802486100683859	0.103923
H	0.3526999811248441 0.1651091703314642 0.4819272449230261	0.120103
H	0.4345216700127804 0.2381647471848825 0.4725418545108991	0.108185
H	0.4324829798048072 0.6151135053752721 -0.0278617468885735	0.108338
H	0.3583828743066179 0.5391920271962384 -0.0192127512350835	0.106263
H	0.2922889128259719 0.4609365027268421 -0.0207878559224591	0.087026
H	0.2159750766161269 0.3908232309382868 -0.0197513519316111	0.103923
H	0.1473000288751569 0.3348908066685302 -0.0180727240769751	0.120103
H	0.0654782989872204 0.2618352528151174 -0.0274581524891050	0.108185
H	0.9324829378048041 0.1151135403752715 -0.0278617468885735	0.108338
H	0.8583828333066178 0.0391919631962327 -0.0192127512350835	0.106263
H	0.7922888918259740 0.9609365027268423 -0.0207878559224591	0.087026
H	0.7159750346161229 0.8908231619382917 -0.0197513519316111	0.103923
H	0.6473000188751558 0.8348908066685301 -0.0180727240769751	0.120103
H	0.5654783299872189 0.7618352298151193 -0.0274581524891050	0.108185
H	0.4324829798048072 0.3848864946247277 0.0278617898885735	0.108338
H	0.3583828743066179 0.4608080198037625 0.0192127242350778	0.106263
H	0.2922889128259719 0.5390634512731539 0.0207878999224626	0.087026
H	0.2159750766161269 0.6091767460617078 0.0197512979316134	0.103924
H	0.1473000288751569 0.6651091473314661 0.0180727240769749	0.120103
H	0.0654782989872205 0.7381647701848807 0.0274581144891019	0.108185
H	0.9324829378048041 0.8848864946247279 0.0278617898885735	0.108338
H	0.8583828333066178 0.9608080198037620 0.0192127242350778	0.106263
H	0.7922888918259740 0.0390634942731541 0.0207878999224626	0.087026
H	0.7159750346161229 0.1091767800617104 0.0197512979316134	0.103924
H	0.6473000188751558 0.1651091703314642 0.0180727240769749	0.120103
H	0.5654783299872189 0.2381647471848825 0.0274581144891019	0.108185
H	0.5675170201951925 0.6151135053752721 0.5278617278885761	0.108338
H	0.6416171256933824 0.5391920271962384 0.5192127242350781	0.106263
H	0.7077111081740260 0.4609365027268421 0.5207878379224652	0.087026
H	0.7840249653838771 0.3908232309382868 0.5197513589316156	0.103923
H	0.8526999811248442 0.3348908066685302 0.5180727240769747	0.120103
H	0.9345216290127812 0.2618352528151174 0.5274581454891006	0.108185
H	0.0675170261951935 0.1151135403752715 0.5278617278885761	0.108338
H	0.1416171666933820 0.0391919631962327 0.5192127242350781	0.106263
H	0.2077111081740263 0.9609365027268423 0.5207878379224652	0.087026
H	0.2840249233838730 0.8908231619382917 0.5197513589316156	0.103924
H	0.3526999811248441 0.8348908066685301 0.5180727240769747	0.120103
H	0.4345216700127804 0.7618352298151193 0.5274581454891006	0.108185
Zn	0.5000000000000000 0.6884215066349832 0.7500000149999977	0.751888
Zn	-0.0000000000000000 0.1884215646349811 0.7500000149999977	0.751888
Zn	0.5000000000000000 0.3115784233650177 0.2500000000000000	0.751888
Zn	-0.0000000000000000 0.8115784933650168 0.2500000000000000	0.751888
F	0.5000000000000000 0.6851048259565650 0.4576552554696706	-0.571657
F	-0.0000000000000000 0.1851048609565644 0.4576552554696706	-0.571657
F	0.5000000000000000 0.3148951510434294 0.9576552554696701	-0.571657
F	-0.0000000000000000 0.8148951740434350 0.9576552554696701	-0.571657
F	0.5000000000000000 0.6851048259565650 0.0423447305303282	-0.571657
F	-0.0000000000000000 0.1851048609565644 0.0423447305303282	-0.571657
F	0.5000000000000000 0.3148951510434294 0.5423447145303274	-0.571657
F	-0.0000000000000000 0.8148951740434350 0.5423447145303274	-0.571657
F	0.4458082401665237 0.7465595758768807 0.2500000000000000	-0.567256
F	0.5539328724340628 0.6220467454701902 0.2500000000000000	-0.559647
F	0.9458082401665242 0.2465595758768805 0.2500000000000000	-0.567256
F	0.0539328934340682 0.1220467454701902 0.2500000000000000	-0.559647
F	0.5541917188334760 0.2534404011231210 0.7500000149999977	-0.567256
F	0.4460671275659369 0.3779532545298098 0.7500000149999977	-0.559647
F	0.0541917708334807 0.7534404241231193 0.7500000149999977	-0.567255
F	0.9460671275659372 0.8779532545298098 0.7500000149999977	-0.559647
F	0.5541917188334760 0.7465595758768807 0.2500000000000000	-0.567256
F	0.4460671275659369 0.6220467454701902 0.2500000000000000	-0.559647
F	0.0541917708334807 0.2465595758768805 0.2500000000000000	-0.567256
F	0.9460671275659372 0.1220467454701901 0.2500000000000000	-0.559647
F	0.4458082401665237 0.2534404011231210 0.7500000149999977	-0.567256
F	0.5539328724340628 0.3779532545298098 0.7500000149999977	-0.559647
F	0.9458082401665242 0.7534404241231193 0.7500000149999977	-0.567255
F	0.0539328934340682 0.8779532545298098 0.7500000149999977	-0.559647
N	0.4369456955530747 0.6186100781364885 0.7500000149999977	-0.227818
N	0.5626450186193024 0.7592321935648619 0.7500000149999977	-0.240348
N	0.9369456545530678 0.1186100661364879 0.7500000149999977	-0.227819
N	0.0626449926193001 0.2592321705648563 0.7500000149999977	-0.240348
N	0.5630543044469253 0.3813899218635110 0.2500000000000000	-0.227819
N	0.4373549813806979 0.2407678294351437 0.2500000000000000	-0.240348
N	0.0630543044469252 0.8813899218635115 0.2500000000000000	-0.227818
N	0.9373550223806975 0.7407678064351381 0.2500000000000000	-0.240348
N	0.5630543044469253 0.6186100781364885 0.7500000149999977	-0.227818
N	0.4373549813806979 0.7592321935648619 0.7500000149999977	-0.240348
N	0.0630543044469252 0.1186100661364879 0.7500000149999977	-0.227818
N	0.9373550223806975 0.2592321705648563 0.7500000149999977	-0.240348
N	0.4369456955530747 0.3813899218635110 0.2500000000000000	-0.227818
N	0.5626450186193024 0.2407678294351437 0.2500000000000000	-0.240348
N	0.9369456545530678 0.8813899218635115 0.2500000000000000	-0.227818
N	0.0626449926193001 0.7407678064351381 0.2500000000000000	-0.240347
Ge	0.5000000000000000 0.6844654154980574 0.2500000000000000	1.786255
Ge	-0.0000000000000000 0.1844654394980589 0.2500000000000000	1.786255
Ge	0.5000000000000000 0.3155345375019429 0.7500000149999977	1.786255
Ge	-0.0000000000000000 0.8155345845019426 0.7500000149999977	1.786255
	  	
