#======================================================================

# CRYSTAL DATA

#----------------------------------------------------------------------

data_VESTA_phase_1


_pd_phase_name                         GeFSIX_18_Fe
_cell_length_a                         14.34774
_cell_length_b                         13.97731
_cell_length_c                         8.01954
_cell_angle_alpha                      90
_cell_angle_beta                       95.23135
_cell_angle_gamma                      90
_symmetry_space_group_name_H-M         P 1
_symmetry_Int_Tables_number            1

loop_
_symmetry_equiv_pos_as_xyz
   x, y, z

loop_
   _atom_site_label
   _atom_site_fract_x
   _atom_site_fract_y
   _atom_site_fract_z
   _atom_site_charge
F	0.4124720791073778 0.3784424604687420 0.5068030863009541	-0.534634
F	0.5208590603150963 0.4780565483179376 0.7357250445292007	-0.507275
F	0.4096269694833189 0.5616337087631852 0.5127308853787895	-0.505055
F	0.9124721131073736 0.8784423914687400 0.5068030863009541	-0.534634
F	0.0208590863150913 0.9780565133179384 0.7357250445292007	-0.507275
F	0.9096270034833216 0.0616336747631894 0.5127308853787895	-0.505055
F	0.5875278838926226 0.3784424604687420 0.4931969136990462	-0.534634
F	0.4791409366849070 0.4780565483179376 0.2642749554707992	-0.507275
F	0.5903730265166809 0.5616337087631852 0.4872691156212138	-0.505055
F	0.0875279048926206 0.8784423914687400 0.4931969136990462	-0.534634
F	0.9791408016849065 0.9780565133179384 0.2642749554707992	-0.507275
F	0.0903730015166824 0.0616336747631894 0.4872691156212138	-0.505055
C	0.6830315303433573 0.1502231897570916 0.6576773248100793	-0.426523
C	0.7545985919827977 0.1482622104531334 0.8040472709681759	0.209494
C	0.7593429279245066 0.1968727129558535 0.9572532448741479	-0.151574
C	0.6889198290744089 0.2607809898310796 0.0160816897539888	-0.147468
C	0.6749957160894696 0.3588275769696408 0.9748108229393900	0.221652
C	0.7314882697427467 0.4197594807813614 0.8694239892892411	-0.425525
C	0.8909563397531197 0.2107768595451991 0.2029617421288701	-0.434483
C	0.8476131609457549 0.1727502215475403 0.0405663314395197	0.222262
C	0.6216460648382965 0.2387979329072901 0.1262525231953961	0.206394
C	0.5982960237584752 0.1478233730384802 0.2097208062281328	-0.426183
C	0.1830315803433543 0.6502232417570887 0.6576773248100793	-0.426523
C	0.2545986259828005 0.6482621934531279 0.8040472709681759	0.209494
C	0.2593428939245044 0.6968726789558505 0.9572532448741479	-0.151574
C	0.1889198290744084 0.7607810068310774 0.0160816897539888	-0.147468
C	0.1749956990894647 0.8588276109696439 0.9748108229393900	0.221652
C	0.2314882857427410 0.9197594457813618 0.8694239892892411	-0.425524
C	0.3909562387531146 0.7107767735451989 0.2029617421288701	-0.434483
C	0.3476132289457534 0.6727502215475399 0.0405663314395197	0.222262
C	0.1216460398382983 0.7387978469072900 0.1262525231953961	0.206393
C	0.0982961077584749 0.6478234420384822 0.2097208062281328	-0.426183
C	0.3169684666566459 0.1502231897570916 0.3423226761899243	-0.426521
C	0.2454014010171983 0.1482622104531334 0.1959526490318246	0.209494
C	0.2406571010754918 0.1968727129558535 0.0427467311258576	-0.151578
C	0.3110801669255913 0.2607809898310796 0.9839183012460141	-0.147453
C	0.3250043499105356 0.3588275769696408 0.0251892280606102	0.221646
C	0.2685117452572580 0.4197594807813614 0.1305760267107599	-0.425511
C	0.1090437432468836 0.2107768595451991 0.7970383058711343	-0.434484
C	0.1523868180542470 0.1727502215475403 0.9594336565604795	0.222263
C	0.3783539661617024 0.2387979329072901 0.8737475008045985	0.206390
C	0.4017039022415261 0.1478233730384802 0.7902791147718712	-0.426182
C	0.8169684666566460 0.6502232417570887 0.3423226761899243	-0.426521
C	0.7454014010171982 0.6482621934531279 0.1959526490318246	0.209494
C	0.7406570670754965 0.6968726789558505 0.0427467311258576	-0.151578
C	0.8110801669255908 0.7607810068310774 0.9839183012460141	-0.147453
C	0.8250042829105338 0.8588276109696439 0.0251892280606102	0.221646
C	0.7685117282572531 0.9197594457813618 0.1305760267107599	-0.425511
C	0.6090436592468838 0.7107767735451989 0.7970383058711343	-0.434484
C	0.6523868350542448 0.6727502215475399 0.9594336565604795	0.222262
C	0.8783539321616997 0.7387978469072900 0.8737475008045985	0.206390
C	0.9017039692415277 0.6478234420384822 0.7902791147718712	-0.426182
H	0.7150449180203460 0.1719336655666840 0.5441790132185779	0.152000
H	0.6278478104363084 0.2019541405077680 0.6784857110745686	0.142021
H	0.6510468579752012 0.0793552902875159 0.6342376831986994	0.134284
H	0.6871300182256646 0.4613208774147723 0.7776911759458073	0.144277
H	0.7782479929045857 0.3750141998474787 0.8017834804204508	0.136947
H	0.7746766218137977 0.4699764804390466 0.9488427983182717	0.126142
H	0.8601713456209757 0.0648273648016861 0.7028049772137894	0.278796
H	0.8997414129706560 0.1558232556494130 0.3006247076454633	0.151165
H	0.8467742446708723 0.2679128285236955 0.2469617429890609	0.133421
H	0.9605039410433210 0.2406194271494295 0.1872022168455346	0.139062
H	0.5739927900713971 0.1617196352590694 0.3332811558998518	0.143172
H	0.6595072637395545 0.1006633846224825 0.2255644034364601	0.149294
H	0.5422812526978229 0.1088438908722100 0.1350563219852603	0.130802
H	0.5248121176315194 0.3345479241736116 0.2257333181385720	0.273996
H	0.2150449690203466 0.6719335625666860 0.5441790132185779	0.152000
H	0.1278478944363084 0.7019540715077663 0.6784857110745686	0.142022
H	0.1510469079751980 0.5793552302875109 0.6342376831986994	0.134284
H	0.1871300352256619 0.9613208094147668 0.7776911759458073	0.144277
H	0.2782480269045884 0.8750142338474813 0.8017834804204508	0.136947
H	0.2746766548137969 0.9699764804390465 0.9488427983182717	0.126142
H	0.3601713116209805 0.5648274078016857 0.7028049772137894	0.278796
H	0.3997414799706575 0.6558232216494106 0.3006247076454633	0.151165
H	0.3467741766708743 0.7679128635236948 0.2469617429890609	0.133421
H	0.4605040080433163 0.7406194781494229 0.1872022168455346	0.139064
H	0.0739927820713964 0.6617196522590676 0.3332811558998518	0.143172
H	0.1595072297395517 0.6006633416224827 0.2255644034364601	0.149294
H	0.0422812886978256 0.6088438388722132 0.1350563219852603	0.130803
H	0.0248121026315218 0.8345479241736119 0.2257333181385720	0.273996
H	0.2849550129796593 0.1719336655666840 0.4558210187814173	0.152000
H	0.3721520885636869 0.2019541405077680 0.3215143539254333	0.142014
H	0.3489530710248036 0.0793552902875159 0.3657623168013006	0.134283
H	0.3128699767743389 0.4613208774147723 0.2223087920541971	0.144273
H	0.2217520020954103 0.3750141998474787 0.1982164875795462	0.136939
H	0.2253233741862092 0.4699764804390466 0.0511571746817298	0.126138
H	0.1398286553790206 0.0648273648016861 0.2971949277862063	0.278795
H	0.1002585100293416 0.1558232556494130 0.6993753243545389	0.151165
H	0.1532258193291259 0.2679128285236955 0.7530382570109395	0.133422
H	0.0394959879566835 0.2406194271494295 0.8127978151544610	0.139066
H	0.4260072399286055 0.1617196352590694 0.6667188441001479	0.143165
H	0.3404927982604508 0.1006633846224825 0.7744355485635360	0.149291
H	0.4577187123021782 0.1088438908722100 0.8649437180147427	0.130793
H	0.4751878433684810 0.3345479241736116 0.7742666348614278	0.273993
H	0.7849550799796539 0.6719335625666860 0.4558210187814173	0.152000
H	0.8721521895636916 0.7019540715077663 0.3215143539254333	0.142014
H	0.8489530710248036 0.5793552302875109 0.3657623168013006	0.134283
H	0.8128699767743386 0.9613208094147668 0.2223087920541971	0.144273
H	0.7217520020954103 0.8750142338474813 0.1982164875795462	0.136939
H	0.7253233741862091 0.9699764804390465 0.0511571746817298	0.126138
H	0.6398286463790236 0.5648274078016857 0.2971949277862063	0.278795
H	0.6002586190293395 0.6558232216494106 0.6993753243545389	0.151165
H	0.6532257523291239 0.7679128635236948 0.7530382570109395	0.133422
H	0.5394960239566796 0.7406194781494229 0.8127978151544610	0.139067
H	0.9260071729286034 0.6617196522590676 0.6667188441001479	0.143165
H	0.8404927312604487 0.6006633416224827 0.7744355485635360	0.149291
H	0.9577187123021778 0.6088438388722132 0.8649437180147427	0.130793
H	0.9751878093684853 0.8345479241736119 0.7742666348614278	0.273993
N	0.8342348980066572 0.0970922674495714 0.8043656840436936	-0.145200
N	0.6033772729915369 0.3937219437005291 0.0534848455690754	-0.264491
N	0.8922009304545376 0.1111977599181340 0.9456964288710697	-0.267071
N	0.5729350249069648 0.3201055896034987 0.1435858552011123	-0.142447
N	0.3342348980066571 0.5970921904495754 0.8043656840436936	-0.145200
N	0.1033773399915385 0.8937219437005288 0.0534848455690754	-0.264491
N	0.3922009644545407 0.6111978109181344 0.9456964288710697	-0.267071
N	0.0729350169069641 0.8201055546034998 0.1435858552011123	-0.142446
N	0.1657650839933413 0.0970922674495714 0.1956343639563030	-0.145200
N	0.3966226210084621 0.3937219437005291 0.9465151304309226	-0.264489
N	0.1077990395454598 0.1111977599181340 0.0543035511289289	-0.267071
N	0.4270649720930386 0.3201055896034987 0.8564141607988888	-0.142450
N	0.6657651009933392 0.5970921904495755 0.1956343639563030	-0.145200
N	0.8966227220084663 0.8937219437005288 0.9465151304309226	-0.264488
N	0.6077990645454655 0.6111978109181344 0.0543035511289289	-0.267070
N	0.9270650060930342 0.8201055546034998 0.8564141607988888	-0.142450
Ge	0.4999999979999998 0.4708426514309278 0.5000000000000000	1.740698
Ge	-0.0000000000000000 0.9708426514309282 0.5000000000000000	1.740698
Fe	0.5000000000000000 0.5086031393228169 -0.0000000000000000	0.824819
Fe	-0.0000000000000000 0.0086031463228209 -0.0000000000000000	0.824819
	  	
