#======================================================================

# CRYSTAL DATA

#----------------------------------------------------------------------

data_VESTA_phase_1


_pd_phase_name                         GeFSIX_1_Co
_cell_length_a                         10.99378
_cell_length_b                         10.99378
_cell_length_c                         8.08209
_cell_angle_alpha                      90
_cell_angle_beta                       90
_cell_angle_gamma                      90
_symmetry_space_group_name_H-M         P 1
_symmetry_Int_Tables_number            1

loop_
_symmetry_equiv_pos_as_xyz
   x, y, z

loop_
   _atom_site_label
   _atom_site_fract_x
   _atom_site_fract_y
   _atom_site_fract_z
   _atom_site_charge
C	0.2595531265776039 0.4572206333709839 0.3682807648914941	0.095984
C	0.1332358891039160 0.4565250315610891 0.3640681549414497	-0.169811
C	0.7404469604223995 0.5427794096290159 0.3682807648914941	0.095981
C	0.8667641548960877 0.5434749684389109 0.3640681549414497	-0.169811
C	0.5427794096290159 0.2595531265776039 0.3682807648914941	0.095984
C	0.5434749684389109 0.1332358891039160 0.3640681549414497	-0.169811
C	0.4572206333709839 0.7404469604223995 0.3682807648914941	0.095981
C	0.4565250315610891 0.8667641548960877 0.3640681549414497	-0.169811
C	0.7404469604223995 0.4572206333709839 0.6317192051085034	0.095981
C	0.8667641548960877 0.4565250315610891 0.6359318160585444	-0.169810
C	0.2595531265776039 0.5427794096290159 0.6317192051085034	0.095984
C	0.1332358891039160 0.5434749684389109 0.6359318160585444	-0.169809
C	0.4572206333709839 0.2595531265776039 0.6317192051085034	0.095984
C	0.4565250315610891 0.1332358891039160 0.6359318160585444	-0.169809
C	0.5427794096290159 0.7404469604223995 0.6317192051085034	0.095981
C	0.5434749684389109 0.8667641548960877 0.6359318160585444	-0.169810
C	0.0672391438921987 0.5000000000000000 0.5000000000000000	0.098719
C	0.9327609321078005 0.5000000000000000 0.5000000000000000	0.098721
C	0.5000000000000000 0.0672391438921987 0.5000000000000000	0.098720
C	0.5000000000000000 0.9327609321078005 0.5000000000000000	0.098722
H	0.3129010770783072 0.4247772969750081 0.2635960039507046	0.104488
H	0.0870425064564988 0.4204662158201827 0.2554754158810346	0.125960
H	0.6870988799216933 0.5752227030249919 0.2635960039507046	0.104488
H	0.9129575095435022 0.5795337841798175 0.2554754158810346	0.125961
H	0.5752227030249919 0.3129010770783072 0.2635960039507046	0.104488
H	0.5795337841798175 0.0870425064564988 0.2554754158810346	0.125962
H	0.4247772969750081 0.6870988799216933 0.2635960039507046	0.104488
H	0.4204662158201827 0.9129575095435022 0.2554754158810346	0.125962
H	0.6870988799216933 0.4247772969750081 0.7364039670492967	0.104488
H	0.9129575095435022 0.4204662158201827 0.7445246431189666	0.125960
H	0.3129010770783072 0.5752227030249919 0.7364039670492967	0.104488
H	0.0870425064564988 0.5795337841798175 0.7445246431189666	0.125957
H	0.4247772969750081 0.3129010770783072 0.7364039670492967	0.104488
H	0.4204662158201827 0.0870425064564988 0.7445246431189666	0.125960
H	0.5752227030249919 0.6870988799216933 0.7364039670492967	0.104488
H	0.5795337841798175 0.9129575095435022 0.7445246431189666	0.125960
Co	0.5000000000000000 0.5000000000000000 0.5000000000000000	0.566393
Ge	0.5000000000000000 0.5000000000000000 0.0000000000000000	1.755523
F	0.5000000000000000 0.5000000000000000 0.7701615625945351	-0.511617
F	0.5000000000000000 0.5000000000000000 0.2298384374054652	-0.511617
F	0.3823651208243995 0.3823651208243995 0.0000000000000000	-0.549903
F	0.6176348791756004 0.6176348791756006 0.0000000000000000	-0.549903
F	0.6176348791756004 0.3823651208243995 0.0000000000000000	-0.549903
F	0.3823651208243995 0.6176348791756006 0.0000000000000000	-0.549903
N	0.3218402762793132 0.5000000000000000 0.5000000000000000	-0.186730
N	0.6781597457206887 0.5000000000000000 0.5000000000000000	-0.186728
N	0.5000000000000000 0.3218402762793132 0.5000000000000000	-0.186730
N	0.5000000000000000 0.6781597457206887 0.5000000000000000	-0.186728
	  	
