#======================================================================

# CRYSTAL DATA

#----------------------------------------------------------------------

data_VESTA_phase_1


_pd_phase_name                         InFFIVE_2_Cd
_cell_length_a                         14.37126
_cell_length_b                         14.37160
_cell_length_c                         8.63533
_cell_angle_alpha                      90.36096
_cell_angle_beta                       89.63877
_cell_angle_gamma                      89.93165
_symmetry_space_group_name_H-M         P 1
_symmetry_Int_Tables_number            1

loop_
_symmetry_equiv_pos_as_xyz
   x, y, z

loop_
   _atom_site_label
   _atom_site_fract_x
   _atom_site_fract_y
   _atom_site_fract_z
   _atom_site_charge
C	0.5271506716042178 0.7122381540525636 0.1256762704520604	0.100017
C	0.5289209551595614 0.8088821488452981 0.1309981438627688	-0.165146
C	0.4705307938767068 0.2887579048963256 0.1269464600068749	0.099033
C	0.4698579657310420 0.1920671322338297 0.1314042004841547	-0.164698
C	0.2882838241435893 0.5284887587985925 0.1246984161572451	0.100232
C	0.1916262623021524 0.5297448727435178 0.1305995330289903	-0.167082
C	0.7117736301700243 0.4720718431921844 0.1268233768205743	0.097809
C	0.8084488625347458 0.4708853347132961 0.1309046238786580	-0.164907
C	0.4720706325640415 0.7117722857259540 0.8731753819542389	0.097665
C	0.4708849739513271 0.8084465178593578 0.8690946514265400	-0.164820
C	0.5284881874843242 0.2882878159185221 0.8752949531091831	0.100227
C	0.5297449833828162 0.1916303271066727 0.8693960129299025	-0.167132
C	0.7122399507894982 0.5271527754012516 0.8743222631521246	0.100008
C	0.8088845858365402 0.5289225393439382 0.8689985217192401	-0.165047
C	0.2887543280899724 0.4705308124072970 0.8730513415924899	0.098974
C	0.1920622425878961 0.4698579263029979 0.8685932417227450	-0.164626
C	0.4999765692343588 0.1412892500884979 0.0001695910577012	0.171938
C	0.5001754668413954 0.0426687464824393 -0.0001164074548317	-0.095577
C	0.5000366648126099 0.8591785083753239 0.0002286395064477	0.168569
C	0.5001865980055662 0.9578080620366647 0.0004218939606797	-0.089247
C	0.8591787875197133 0.5000366677815263 -0.0002321444335634	0.168635
C	0.9578063620884391 0.5001873113158650 -0.0004238698348228	-0.089494
C	0.1412867994840494 0.4999785329463959 -0.0001735234138429	0.171882
C	0.0426687026486160 0.5001764696961524 0.0001126139770307	-0.095344
H	0.5468125237209381 0.6708901935004674 0.2258154989441313	0.097742
H	0.5521014382257309 0.8453141863558351 0.2347086616678168	0.127859
H	0.4476856796054709 0.3303949768551025 0.2265368330552613	0.100156
H	0.4460691685042014 0.1557517420881171 0.2346301517815111	0.128269
H	0.3300348757449009 0.5507176995345794 0.2233718268715496	0.095527
H	0.1550435973719365 0.5534944243367698 0.2343884903531936	0.127685
H	0.6706154548340405 0.4519260460697436 0.2279944698959570	0.102288
H	0.8445298828435784 0.4476477106723810 0.2342153470490916	0.129508
H	0.4519262276549598 0.6706172799568950 0.7720013977460239	0.102381
H	0.4476493080380925 0.8445308986157868 0.7657857724556706	0.129426
H	0.5507179348015885 0.3300378565668726 0.7766178558631363	0.095576
H	0.5534917756958504 0.1550464257905674 0.7656050533190210	0.127718
H	0.6708942846880092 0.5468161116988091 0.7741820871640290	0.097745
H	0.8453144779567766 0.5521029303118664 0.7652845156279461	0.127798
H	0.3303882100889744 0.4476817483769411 0.7734601928436816	0.100198
H	0.1557503272763932 0.4460675103849708 0.7653655503522662	0.128288
Cd	0.5004702891567742 0.5004711040820001 0.0000268505504184	0.823873
In	0.4998405770312617 0.4998450752956642 0.5000005178166795	1.568596
F	0.4996741419226720 0.5012696813826563 0.7436798379253177	-0.576973
F	0.5012605855952313 0.4996580692701227 0.2563234513546392	-0.577083
F	0.4628687980103744 0.6366264256751201 0.4999438698994150	-0.629493
F	0.3999324030099652 0.3998887998621408 0.5000103588570766	-0.631153
F	0.6366218258453149 0.4628703815525914 0.5000944277992881	-0.629503
N	0.4994976395906347 0.3359298651264208 0.0013114465473031	-0.235210
N	0.4995406749264297 0.6646311723942787 -0.0006698578566468	-0.238886
N	0.6646307722643484 0.4995425353043166 0.0006687187847807	-0.238971
N	0.3359283907523297 0.4994984816745003 -0.0013174223311306	-0.235230
	  	
