#======================================================================

# CRYSTAL DATA

#----------------------------------------------------------------------

data_VESTA_phase_1


_pd_phase_name                         InFFIVE_16_Co_i
_cell_length_a                         25.13333
_cell_length_b                         25.11768
_cell_length_c                         8.06030
_cell_angle_alpha                      89.98766
_cell_angle_beta                       90.01054
_cell_angle_gamma                      90.06496
_symmetry_space_group_name_H-M         P 1
_symmetry_Int_Tables_number            1

loop_
_symmetry_equiv_pos_as_xyz
   x, y, z

loop_
   _atom_site_label
   _atom_site_fract_x
   _atom_site_fract_y
   _atom_site_fract_z
   _atom_site_charge
C	0.4786266837651957 0.3873144919299006 0.3728913678639781	0.094965
C	0.4776989644624772 0.3320275336606120 0.3681257582030217	-0.171032
C	0.9552759359664246 0.6132312786088129 0.9436906977068611	-0.124395
C	0.9554115815296146 0.5579096803211961 0.9443233686162332	-0.125765
C	0.5213348841308493 0.6129894641052631 0.3720229146512158	0.102902
C	0.5223380260083552 0.6682128283311943 0.3667992789466690	-0.171379
C	0.0447121457883176 0.3868859959297256 0.9436453181626840	-0.124678
C	0.0445794574421959 0.4422000286812927 0.9442904096232780	-0.127212
C	0.6129940211020186 0.4780797370330361 0.3741802002898680	0.095531
C	0.6682142522204335 0.4775392508569707 0.3687650713591115	-0.170250
C	0.3868616276452025 0.9552174582037359 0.9436381881628073	-0.124988
C	0.4421415654124817 0.9553721853580137 0.9443953982529292	-0.127277
C	0.3872842084703681 0.5219983354046484 0.3731278371070925	0.098004
C	0.3320463867082418 0.5224620357641776 0.3672222979853650	-0.172464
C	0.6132345526421775 0.0447781674561585 0.9435996530196068	-0.124833
C	0.5579464233651044 0.0446111839620208 0.9443325186383870	-0.127831
C	0.5219954773889026 0.3873484799811334 0.6268005973992248	0.098343
C	0.5224587203758334 0.3320838712068174 0.6327291942342506	-0.172295
C	0.0447490103132530 0.6132934865721046 0.0563756682967231	-0.124246
C	0.0445856019465354 0.5579711703434095 0.0556365453649923	-0.126872
C	0.4780875335357879 0.6129395197367754 0.6258899912274211	0.095746
C	0.4775371013681801 0.6681866091678701 0.6312587057502516	-0.169634
C	0.9552447175777808 0.3867997579301580 0.0563280759373689	-0.123661
C	0.9553981143535376 0.4421147455918937 0.0555789087172110	-0.126553
C	0.3872599803081794 0.4786382223873127 0.6270382293166878	0.095112
C	0.3320004786033912 0.4777044730664887 0.6318278381058031	-0.171513
C	0.6131727590766822 0.9552512584330095 0.0563348437065550	-0.125001
C	0.5578848030216551 0.9553867520590505 0.0556888517413021	-0.126772
C	0.6130499166882135 0.5213248241387163 0.6280401848269733	0.103019
C	0.6682466388519399 0.5223377288198324 0.6332205162224589	-0.171731
C	0.3869481404731047 0.0447400232158273 0.0563780972567080	-0.125889
C	0.4422280172609643 0.0446043278944478 0.0557295961838909	-0.126455
C	0.5447602425812190 0.8870817751719345 0.5564220000242297	-0.125177
C	0.5446221258702769 0.9423590244190926 0.5557684612686987	-0.125552
C	0.0216379574441364 0.1122729145829596 0.1277830357840385	0.102455
C	0.0223887543604061 0.1675402912293255 0.1331838444965303	-0.169361
C	0.4552413276141147 0.1130432881980468 0.5563388379679459	-0.124288
C	0.4553728874063888 0.0577596706591876 0.5557118022845781	-0.125147
C	0.9783290417790805 0.8880181333460873 0.1266828608427429	0.095719
C	0.9776784681002401 0.8326843217121456 0.1317527374896738	-0.170352
C	0.1130996032301954 0.5448063867576917 0.5564435407258760	-0.124205
C	0.0578355452789643 0.5446339047728064 0.5557012473728549	-0.126195
C	0.8878027883146576 0.0216645353747101 0.1268951011510280	0.097341
C	0.8325473173949843 0.0223733245383461 0.1325586157056468	-0.173441
C	0.8870103708823603 0.4551805652208533 0.5564085396566097	-0.125165
C	0.9422679597883115 0.4553288593605591 0.5556510724822491	-0.126381
C	0.1125108875085103 0.9783219058056982 0.1256806212567751	0.093716
C	0.1677525039347445 0.9775885280782834 0.1309805266969839	-0.171563
C	0.4551955737295992 0.8870002438635441 0.4436111864916465	-0.124487
C	0.4553458190591921 0.9422786397925133 0.4443669120580423	-0.125475
C	0.9783250240811409 0.1121910815578507 0.8743211834449105	0.095565
C	0.9775998373543513 0.1674751800213239 0.8691047234374628	-0.169764
C	0.5447901772384213 0.1131109399095199 0.4435698088018232	-0.124100
C	0.5446147927665470 0.0578253751419969 0.4443144995562727	-0.127448
C	0.0216676742548944 0.8881170485312144 0.8731107944531933	0.098396
C	0.0223670250911912 0.8328153769510300 0.8675321829000803	-0.171203
C	0.8870909857315056 0.5447750122025460 0.4435604498706565	-0.125760
C	0.9423471178544948 0.5446397304933073 0.4442153599837078	-0.126251
C	0.1125906288035148 0.0216491521750523 0.8721989037962782	0.100401
C	0.1678166455080177 0.0224192037090369 0.8667232331855940	-0.169640
C	0.1130299934022076 0.4552267816793952 0.4436445100841175	-0.124707
C	0.0577685538414494 0.4553576127266905 0.4442738503053199	-0.125709
C	0.8877050433871945 0.9783260056248357 0.8732930067572523	0.094771
C	0.8324176553907343 0.9776597659896470 0.8681540415636098	-0.172313
C	0.4999954955661018 0.3030921213199185 0.5005955346978365	0.176313
C	0.4999630764654542 0.2466339035335647 0.5006779705266302	-0.119059
C	0.5000362117596249 0.1980772694098272 0.5001695948260902	-0.090395
C	0.5000305309455488 0.1416596679698907 0.4999675214459274	0.121617
C	0.4999886286131743 0.0292862264929330 0.5000648119574065	0.068426
C	-0.0000199733906104 0.8036450325795517 -0.0004820644262421	0.176069
C	0.0000118563170602 0.7470956619471566 -0.0005169744167903	-0.118004
C	0.0000399179394211 0.6984973814447449 -0.0001438238402173	-0.091119
C	0.0000241577774646 0.6419785307401403 0.0000192907845911	0.123147
C	-0.0000039470387666 0.5293260141913543 -0.0000677639201522	0.068461
C	0.4999227312757048 0.6971299363663770 0.4989376013569592	0.174901
C	0.5000445702835902 0.7535629416903015 0.4990841212145031	-0.116406
C	0.5000278831039420 0.8021115238655268 0.4996321509501917	-0.093869
C	0.4999836471634012 0.8584918055994845 0.4999510737347276	0.123948
C	0.4999834085106192 0.9708140559985406 0.5001002936868474	0.067446
C	-0.0000450490664815 0.1965701451053804 0.0012030954682353	0.173910
C	0.0000044231012839 0.2530956822009620 0.0010228674908392	-0.115592
C	0.0000096880645420 0.3016733883990386 0.0003992904571316	-0.093862
C	-0.0000190805325169 0.3581619859914038 0.0000498669567902	0.123811
C	-0.0000085847629027 0.4707612885481148 -0.0000927839328626	0.067895
C	0.6971654129187189 0.4999273267258771 0.5010612466518556	0.173463
C	0.7535917477455276 0.5000447105836721 0.5009148420913304	-0.114178
C	0.8021117381231723 0.5000281744661232 0.5003672081904534	-0.096260
C	0.8584883366587088 0.4999844734622933 0.5000532223347336	0.124951
C	0.9708180495044295 0.4999848601052146 0.4999058836002030	0.069343
C	0.1967939594032483 -0.0000400940639086 -0.0012146510560457	0.170165
C	0.2532688836765413 0.0000099608626818 -0.0010437373695436	-0.113794
C	0.3018096205939000 0.0000104471441048 -0.0004085869471479	-0.098193
C	0.3582493658030075 -0.0000172089292693 -0.0000604457764581	0.125480
C	0.4707731399763000 -0.0000094776448967 0.0000875510620118	0.068918
C	0.3030511344841954 0.4999987748703321 0.4993765488697942	0.175605
C	0.2466001828235982 0.4999644617059530 0.4993110361733094	-0.117645
C	0.1980732151895845 0.5000370057259084 0.4998182084059680	-0.092564
C	0.1416608375193859 0.5000307508975101 0.5000300100840770	0.122583
C	0.0292833089520187 0.4999910505452509 0.4999385524012124	0.067305
C	0.8034302038253939 -0.0000250140774376 0.0004826631824968	0.173050
C	0.7469250751666089 0.0000179903179685 0.0005354744669382	-0.115311
C	0.6983723232012321 0.0000476104505646 0.0001622332365374	-0.097148
C	0.6418913544395295 0.0000282251640733 -0.0000121936147875	0.124537
C	0.5293133250380764 -0.0000044850825441 0.0000582085184809	0.070328
H	0.4618382969560140 0.4107312228152213 0.2714005712926809	0.102559
H	0.4600557818184887 0.3114654113614623 0.2625904789550031	0.129007
H	0.9206816707379740 0.6349479119724900 0.8983871178485133	0.111542
H	0.9209222260879411 0.5363132004675658 0.8970005894426271	0.106785
H	0.5378189750106891 0.5894324044897818 0.2710842111243752	0.097417
H	0.5400851971370564 0.6887902579232303 0.2615208322266050	0.127198
H	0.0792839873421752 0.3651410089843096 0.8983919662790532	0.111329
H	0.0790680401904111 0.4638038499850964 0.8970063078302457	0.107375
H	0.5896306783865851 0.4619363062464641 0.2719426571129536	0.102940
H	0.6886728256186060 0.4603012956435352 0.2625205726626985	0.128779
H	0.3650608470119979 0.9206265537484124 0.8982922563305596	0.111553
H	0.4636735836242342 0.9208869990931118 0.8970569519850345	0.106094
H	0.4110338911660883 0.5392224399620354 0.2732907141534137	0.096736
H	0.3114908903111108 0.5398891465802576 0.2614563087797506	0.126972
H	0.6349829369870672 0.0794044145541755 0.8982399581930549	0.110763
H	0.5363930781526818 0.0790985692590597 0.8970169827398626	0.106102
H	0.5392166851239627 0.4111193388972142 0.7266007842040929	0.097528
H	0.5398788586434780 0.3115023954494427 0.7384768858783516	0.127601
H	0.0793614196675165 0.6350447980790910 0.1017152644661388	0.110930
H	0.0790518520503901 0.5364043535227666 0.1029399524317831	0.106845
H	0.4619534330047715 0.5895648218290308 0.7281327149939413	0.103368
H	0.4602993971762236 0.6886786264434573 0.7374506552177571	0.129436
H	0.9206653685829129 0.3650007047006107 0.1016588216749049	0.111614
H	0.9209314854081299 0.4636622991599819 0.1028990689724532	0.106887
H	0.4106693378930515 0.4618518184023375 0.7285331006945278	0.102005
H	0.3114745315822821 0.4600557417237463 0.7374151326556129	0.128421
H	0.6348850019411006 0.9206424853362760 0.1016654400072121	0.111421
H	0.5363010473108425 0.9208785524636106 0.1030299193264754	0.105905
H	0.5895145173897733 0.5378017321495017 0.7290204028348265	0.096661
H	0.6887965961883100 0.5400965256565893 0.7385164878365215	0.126585
H	0.3652012829218916 0.0793230397594074 0.1016524676139038	0.111200
H	0.4638147646241562 0.0791122893157057 0.1030304666597817	0.105218
H	0.5792800740540737 0.8652215505924276 0.6016147857354338	0.111394
H	0.5790860144904288 0.9639949878403224 0.6030399587090316	0.106400
H	0.0382666832817292 0.0887175240180022 0.2285217427409805	0.097877
H	0.0400410609072228 0.1880227052816772 0.2387632901585890	0.127463
H	0.4207099186955859 0.1348609149485639 0.6015860358117991	0.111808
H	0.4209180429741848 0.0361194579113400 0.6030185163828378	0.106570
H	0.9614353284688424 0.9114132894100019 0.2279805249892504	0.102635
H	0.9601814845696842 0.8122069718658321 0.2376607610381538	0.128658
H	0.1349237753450896 0.5793923506334766 0.6017581677470720	0.111124
H	0.0362522275922664 0.5790930762385380 0.6029944462920463	0.105850
H	0.9116064324572147 0.0388962482835351 0.2266415227829116	0.093022
H	0.8121164740319931 0.0399697752010112 0.2382528677134552	0.125814
H	0.8651355692165081 0.4206248891318225 0.6017200483772386	0.112154
H	0.9638349029695042 0.4208566830446845 0.6029938587908953	0.105934
H	0.0890899376234472 0.9620737500135295 0.2276235174569778	0.099674
H	0.1881071534907271 0.9601779626696981 0.2372007110197246	0.127028
H	0.4206713715049766 0.8650964689473568 0.3983276339444793	0.111994
H	0.4209035366603637 0.9638704581254069 0.3970545946070699	0.106391
H	0.9620717691055226 0.0888137863342548 0.7722963502340711	0.103653
H	0.9601921848761724 0.1878306352388577 0.7628986819688930	0.129447
H	0.5793489724762827 0.1349627412319778 0.3982937970136860	0.111323
H	0.5790458650642737 0.0362170689080447 0.3970486386643977	0.108060
H	0.0389115008259328 0.9118798007510515 0.7732956620590471	0.097838
H	0.0399548065609219 0.8123698829650162 0.7618673640385303	0.127318
H	0.8652593219222067 0.5793238163035642 0.3983312375248937	0.111446
H	0.9639580812143200 0.5791341819738658 0.3969172624133602	0.105774
H	0.0889918691667488 0.0382729435881105 0.7715406624101472	0.093157
H	0.1882961917314914 0.0400666615497011 0.7611105583479459	0.124751
H	0.1348196756585051 0.4206668286567597 0.3983581755660122	0.111826
H	0.0361525386457263 0.4208755340685257 0.3969401648696054	0.106133
H	0.9111425467428318 0.9614523094640272 0.7720594818712980	0.098180
H	0.8119412514999824 0.9601667725372082 0.7622229527702901	0.126565
Co	0.5001851461702242 0.5001903252901722 0.5000250363142195	0.608623
Co	0.0001693941935183 0.0001830677388848 0.0000176707518040	0.617721
In	0.4990718565513102 0.4990763128164841 0.0000640938150187	1.553845
In	-0.0008879918991048 -0.0008998234512747 0.5000229927117227	1.552074
F	0.5014446904420619 0.4986223541953458 0.2573517526556952	-0.556346
F	-0.0011929330401797 0.0015145340369322 0.7612399691491391	-0.551721
F	0.4985725391314431 0.5014018223094211 0.7427247194521431	-0.556413
F	0.0015595661188627 -0.0011168577108485 0.2387863708310911	-0.551664
F	0.4419000371551046 0.4418625909198641 0.0001861163890837	-0.621519
F	0.9422535120896144 0.9421159166812246 0.4998035832299295	-0.614102
F	0.4767577657592617 0.5768027901066463 0.0092549283022440	-0.623100
F	0.9766626220073605 0.0763113488828340 0.4904009256657945	-0.615781
F	0.5767584794034050 0.4767940398033239 0.9907158505902114	-0.622964
F	0.0762585758216242 0.9766274958712132 0.5097533077040086	-0.614810
N	0.5005058986271117 0.4147006470707145 0.4996796005350433	-0.189914
N	-0.0000393998236251 0.9155387946693772 -0.0002491385509235	-0.183222
N	0.4995295469712195 0.5855797824244948 0.4985921817992884	-0.195238
N	0.0000057709082620 0.0847572757729652 0.0011771545939525	-0.187818
N	0.5856436344076968 0.4995096814224063 0.5015086819886915	-0.199979
N	0.0851319219546865 0.0000007960883720 -0.0011980857013927	-0.211191
N	0.4146393918334917 0.5005134747706966 0.5002298121247587	-0.194574
N	0.9151659394187133 -0.0000425897849212 0.0002439128763908	-0.207800
	  	
