#======================================================================

# CRYSTAL DATA

#----------------------------------------------------------------------

data_VESTA_phase_1


_pd_phase_name                         InFFIVE_18_Ni
_cell_length_a                         13.86580
_cell_length_b                         13.93882
_cell_length_c                         8.19584
_cell_angle_alpha                      89.96193
_cell_angle_beta                       96.25463
_cell_angle_gamma                      90.04500
_symmetry_space_group_name_H-M         P 1
_symmetry_Int_Tables_number            1

loop_
_symmetry_equiv_pos_as_xyz
   x, y, z

loop_
   _atom_site_label
   _atom_site_fract_x
   _atom_site_fract_y
   _atom_site_fract_z
   _atom_site_charge
F	0.5010286171310878 0.3306427972138340 0.4956766538915406	-0.594015
F	0.5217471787465147 0.4911370267196067 0.7554069445392680	-0.555751
F	0.3624611434539526 0.5279652526748851 0.5150491690056307	-0.559226
F	0.0010506586861215 0.8285214062544903 0.4921601650342621	-0.593867
F	0.0233553783728279 0.9884055539138238 0.7544744478588434	-0.551955
F	0.8614025206052689 0.0253144174273458 0.5178553476067342	-0.560112
F	0.6355745465766069 0.5303337901486656 0.4872675030080995	-0.558791
F	0.4781656985248550 0.4927061755882043 0.2462407166380611	-0.555274
F	0.1357056779620833 0.0300600705482718 0.4866613746441186	-0.559323
F	0.9765864370531621 -0.0075220539871500 0.2498209073118693	-0.551611
C	0.6809857192477964 0.1644796177318994 0.6657201161860604	-0.421251
C	0.7548169762048025 0.1547062882467260 0.8106750518367123	0.201558
C	0.7616204663155421 0.1981871437428467 0.9652991371578465	-0.151898
C	0.6922174712441905 0.2640614889535474 0.0266693267683241	-0.142511
C	0.6757784365819377 0.3618294902182995 0.9845158366801944	0.215057
C	0.7307702667746094 0.4227692551902313 0.8770560937534903	-0.427927
C	0.8896889202078774 0.1899745742997887 0.2204078792577119	-0.431305
C	0.8488891617967098 0.1632974931844049 0.0509120458482108	0.218777
C	0.6264825961234544 0.2423959782590358 0.1397174677616845	0.209743
C	0.6068983937513972 0.1512726397592778 0.2249870068439336	-0.429660
C	0.1797649932516005 0.6662963871569365 0.6651733946291376	-0.421556
C	0.2535347435602675 0.6564987180093390 0.8102262264828759	0.201654
C	0.2605040774271155 0.6998370330599343 0.9650447539156365	-0.151883
C	0.1911201978494637 0.7655331840655665 0.0269423395404401	-0.143254
C	0.1750083105028405 0.8634786126049260 0.9860086881531698	0.216440
C	0.2308003825378294 0.9245544400970678 0.8800129505701400	-0.427509
C	0.3892246215253015 0.6907294057879455 0.2198481263128997	-0.430971
C	0.3478176327126219 0.6646664337204724 0.0502847200401177	0.217517
C	0.1251711727240565 0.7434358915962824 0.1394397228307051	0.211528
C	0.1051780362027101 0.6519171829836071 0.2232528336463855	-0.428935
C	0.3181122605559017 0.1653237880513210 0.3324584650845846	-0.424786
C	0.2437450648990626 0.1553363192343897 0.1883623817528567	0.201990
C	0.2380904830690775 0.1962992699547244 0.0316161993678704	-0.152495
C	0.3091539771128313 0.2606891577545663 0.9706441930188064	-0.141429
C	0.3264185965078192 0.3578030596355402 0.0166939344557659	0.216695
C	0.2698543028434202 0.4176928566881529 0.1229779958531416	-0.428274
C	0.1071663045855622 0.1910630920836257 0.7800101123024232	-0.431836
C	0.1489101183133810 0.1640663723788781 0.9488972608899164	0.219834
C	0.3763144238503950 0.2395071801816146 0.8598703275242854	0.210074
C	0.3958519017723126 0.1497131582063992 0.7706198678590029	-0.429315
C	0.8190056457210795 0.6653751506586474 0.3323105465223659	-0.423281
C	0.7449250659762373 0.6559914836075781 0.1877625888986298	0.201165
C	0.7393203639961062 0.6974493845108011 0.0313954056289824	-0.151670
C	0.8105027438385605 0.7620073892425029 0.9713334387622291	-0.141372
C	0.8275017694636518 0.8590392892455955 0.0181854821551615	0.216311
C	0.7701155099418372 0.9183299695721570 0.1239825350302031	-0.428916
C	0.6081373090885106 0.6923976462705674 0.7795753907788131	-0.430563
C	0.6501926560333372 0.6653061823849274 0.9483176324580177	0.219448
C	0.8781437755330018 0.7410379049076053 0.8613344541795434	0.211356
C	0.8978725587125344 0.6515049220213682 0.7715351920605598	-0.427971
H	0.7148548103674878 0.1847205903710611 0.5556877371200857	0.145124
H	0.6279613398839021 0.2199519903869578 0.6874035548560089	0.137850
H	0.6418174328161862 0.0967230757356219 0.6381134650900917	0.135035
H	0.6832213752731778 0.4568788411789736 0.7782156997015616	0.140816
H	0.7849203854849627 0.3791231870641931 0.8232342478718871	0.133987
H	0.7690273919607709 0.4807135708833718 0.9486653554459124	0.133276
H	0.8525739360045540 0.0586133742286920 0.7112443699773909	0.272953
H	0.8619300858310560 0.1430902905803754 0.3126886358567250	0.133931
H	0.8685609377258869 0.2640402484705140 0.2453814623237079	0.132985
H	0.9690206828965511 0.1846819322438121 0.2356312921349995	0.137648
H	0.5711762048370785 0.1654554052987977 0.3355243820029645	0.145903
H	0.6744326819810913 0.1118292395601239 0.2600161952210082	0.152060
H	0.5592846682260751 0.1041128882475853 0.1441246411485523	0.134535
H	0.5263002884412233 0.3355292448787656 0.2389532582090729	0.264548
H	0.2137656745837690 0.6858748100010675 0.5549636658698521	0.145791
H	0.1268715230324854 0.7220783616000157 0.6858830593973076	0.137556
H	0.1403042722415827 0.5986566736382944 0.6380293461102405	0.134932
H	0.1840835599268999 0.9577146578934650 0.7790465836118317	0.140603
H	0.2862343010668811 0.8810633374210386 0.8292675641039010	0.133505
H	0.2674903793213291 0.9831970092207880 0.9520186568774188	0.132505
H	0.3512354354048627 0.5604551679547178 0.7106613529221635	0.271884
H	0.3619147146206302 0.6434359218570896 0.3120279161470453	0.134290
H	0.3683622572025412 0.7646797872677876 0.2463090019247479	0.132605
H	0.4685884650034973 0.6852694772688738 0.2337024280065103	0.137559
H	0.0699784815210355 0.6656587419137808 0.3344322719856889	0.146570
H	0.1724384323436700 0.6117794343024217 0.2567017004227281	0.151480
H	0.0568410011922941 0.6056845230137984 0.1418869796825547	0.133679
H	0.0252925417593696 0.8363112709624693 0.2401076289483495	0.265276
H	0.2835184938560279 0.1772838383176015 0.4448457218177301	0.146473
H	0.3664977259712014 0.2259711777758052 0.3160110959721389	0.140213
H	0.3628896473443151 0.1002777245044414 0.3516727872225083	0.134986
H	0.3167182567289610 0.4600708605855956 0.2119032130958998	0.141520
H	0.2226846120498122 0.3719052534022507 0.1889094983558436	0.135492
H	0.2234267416846803 0.4683162397165648 0.0471777680735914	0.133227
H	0.1434715060288219 0.0639957109384039 0.2926935998418250	0.272214
H	0.1277014088024781 0.1397508048473756 0.6880010272786790	0.134545
H	0.1350496640199005 0.2619901798240266 0.7497316078200829	0.132594
H	0.0276700138351452 0.1939210247641595 0.7703912411624210	0.138434
H	0.4313680897485986 0.1661196369670438 0.6605959159206614	0.145797
H	0.3281937801210399 0.1107999551316333 0.7337185252796214	0.153429
H	0.4435124002211910 0.1009366600132803 0.8483126424912212	0.135069
H	0.4797027810619868 0.3334669102499586 0.7695363509221796	0.265591
H	0.7839839264133784 0.6746666304683513 0.4449152168941378	0.145785
H	0.8662839700745392 0.7272796682354831 0.3189528889940621	0.140788
H	0.8650734285324735 0.6010692101904429 0.3489692854079265	0.134205
H	0.8162515369898379 0.9604032869218431 0.2144200396846797	0.142346
H	0.7226965346137452 0.8717802656934273 0.1879916126632977	0.135636
H	0.7238093693077092 0.9690018219221077 0.0480434264385321	0.133247
H	0.6445141954177197 0.5644530404994025 0.2907736005638122	0.272092
H	0.6298147042663094 0.6419929777114201 0.6870760567942444	0.134292
H	0.6344510416168334 0.7640851565145805 0.7500887338881219	0.132195
H	0.5285975173030204 0.6934508240278460 0.7699950505956279	0.138534
H	0.9320386949404673 0.6683525291757448 0.6603199965142266	0.146069
H	0.8303978275915204 0.6118882028593827 0.7367326284616018	0.152809
H	0.9468032444724294 0.6032744311543626 0.8480743234959466	0.134066
H	0.9824197515210644 0.8355387019596857 0.7739025593498706	0.263709
N	0.8332570294442472 0.0973685370844511 0.8107309765568498	-0.153715
N	0.6034542149879065 0.3967530968709862 0.0643516892449086	-0.260598
N	0.8914216739895160 0.1015710117137828 0.9546732264312286	-0.250145
N	0.5758000757089996 0.3235362863249858 0.1577996187579961	-0.145430
N	0.3318637710065347 0.5990036641663392 0.8100941732696376	-0.151198
N	0.1024596300778366 0.8980524460914809 0.0658815896703246	-0.261285
N	0.3901869678428225 0.6029789791964337 0.9539143352735959	-0.251502
N	0.0744644420109229 0.8244453971741729 0.1582543924216442	-0.147189
N	0.1631638028383266 0.1014516239460456 0.1919423104012195	-0.151158
N	0.4003143007698383 0.3929502426878019 0.9411853426881676	-0.256484
N	0.1046166305452286 0.1054664747918883 0.0483306700838007	-0.253419
N	0.4284439789262651 0.3205360445288769 0.8468392532279750	-0.150201
N	0.6642949217692020 0.6020894138158382 0.1906020507535103	-0.150765
N	0.9018443599811283 0.8942636296314205 0.9438325278419659	-0.253940
N	0.6058021021510580 0.6064324046645976 0.0470318806908872	-0.254607
N	0.9303656743931457 0.8220734497306670 0.8494119237510460	-0.150707
In	0.4993570445744727 0.4768963016240673 0.5007306434572431	1.555721
In	-0.0007030945579735 0.9752669876712302 0.5018373139466465	1.551581
Ni	0.4995366737785917 0.5041023554930183 0.0010153983851621	0.799740
Ni	-0.0003232681933165 0.0041468322141849 0.0030620348381288	0.792404
	  	
