#======================================================================

# CRYSTAL DATA

#----------------------------------------------------------------------

data_VESTA_phase_1


_pd_phase_name                         InFFIVE_2_Ni_i
_cell_length_a                         13.90218
_cell_length_b                         13.90248
_cell_length_c                         8.30735
_cell_angle_alpha                      90.00001
_cell_angle_beta                       90.00027
_cell_angle_gamma                      89.84489
_symmetry_space_group_name_H-M         P 1
_symmetry_Int_Tables_number            1

loop_
_symmetry_equiv_pos_as_xyz
   x, y, z

loop_
   _atom_site_label
   _atom_site_fract_x
   _atom_site_fract_y
   _atom_site_fract_z
   _atom_site_charge
C	0.0003110195761683 0.3023662689087091 0.3549905664281628	-0.159515
C	0.0002513500881938 0.2026049451104003 0.3605602908075611	0.100009
C	0.5003095225518884 0.8023581073302550 0.8549637885194720	-0.159700
C	0.5002492166953100 0.7025785967448073 0.8605243809202275	0.100085
C	0.0001024592272405 0.6981285500306753 0.3548975843195091	-0.162358
C	-0.0001889969524258 0.7978642179392798 0.3607007970387638	0.105654
C	0.5000987846689250 0.1981414916359363 0.8548832068003107	-0.162444
C	0.4998042301521181 0.2978788978984624 0.8606750470038445	0.105630
C	0.6981301337910498 0.0000994983644110 0.3548965687619344	-0.162299
C	0.7978669464531215 -0.0001920386826290 0.3607009720066556	0.105733
C	0.1981418775061881 0.5000963607812007 0.8548835746131229	-0.162346
C	0.2978808902429270 0.4998016411673794 0.8606763571454338	0.105569
C	0.3023691162549085 0.0003086237413261 0.3549898993655602	-0.159560
C	0.2026064380561667 0.0002489318272403 0.3605595407188671	0.100083
C	0.8023594164897496 0.5003075199920655 0.8549660374627962	-0.159700
C	0.7025787824892100 0.5002464374685708 0.8605260139309449	0.100141
C	0.0003110239966493 0.3023662990048850 0.6450100913477507	-0.159473
C	0.0002513725736329 0.2026049737259183 0.6394410181661098	0.099991
C	0.5003095274922726 0.8023572965218069 0.1450349643397315	-0.159715
C	0.5002492767120911 0.7025784528380100 0.1394730025558342	0.100052
C	0.0001024275726184 0.6981286085836895 0.6451032321665008	-0.162331
C	-0.0001890334296804 0.7978642673257403 0.6392993590415230	0.105642
C	0.5000985548172703 0.1981408825340475 0.1451176411027660	-0.162340
C	0.4998038175184993 0.2978790372841111 0.1393268961330674	0.105603
C	0.3023696908806214 0.0003092070737903 0.6450102072021334	-0.159514
C	0.2026073217043804 0.0002490395959711 0.6394410248262671	0.100021
C	0.8023605292623752 0.5003074416329429 0.1450369854453118	-0.159611
C	0.7025796742193157 0.5002462992722393 0.1394773110592916	0.100070
C	0.6981306949992415 0.0000995281844592 0.6451036087362853	-0.162281
C	0.7978676025056120 -0.0001920176100221 0.6392997161863621	0.105842
C	0.1981424086718287 0.5000955156489354 0.1451179848665976	-0.162303
C	0.2978808605285890 0.4998013991487151 0.1393252565803341	0.105582
C	0.0002326846713120 0.4563725130758482 0.5000004941280077	-0.087932
C	0.0003965223699911 0.3546146584839106 0.5000004180045123	0.162733
C	0.5002307238233533 0.9563645626699945 -0.0000005764323733	-0.087881
C	0.5003942585251844 0.8545957054572123 -0.0000006882742128	0.162662
C	0.0003122169535059 0.5441335385459948 0.5000003432161704	-0.101058
C	0.0003847932199410 0.6458736218836019 0.5000003748953465	0.165819
C	0.5003127611450011 0.0441435771312354 0.0000005823066876	-0.101349
C	0.5003830571091222 0.1458939972794484 0.0000006375571363	0.166010
C	0.5441336263896499 0.0003097276829123 0.4999996203787882	-0.101153
C	0.6458772836027519 0.0003821251458267 0.4999999637483358	0.165757
C	0.0441476685571520 0.5003103489991529 0.0000000461606419	-0.101602
C	0.1458950498346945 0.5003807592456440 0.0000003833857171	0.166021
C	0.4563779438460173 0.0002305294543482 0.5000006047887928	-0.087773
C	0.3546165761901676 0.0003943474626248 0.5000004062397289	0.162700
C	0.9563639463607627 0.5002283196318106 0.0000015874747914	-0.087731
C	0.8545974678479117 0.5003921811774238 0.0000015511541426	0.162700
H	-0.0003433507314061 0.3388149168435680 0.2389981501901768	0.119851
H	-0.0013522866658706 0.1613960330035471 0.2493347347171332	0.092402
H	0.4996585195480981 0.8388326125203988 0.7390007137656901	0.119970
H	0.4986529302386680 0.6613935860675740 0.7492573158355371	0.092426
H	-0.0004563956988082 0.6611490121060147 0.2393419492452666	0.119639
H	-0.0019383772066793 0.8401587393868138 0.2506076365689983	0.087787
H	0.4995411095661477 0.1611333347557491 0.7393475521236934	0.119616
H	0.4980557244105791 0.3401625244332541 0.7505444485271378	0.087814
H	0.6611500477068988 -0.0004588084888717 0.2393404921773705	0.119641
H	0.8401607832987655 -0.0019408976562560 0.2506073819324381	0.087772
H	0.1611349348012131 0.4995380298328469 0.7393463721419945	0.119588
H	0.3401630485357865 0.4980493763566101 0.7505460706097254	0.087773
H	0.3388178291847873 -0.0003459262989755 0.2389968174937712	0.119852
H	0.1613980102344187 -0.0013547543872274 0.2493335646501336	0.092356
H	0.8388343773228940 0.4996557903897457 0.7390035366192768	0.119945
H	0.6613928100369783 0.4986474825076079 0.7492567272567390	0.092457
H	-0.0003433594814115 0.3388148678812636 0.7610026108689242	0.119846
H	-0.0013522349562269 0.1613959629590322 0.7506662863052012	0.092393
H	0.4996585831160161 0.8388320012261139 0.2609973453482046	0.119983
H	0.4986531498315910 0.6613931626429602 0.2507407441517961	0.092464
H	-0.0004564459529216 0.6611489659197002 0.7606588130839017	0.119638
H	-0.0019383256080163 0.8401587523733451 0.7493927041578672	0.087804
H	0.4995410285905716 0.1611331423154762 0.2606540696749449	0.119595
H	0.4980548335865563 0.3401623599008041 0.2494567224089836	0.087835
H	0.3388187876975391 -0.0003450238757309 0.7610036824291495	0.119847
H	0.1613990102529305 -0.0013542463275008 0.7506665838302347	0.092410
H	0.8388356805372738 0.4996553574033813 0.2610000013889782	0.119933
H	0.6613943397598082 0.4986469390126883 0.2507460472970757	0.092463
H	0.6611507932049775 -0.0004587818208107 0.7606593344383985	0.119645
H	0.8401614840967770 -0.0019409161498287 0.7493939890786364	0.087735
H	0.1611351737605446 0.4995379027264467 0.2606552484057750	0.119574
H	0.3401637811477978 0.4980489327343230 0.2494558267846788	0.087744
Ni	0.0007401172126465 0.0007374563390877 0.5000006651930808	0.762671
Ni	0.5007231203921436 0.5007208163798432 0.0000002901386901	0.763507
In	-0.0002262539719868 -0.0002266253463815 -0.0000000587439238	1.546750
In	0.4997354407927760 0.4998300639121681 0.4999987981684696	1.545436
N	0.0003328193879770 0.1528194903749653 0.5000004715601167	-0.233770
N	0.5003363430186250 0.6528274550971559 -0.0000017886990692	-0.234132
N	0.0000344465236055 0.8477635139479558 0.5000002341816502	-0.229518
N	0.5000284383907675 0.3477583782324288 0.0000012394598103	-0.229536
N	0.8477668646613945 0.0000310221508050 0.5000006661102920	-0.229727
N	0.3477614279925354 0.5000264567501134 0.0000012281423037	-0.229511
N	0.1528208169377319 0.0003306064696219 0.5000000291230332	-0.233734
N	0.6528278406969834 0.5003340562953311 0.0000014953242326	-0.234142
F	0.0002484967202790 0.0002444782433652 0.7439515041925410	-0.557456
F	0.5002534878108407 0.5002564649727335 0.2436346684822287	-0.557401
F	0.0002471975890715 0.0002448388867456 0.2560484476578951	-0.557459
F	0.5002428460028289 0.5002519290272354 0.7563615649769180	-0.557391
F	0.6400675326650713 0.4609208658603811 0.4999931114528958	-0.580947
F	0.4609605554889249 0.6401611679267883 0.4999932286934968	-0.581041
F	0.3970794909160453 0.3971443966138944 0.4999988472796401	-0.597494
F	0.8971929480289040 0.8971904893091679 -0.0000004245091225	-0.597908
F	0.9609828295322608 0.1399912916757305 0.0000000794505566	-0.581585
F	0.1399936782817329 0.9609861252364924 -0.0000163704747910	-0.581551
	  	
