#======================================================================

# CRYSTAL DATA

#----------------------------------------------------------------------

data_VESTA_phase_1


_pd_phase_name                         InFFIVE_6_Cd_i
_cell_length_a                         18.21982
_cell_length_b                         18.21983
_cell_length_c                         17.00650
_cell_angle_alpha                      90.00010
_cell_angle_beta                       89.99998
_cell_angle_gamma                      89.96437
_symmetry_space_group_name_H-M         P 1
_symmetry_Int_Tables_number            1

loop_
_symmetry_equiv_pos_as_xyz
   x, y, z

loop_
   _atom_site_label
   _atom_site_fract_x
   _atom_site_fract_y
   _atom_site_fract_z
   _atom_site_charge
N	0.2441250313051291 0.1209579867619450 0.1283397760076794	-0.241711
N	0.2567562323890639 0.3788661476250764 0.1279905436300668	-0.243137
N	0.3789568693760325 0.2431335927170889 0.1277631810199726	-0.241978
N	0.1210394727935368 0.2557402094686214 0.1281840632518753	-0.241252
N	0.7568660570316464 0.6210434596166517 0.3722368493986037	-0.241958
N	0.7442592829099841 0.8789612255309305 0.3718149757777038	-0.241242
N	0.6211338779730279 0.7432446200499222 0.3720074013865426	-0.243087
N	0.8790422274778360 0.7558756971567958 0.3716594968440451	-0.241726
N	0.7567559128910180 0.8788658203644166 0.8720081037715851	-0.243012
N	0.7441244771984866 0.6209579441420889 0.8716592998545998	-0.241736
N	0.6210395114607308 0.7557411910165206 0.8718144950171095	-0.241118
N	0.8789570254839981 0.7431343220825333 0.8722370518255119	-0.241999
N	0.2442582200313276 0.3789609631030856 0.6281835983208240	-0.241181
N	0.2568655145269478 0.1210440373677238 0.6277639668088516	-0.242055
N	0.3790416262225842 0.2558762964406952 0.6283386786341242	-0.241781
N	0.1211335861541926 0.2432446658839385 0.6279919600964584	-0.243076
C	0.2035819361237240 0.0855937920508674 0.1823302779601518	0.107815
C	0.1952258205530446 0.0097989820925784 0.1817935328014388	-0.180462
C	0.2324404991586063 0.9681160214839305 0.1250445428504391	0.113330
C	0.2757817737449283 0.0056531220416255 0.0699595657897545	-0.180537
C	0.2790940726798679 0.0818070527299208 0.0728567080363347	0.102581
C	0.2267702556583876 0.8873645042735572 0.1238782575135579	0.061391
C	0.2896097122872937 0.8446276193388723 0.1209816661462290	-0.174974
C	0.2853884631286756 0.7671494271835883 0.1220973130659312	0.084573
C	0.1507167212459955 0.7776336456737839 0.1245255906269685	-0.124675
C	0.1567399367091514 0.8529058719029331 0.1267407472411706	-0.136753
C	0.2969816861159648 0.4141634516137368 0.1824597493355183	0.098972
C	0.3049666142468715 0.4900446180805117 0.1821973596773531	-0.181858
C	0.2676431011878417 0.5317650064077293 0.1254810352587337	0.109287
C	0.2247696868596678 0.4942084279506342 0.0700587223538497	-0.177834
C	0.2218989994044632 0.4179846106475439 0.0722908389834049	0.100773
C	0.2731777029226101 0.6125431090137701 0.1243278899037547	0.061434
C	0.2103236984697512 0.6552610812369878 0.1212690391110464	-0.174938
C	0.2145009533791867 0.7327736747761402 0.1221611051413200	0.085434
C	0.3491504491010638 0.7222869002841641 0.1245902096551534	-0.125732
C	0.3432010746325311 0.6470129478158767 0.1270596966529731	-0.136944
C	0.4143180540586652 0.2026821966195690 0.1819042784903570	0.101249
C	0.4901769351945794 0.1948175726374080 0.1819406996973904	-0.182787
C	0.5318806767586579 0.2323972589732911 0.1254443015632579	0.110886
C	0.4943141381416605 0.2753979217057341 0.0701304243138958	-0.175320
C	0.4181183776183661 0.2782352337955699 0.0724228000814974	0.107467
C	0.6126450388526815 0.2268353308295030 0.1243412602717240	0.062231
C	0.6552959567177825 0.2896852598001394 0.1213182137390681	-0.174702
C	0.7327988077719910 0.2854284325089114 0.1221794913020725	0.085455
C	0.7224194900257048 0.1507657773279733 0.1245603620971029	-0.124571
C	0.6471409541901775 0.1567848737685855 0.1270326477636092	-0.136740
C	0.0856519978484866 0.2960717955143706 0.1824846927380925	0.102238
C	0.0098235902581619 0.3044691685861001 0.1818013608430226	-0.180977
C	0.9681990344592554 0.2674250954649090 0.1249271664157141	0.110712
C	0.0057998463992353 0.2242230065650659 0.0697054383189345	-0.182396
C	0.0820055199878964 0.2209275674550581 0.0724230120549351	0.098139
C	0.8874257148493336 0.2731177477962066 0.1237916455717489	0.062137
C	0.8447138335479739 0.2103114144455669 0.1209008927497705	-0.175445
C	0.7672225090363323 0.2145236522518017 0.1220763365254395	0.084484
C	0.7776272414490975 0.3491783891053011 0.1245562371384166	-0.125428
C	0.8529043511812893 0.3431687441303616 0.1267246541256576	-0.137670
C	0.7973178719964311 0.5856815931096990 0.3180962676791705	0.101234
C	0.8051826525043659 0.5098227138840485 0.3180601531580156	-0.182740
C	0.7676030636091121 0.4681192696435616 0.3745566868698287	0.110792
C	0.7246024041678812 0.5056861583858282 0.4298702035155220	-0.175252
C	0.7217647994658560 0.5818820025234274 0.4275774623772117	0.107465
C	0.7731650870876670 0.3873547005174046 0.3756600551933894	0.062257
C	0.7103152026728087 0.3447034929000748 0.3786833678233558	-0.174703
C	0.7145723222262589 0.2672007707619953 0.3778221511655139	0.085433
C	0.8492347866711156 0.2775801025397481 0.3754406783627690	-0.124483
C	0.8432153230559936 0.3528584284596161 0.3729684904854626	-0.136820
C	0.7039278369326334 0.9143487435483977 0.3175155161083579	0.102282
C	0.6955304719267548 0.9901764007684213 0.3181995835395478	-0.180961
C	0.7325754633879712 0.0318005575278074 0.3750733840764723	0.110699
C	0.7757770180278181 0.9941996562545823 0.4302948338249318	-0.182386
C	0.7790716197291243 0.9179935720052244 0.4275766495545925	0.098090
C	0.7268827067930065 0.1125742916535357 0.3762094486955806	0.062137
C	0.7896890214218898 0.1552860959729934 0.3790997517163364	-0.175417
C	0.7854768221408545 0.2327773382834473 0.3779246894787204	0.084465
C	0.6508220015542463 0.2223723500462426 0.3754453520811205	-0.125491
C	0.6568314485240014 0.1470957065042983 0.3732767999941303	-0.137601
C	0.5858362480132142 0.7030183152153714 0.3175390465524250	0.099006
C	0.5099550510081726 0.6950334486886044 0.3178029854736140	-0.181805
C	0.4682349178053048 0.7323571495122944 0.3745196313839075	0.109196
C	0.5057923211668932 0.7752300834290371 0.4299418747278555	-0.177870
C	0.5820147090680574 0.7781007650723950 0.4277088806086631	0.100687
C	0.3874569758688668 0.7268223340904751 0.3756730827511806	0.061475
C	0.3447395715597034 0.7896766121984502 0.3787316638275073	-0.174919
C	0.2672262722796542 0.7854988816068511 0.3778388207647440	0.085384
C	0.2777132617652834 0.6508493089788094 0.3754104634150038	-0.125691
C	0.3529871238673857 0.6567976392585890 0.3729399935194538	-0.136975
C	0.9144066890033992 0.7964185656049526 0.3176693864088677	0.107886
C	0.9902015604815305 0.8047742851105837 0.3182064734380003	-0.180507
C	0.0318840165450342 0.7675595024043529 0.3749557142727139	0.113329
C	0.9943461225878109 0.7242187469648629 0.4300406343943193	-0.180472
C	0.9181917979092303 0.7209068799892845 0.4271435298235505	0.102472
C	0.1126355964276911 0.7732296861122639 0.3761222364757498	0.061353
C	0.1553724629759634 0.7103903670095127 0.3790185730043918	-0.174898
C	0.2328508463357121 0.7146119793641030 0.3779027898894501	0.084498
C	0.2223664201960766 0.8492836290358095 0.3754755299409986	-0.124655
C	0.1470940696677507 0.8432600935980419 0.3732602514320533	-0.136675
C	0.7969821477903878 0.9141633630763240 0.8175397862893649	0.098890
C	0.8049672555484548 0.9900446130600922 0.8178031770988567	-0.181821
C	0.7676436166119670 0.0317649846337530 0.8745198163373891	0.109231
C	0.7247703775268615 0.9942078573613505 0.9299418514652621	-0.177882
C	0.7218996620520692 0.9179854328196442 0.9277091337760388	0.100698
C	0.7731784133851851 0.1125434824482238 0.8756731478939805	0.061496
C	0.7103240054017210 0.1552609780546189 0.8787320373593152	-0.174915
C	0.7145011778375057 0.2327738158414838 0.8778396995468795	0.085357
C	0.8491510214441508 0.2222876961819118 0.8754105792799567	-0.125704
C	0.8432021418503819 0.1470134476719210 0.8729403010376332	-0.137000
C	0.7035810430154468 0.5855934557609347 0.8176693795299586	0.107895
C	0.6952253305055869 0.5097987955947834 0.8182067000092018	-0.180514
C	0.7324402061675346 0.4681164812109935 0.8749557791570058	0.113373
C	0.7757814756993271 0.5056541496892037 0.9300403953053621	-0.180477
C	0.7790938055109400 0.5818083219145945 0.9271429123783587	0.102473
C	0.7267701840883265 0.3873647958558244 0.8761225184257840	0.061380
C	0.7896097968666874 0.3446276850758196 0.8790189300305725	-0.174851
C	0.7853887071170982 0.2671495341517841 0.8779032951925378	0.084535
C	0.6507170088815826 0.2776334269914060 0.8754756669074741	-0.124621
C	0.6567399647786549 0.3529057889385785 0.8732603266593714	-0.136789
C	0.5856520950386896 0.7960728753069891 0.8175147009467097	0.102169
C	0.5098236202553720 0.8044704035406696 0.8181981907928262	-0.180888
C	0.4681997137243113 0.7674256900800078 0.8750720840091368	0.110688
C	0.5058007912759080 0.7242237119696974 0.9302945524039866	-0.182448
C	0.5820065070626040 0.7209291969902458 0.9275769332521615	0.098088
C	0.3874259570887069 0.7731178193495276 0.8762083231388689	0.062119
C	0.3447140872866725 0.7103117549639065 0.8790987227506663	-0.175407
C	0.2672233320224614 0.7145236337376806 0.8779239602344517	0.084571
C	0.2776278146545243 0.8491787911487262 0.8754452092710078	-0.125524
C	0.3529051972782640 0.8431688512426555 0.8732760315355869	-0.137569
C	0.9143185604503800 0.7026826147753300 0.8180962189215439	0.101264
C	0.9901774954223188 0.6948177330078945 0.8180601938058706	-0.182760
C	0.0318809634803542 0.7323974980828253 0.8745566334534745	0.110842
C	0.9943144468992872 0.7753980222680561 0.9298704747879654	-0.175231
C	0.9181185036616553 0.7782353071505609 0.9275780614276906	0.107466
C	0.1126455280621754 0.7268353495653707 0.8756598732701475	0.062194
C	0.1552962229228536 0.7896853937554238 0.8786828508115377	-0.174623
C	0.2327992905962023 0.7854288514502750 0.8778214758371163	0.085411
C	0.2224199956325714 0.6507655332288153 0.8754401115181574	-0.124633
C	0.1471415465845756 0.6567850083024875 0.8729679467760139	-0.136738
C	0.2039271755103435 0.4143479036222900 0.6824845660690249	0.102147
C	0.1955301540864818 0.4901765295540583 0.6818016339387697	-0.180872
C	0.2325749679299557 0.5318007477723136 0.6249280880331500	0.110646
C	0.2757767664215001 0.4941997072037645 0.5697050740989305	-0.182348
C	0.2790707657851811 0.4179938745789075 0.5724216262799892	0.098070
C	0.2268823772438700 0.6125746173955238 0.6237920438566769	0.062071
C	0.2896886615759343 0.6552865381284981 0.6209011977229490	-0.175389
C	0.2854769538008629 0.7327771870841125 0.6220761951129075	0.084469
C	0.1508218107260512 0.7223725430992815 0.6245557579417298	-0.125410
C	0.1568314337637471 0.6470955692177192 0.6267248784520673	-0.137643
C	0.2973173604584505 0.0856825909258154 0.6819045443684560	0.101345
C	0.3051824325925470 0.0098235851503424 0.6819405335699791	-0.182780
C	0.2676026379978416 0.9681194630400860 0.6254444433908936	0.110822
C	0.2246018679888602 0.0056861672411772 0.5701308618221461	-0.175288
C	0.2217642267958332 0.0818820375984240 0.5724235885217344	0.107499
C	0.2731650915618851 0.8873550486765015 0.6243409826014733	0.062297
C	0.2103151629310317 0.8447040459032318 0.6213175863670602	-0.174703
C	0.2145718042034923 0.7672012664506069 0.6221788682085955	0.085433
C	0.3492349524795504 0.7775805673680461 0.6245599001426531	-0.124520
C	0.3432154200921583 0.8528589240515085 0.6270323465132756	-0.136788
C	0.4144054709299240 0.2964192413303119 0.6823295248184523	0.107907
C	0.4902005193837356 0.3047747490000572 0.6817933716152637	-0.180550
C	0.5318836912910064 0.2675594178504993 0.6250443461755909	0.113355
C	0.4943459978529784 0.2242179154774543 0.5699591817802035	-0.180559
C	0.4181918160092851 0.2209063759566115 0.5728557589537417	0.102614
C	0.6126353314674481 0.2732295660251992 0.6238782503544237	0.061423
C	0.6553719670353385 0.2103902373820056 0.6209823534728789	-0.174959
C	0.7328505655004125 0.2146116749729120 0.6220982766824781	0.084552
C	0.7223660746306696 0.3492833101895308 0.6245254977124023	-0.124667
C	0.6470938595143729 0.3432599024132500 0.6267405737528599	-0.136770
C	0.0858359557676160 0.2030191118999598 0.6824601251819357	0.098941
C	0.0099552225834409 0.1950339211644866 0.6821977992720417	-0.181786
C	0.9682346757607216 0.2323575190008390 0.6254816484654866	0.109194
C	0.0057913720189102 0.2752305098902548 0.5700594564647140	-0.177851
C	0.0820154744735180 0.2781017040857653 0.5722915164998347	0.100780
C	0.8874564238845292 0.2268223251004771 0.6243284682335754	0.061454
C	0.8447387357637685 0.2896767809796080 0.6212697568050236	-0.174875
C	0.7672258690969381 0.2854987694094402 0.6221619272879370	0.085414
C	0.7777130183779837 0.1508491356898002 0.6245907465294624	-0.125690
C	0.8529870165915505 0.1567975945836969 0.6270611672297917	-0.137008
H	0.1785519884448415 0.1196370180026190 0.2277667444910664	0.096167
H	0.1619086639365331 0.9831121718919071 0.2266844733145896	0.115250
H	0.3049142281882226 0.9757271529886213 0.0240667387419937	0.114728
H	0.3098198302298363 0.1134278330732444 0.0294572571602814	0.094317
H	0.3435748439128208 0.8706689243041995 0.1203723112293984	0.108191
H	0.0967356202174518 0.7515494439063776 0.1250404097479831	0.112648
H	0.1076314467797000 0.8871651246238825 0.1287829318767416	0.103011
H	0.3225691513892989 0.3800947689574202 0.2277021310797476	0.099215
H	0.3383360901255753 0.5167168444243142 0.2270468651916523	0.115245
H	0.1956591318535725 0.5239859761875593 0.0240396050537783	0.116718
H	0.1924296836073510 0.3868335853783475 0.0273983744084448	0.100519
H	0.1563235307464578 0.6292927352457490 0.1205925084643087	0.109296
H	0.4030738373578480 0.7484631361439348 0.1249994050480802	0.108868
H	0.3923486056386628 0.6127890137857325 0.1291959353149286	0.103679
H	0.3799511194796890 0.1766076863091011 0.2264181147927954	0.094393
H	0.5169199995833021 0.1613858365917438 0.2267137959271465	0.114403
H	0.5241249196625398 0.3044957657465395 0.0241564561182547	0.116696
H	0.3867340019725514 0.3078760231808854 0.0279736346247103	0.097365
H	0.6292488379538281 0.3436775116614157 0.1207147762025841	0.109699
H	0.7485094776147383 0.0967742714870345 0.1249258561457005	0.110332
H	0.6129700357408759 0.1076562134818223 0.1290766274589440	0.104785
H	0.1193324256876997 0.3207657062706182 0.2285445208108728	0.100302
H	0.9831992120537747 0.3377962512578785 0.2267633259285868	0.116742
H	0.9759190858884743 0.1951109444264443 0.0237776025047089	0.115727
H	0.1135018088187331 0.1904470991901402 0.0285582869763915	0.098088
H	0.8707719338611094 0.1563231019407984 0.1201974909254521	0.107704
H	0.7513724346757581 0.4031053010250326 0.1251493145460317	0.110367
H	0.8871505262123928 0.3922598711665345 0.1288224718172739	0.102117
H	0.8233919225008031 0.6200483117858828 0.2735819527758095	0.094411
H	0.8386149948964621 0.4830793018126395 0.2732872201892408	0.114403
H	0.6955041508044310 0.4758754789971781 0.4758442271246292	0.116679
H	0.6921233342455275 0.6132662288316681 0.4720264021216355	0.097339
H	0.6563231450788872 0.3707508760251290 0.3792867740904605	0.109713
H	0.9032262188368457 0.2514904057976589 0.3750746419724276	0.110332
H	0.8923434717951151 0.3870293642897882 0.3709243302638611	0.104793
H	0.6792338087737416 0.8806677718366334 0.2714545172870076	0.100265
H	0.6622034856083108 0.0168009256000994 0.2732369678532919	0.116755
H	0.8048901368736140 0.0240802341654242 0.4762227490613857	0.115740
H	0.8095512263672389 0.8864967406981386 0.4714421435265579	0.098089
H	0.8436770384994167 0.1292278083146233 0.3798027626179289	0.107665
H	0.5968952500805318 0.2486272673284573 0.3748521835425103	0.110386
H	0.6077402826744938 0.1128495412203100 0.3711786057493364	0.102113
H	0.6199045552696133 0.6774309616969105 0.2722965233613474	0.099192
H	0.4832819818303081 0.6616641779530673 0.2729538773599361	0.115235
H	0.4760149334134597 0.8043406264826908 0.4759613323013011	0.116769
H	0.6131671081805112 0.8075703904363811 0.4726011207537723	0.100544
H	0.3707078725341582 0.8436767162393916 0.3794077852614479	0.109316
H	0.2515367051845844 0.5969262981455841 0.3750019507560122	0.108889
H	0.3872118432463675 0.6076515039177472 0.3708055076907174	0.103686
H	0.8803637083247249 0.8214487655008906 0.2722329125001833	0.096149
H	0.0168884889943583 0.8380921768440748 0.2733153898819480	0.115269
H	0.0242713601182192 0.6950855850793769 0.4759339507655125	0.114701
H	0.8865703978108702 0.6901821549181104 0.4705434148189483	0.094375
H	0.1293316053470959 0.6564248992389653 0.3796285475582877	0.108175
H	0.2484503633868888 0.9032646895507593 0.3749605015759933	0.112638
H	0.1128343929769204 0.8923692241623743 0.3712188808272960	0.102975
H	0.8225697079550414 0.8800943500264820 0.7722977869771952	0.099234
H	0.8383365715319282 0.0167173852049003 0.7729540941745701	0.115231
H	0.6956597410123259 0.0239855862601707 0.9759609687209440	0.116763
H	0.6924296805246961 0.8868331113916994 0.9726011050570935	0.100539
H	0.6563237437599245 0.1292925914969404 0.8794083966451647	0.109299
H	0.9030746925448611 0.2484633248077491 0.8750017462213293	0.108862
H	0.8923490216445220 0.1127888029157888 0.8708050690201490	0.103698
H	0.6785505754652726 0.6196361369108905 0.7722328580220543	0.096131
H	0.6619074554811981 0.4831118748437802 0.7733155213623579	0.115261
H	0.8049145180885480 0.4757287362606907 0.9759335398861682	0.114702
H	0.8098197416899278 0.6134295995453862 0.9705419548069452	0.094342
H	0.8435750556239600 0.3706693179352039 0.8796285016253210	0.108157
H	0.5967359405481122 0.2515491562867571 0.8749608635252359	0.112645
H	0.6076310171659006 0.3871647214600229 0.8712180364653886	0.103011
H	0.6193327281308643 0.8207667777798228 0.7714549724711653	0.100280
H	0.4831999122184188 0.8377968820263484 0.7732355930218862	0.116737
H	0.4759192250339515 0.6951118667257707 0.9762225651283093	0.115746
H	0.6135024344221622 0.6904491349564451 0.9714424531595892	0.098097
H	0.3707722286346778 0.6563235100091139 0.8798020151533205	0.107638
H	0.2513725259749484 0.9031057292468313 0.8748522955072939	0.110393
H	0.3871509345068816 0.8922604069752830 0.8711782509732032	0.102099
H	0.8799517524045505 0.6766090637614102 0.7735811809787150	0.094406
H	0.0169206734340031 0.6613851802447369 0.7732871024158149	0.114395
H	0.0241255462206236 0.8044963155988631 0.9758443631589701	0.116649
H	0.8867343081642354 0.8078763720873799 0.9720274487061846	0.097342
H	0.1292492992654692 0.8436774997323404 0.8792867341163196	0.109677
H	0.2485103558895906 0.5967743084777696 0.8750746796025571	0.110341
H	0.1129708797864734 0.6076568913226998 0.8709241351451412	0.104797
H	0.1792338674914098 0.3806671612794161 0.7285446210297315	0.100315
H	0.1622037405879620 0.5168002898342041 0.7267648794669200	0.116753
H	0.3048892684350519 0.5240814886414850 0.5237778150414771	0.115718
H	0.3095518276203253 0.3864985752393022 0.5285561742503301	0.098097
H	0.3436766593831850 0.6292279978615032 0.6201971417328539	0.107672
H	0.0968946479205404 0.7486273948424915 0.6251486450443128	0.110369
H	0.1077401407597273 0.6128494394386037 0.6288224799331230	0.102118
H	0.3233920358009173 0.1200494172276644 0.7264184811070259	0.094386
H	0.3386151177069110 0.9830805084811908 0.7267133156786698	0.114385
H	0.1955035990615162 0.9758750056485829 0.5241570871891398	0.116676
H	0.1921225772652348 0.1132664867610687 0.5279749881733116	0.097329
H	0.1563229429485027 0.8707509874138152 0.6207141398034075	0.109701
H	0.4032261574993771 0.7514905099395219 0.6249257856993335	0.110328
H	0.3923436593815149 0.8870295652815605 0.6290766851873011	0.104788
H	0.3803625173173864 0.3214492077227059 0.7277661853939210	0.096115
H	0.5168872504139700 0.3380917290323931 0.7266845712706775	0.115279
H	0.5242718811363316 0.1950848187257478 0.5240667380147827	0.114739
H	0.3865708775209445 0.1901802978414807 0.5294564019055291	0.094346
H	0.6293309938481879 0.1564247821533120 0.6203724793744902	0.108177
H	0.7484501201688518 0.4032646540140123 0.6250399782517029	0.112655
H	0.6128341741306358 0.3923691032206317 0.6287821566501951	0.102999
H	0.1199048645286625 0.1774311262290673 0.7277026617602619	0.099191
H	0.9832827015089336 0.1616643486307197 0.7270475944505653	0.115242
H	0.9760137497474536 0.3043407380246820 0.5240404749106318	0.116756
H	0.1131663121486662 0.3075702808800136 0.5273978573255798	0.100494
H	0.8707074468334681 0.3436767929230511 0.6205930146902868	0.109302
H	0.7515363698296078 0.0969259142281885 0.6249991606873221	0.108850
H	0.8872116152393406 0.1076514251318200 0.6291959729794503	0.103688
F	0.2540276341259266 0.1398698621639150 0.3786843074769222	-0.649538
F	0.1485995290637762 0.3027022586495792 0.3792543892748447	-0.645656
F	0.3408250781799094 0.3157399991988151 0.3776281066019004	-0.648354
F	0.6842614605399671 0.6591767837396523 0.1223811085841136	-0.648336
F	0.6973071270116178 0.8514007208202675 0.1207723610876099	-0.645613
F	0.8601301926506361 0.7459920351036081 0.1212813544850351	-0.649511
F	0.6485829479136800 0.8026912890999505 0.6207668797806093	-0.645632
F	0.7539924179664016 0.6398568878634445 0.6212934656797331	-0.649506
F	0.8408235973417215 0.8157128630572231 0.6223741379216789	-0.648241
F	0.1842772170929111 0.1591682564101579 0.8776093113637826	-0.648295
F	0.3601333735033231 0.2460020139503575 0.8787026031575017	-0.649498
F	0.1973082604936599 0.3514002187843275 0.8792278905056675	-0.645607
F	0.2488455730254164 0.2499985000495717 0.2563573013325404	-0.579531
F	0.2501034903134296 0.2500350207761672 0.5003752744937133	-0.579042
F	0.7500162520687689 0.7511384455897260 0.2436310729973062	-0.579470
F	0.7499544267497735 0.7498899461661157 -0.0003829414612454	-0.579065
F	0.7488544656090831 0.7499855789880553 0.7436363180610658	-0.579444
F	0.7501071595751713 0.7500431010714608 0.4996225574244879	-0.578995
F	0.2500156386841265 0.2511471893221585 0.7563650708242761	-0.579490
F	0.2499578495070010 0.2498850990930703 0.0003721868183670	-0.579048
Cd	0.2499748058461786 0.2501634226222938 0.1284372953834113	0.825972
Cd	0.7498380196020371 0.7500282189741281 0.3715556719233831	0.825839
Cd	0.7499728493334292 0.7501615999638953 0.8715537025910386	0.825887
Cd	0.2498378069075642 0.2500297584115777 0.6284353669023187	0.825919
In	0.2487542121749271 0.2519773841753952 0.3784705661465941	1.587855
In	0.7480257630029928 0.7512465523257259 0.1215229888518270	1.587748
In	0.7487374759741666 0.7519689941654639 0.6215252990480702	1.587588
In	0.2480276061270760 0.2512480525465722 0.8784709789189147	1.587622
	  	
