#======================================================================

# CRYSTAL DATA

#----------------------------------------------------------------------

data_VESTA_phase_1


_pd_phase_name                         InFFIVE_14_Cd_i
_cell_length_a                         13.73349
_cell_length_b                         13.72346
_cell_length_c                         8.62329
_cell_angle_alpha                      89.96986
_cell_angle_beta                       89.83820
_cell_angle_gamma                      89.70183
_symmetry_space_group_name_H-M         P 1
_symmetry_Int_Tables_number            1

loop_
_symmetry_equiv_pos_as_xyz
   x, y, z

loop_
   _atom_site_label
   _atom_site_fract_x
   _atom_site_fract_y
   _atom_site_fract_z
   _atom_site_charge
C	0.5782434568469815 0.2591689560854834 0.3591119108183028	-0.179964
C	0.4771585098271277 0.2624208835896314 0.3609584713235374	0.107330
C	0.9349836931021179 0.2836665914490851 0.4125994808500665	-0.170661
C	0.0357462282735072 0.2762483046660510 0.3994408580447898	0.116378
C	0.2574038671131743 0.5783214420237961 0.3614372732521278	-0.178789
C	0.2604712931847701 0.4771424723571379 0.3638663895625449	0.105804
C	0.2922966190178722 0.9351262487773252 0.4090499998761354	-0.169519
C	0.2846441250313363 0.0359781141992506 0.3964339835353848	0.114002
C	0.9237690788385690 0.2394454836432549 0.1415034482210485	-0.182889
C	0.0248231907154779 0.2354413190092490 0.1382954723076558	0.109080
C	0.5685987808022879 0.2125800402484134 0.0889930531107321	-0.164750
C	0.4676641081859031 0.2196281614608393 0.0999458078091347	0.102110
C	0.2144772717449924 0.5679759047899703 0.0899405044000749	-0.164833
C	0.2213637937524841 0.4670422471674956 0.1015020499723131	0.101675
C	0.2365193584286294 0.9234225330581761 0.1436184300239763	-0.182103
C	0.2324416022626569 0.0245513343240484 0.1406736487691358	0.110147
C	0.4238283230172069 0.7398783838461308 0.6431695365936433	-0.183769
C	0.5248275455314417 0.7364262004119503 0.6393835151835541	0.105803
C	0.0682771186290715 0.7302512397647547 0.5830441740995607	-0.163943
C	0.9673163020760930 0.7341371817896492 0.5956067556670441	0.103752
C	0.7403721379521210 0.4237095407619898 0.6425031636483693	-0.182921
C	0.7369293785652358 0.5248014654367497 0.6390235396659772	0.106904
C	0.7198442365116985 0.0681864576041845 0.5856799367783324	-0.163959
C	0.7258594267356756 0.9671726352708716 0.5967943588747670	0.102880
C	0.0777090196791471 0.7554589294196168 0.8603213389775971	-0.179118
C	0.9765958037389743 0.7567995743565901 0.8630125836682616	0.107576
C	0.4353597614048884 0.7754223392821080 0.9174769943685397	-0.167037
C	0.5361543288265257 0.7688523177773856 0.9034551372820214	0.116900
C	0.7752882816963066 0.4352584454451890 0.9169516035090810	-0.169084
C	0.7684967077479179 0.5360870292702414 0.9033041874706723	0.116499
C	0.7587544520550138 0.0776202794391034 0.8587877961205653	-0.179448
C	0.7614340205027650 0.9764752464558936 0.8604807552490100	0.108080
C	0.6248831865080335 0.2346165581175639 0.2191799296819887	0.190976
C	0.8779604822627856 0.2633152476663896 0.2824268601331615	0.192277
C	0.2348238280120691 0.6245913474413221 0.2206598535789177	0.189837
C	0.2661773332409882 0.8778132365005472 0.2816526075099097	0.191906
C	0.3781806668403579 0.7598928593176009 0.7858970085463539	0.194077
C	0.1244547315521728 0.7421617769927915 0.7165796432694931	0.191074
C	0.7599000902621110 0.3780716718015973 0.7851114186870031	0.192864
C	0.7379284246746625 0.1243832022486531 0.7175779136792555	0.191375
H	0.6199661539388007 0.2724779191249796 0.4641355279033318	0.106436
H	0.4363788913407695 0.2784852257689421 0.4667455525006280	0.100776
H	0.9006750968729950 0.3038515848930048 0.5219726425874422	0.126968
H	0.0834028595343109 0.2892583412310621 0.4982391081948184	0.092782
H	0.2693316999219583 0.6206002045586518 0.4664862514401650	0.107551
H	0.2750016692669147 0.4367122961365951 0.4704193333198936	0.101699
H	0.3172342646108273 0.9009362017228054 0.5158412465709885	0.126697
H	0.3027930894368756 0.0840109227756856 0.4929276810575955	0.092197
H	0.8812327810699815 0.2269462787658457 0.0370279844211876	0.107213
H	0.0650536530276486 0.2185680642565707 0.0322197411860135	0.099618
H	0.6031989613007187 0.1911900019799665 0.9804780082986982	0.126665
H	0.4219081255642467 0.2050954722609296 -0.0011561078679528	0.103438
H	0.1947920561518445 0.6021759703654257 0.9804717592259730	0.126735
H	0.2083673304300502 0.4210174127342053 0.0000781818654803	0.102061
H	0.2198278677209719 0.8805706614975546 0.0409054140875127	0.108134
H	0.2112688591138101 0.0646341124588669 0.0365573026448438	0.099646
H	0.3813790579662822 0.7293637112259630 0.5380202170392260	0.103950
H	0.5649891700839039 0.7223971377484619 0.5323261025058715	0.100879
H	0.1029445013775035 0.7184356102198531 0.4709793443585875	0.126529
H	0.9217930431643863 0.7254535616501855 0.4925897523691135	0.099778
H	0.7305309099132267 0.3810744325833620 0.5372207548277813	0.104384
H	0.7233533114639664 0.5649824601969067 0.5320054782027375	0.100442
H	0.7018697490805137 0.1029316618626522 0.4759153236998183	0.126607
H	0.7136305047270147 0.9216076585282509 0.4945856111875302	0.101606
H	0.1192791868793232 0.7621957724102097 0.9671967091792671	0.103637
H	0.9360495860178198 0.7646486494162580 0.9712807384479715	0.101680
H	0.4011407579155210 0.7916664515397481 0.0285224753642669	0.125839
H	0.5838880808165501 0.7780765318422345 0.0032167626854187	0.090862
H	0.7913421830038796 0.4009754789317055 0.0278657773839891	0.126726
H	0.7771629967722908 0.5838448553377352 0.0033496696283529	0.091109
H	0.7698601346102864 0.1192619163148111 0.9647266178282718	0.105050
H	0.7746917087169590 0.9357119585767295 0.9670099072882326	0.101661
N	0.7757895877082699 0.2715326211430790 0.3019847405474591	-0.107811
N	0.2749352516429879 0.7754966780179884 0.3002678432378229	-0.109734
N	0.7270601274607164 0.2268989285290053 0.2004621114914827	-0.099555
N	0.2271199475672440 0.7267809603738568 0.2024269542976565	-0.097332
N	0.2265749058641600 0.7356691267159982 0.6956838911156936	-0.098415
N	0.7302460139116055 0.2265993119742153 0.6981203994459446	-0.099233
N	0.2760139278913058 0.7679242900576980 0.8076348254299264	-0.107084
N	0.7682135449435105 0.2758875516636941 0.8056439378749073	-0.106148
N	0.4231095334685157 0.2443405055957134 0.2337133919434860	-0.233725
N	0.0796421109215646 0.2528269568583258 0.2648364178717679	-0.230989
N	0.2441014519243504 0.4227793245023381 0.2362024771588648	-0.232490
N	0.2552814732005128 0.0796122016370449 0.2648172165724851	-0.230080
N	0.5797880346866613 0.7505021996565616 0.7668151250328223	-0.228495
N	0.9226468999991970 0.7470460769551355 0.7332726213619463	-0.233051
N	0.7505040490136452 0.5797843469601324 0.7667311540985272	-0.229987
N	0.7461993648934647 0.9225051327120702 0.7320021999479466	-0.233962
F	0.3876133220971970 0.1978639294690668 0.7651485545670884	-0.610337
F	0.2067262796214678 0.3900810641398576 0.7636346264115085	-0.610407
F	0.1421678117057000 0.1494258586728959 0.7082114212005770	-0.626317
F	0.7012622948371432 0.8896687889426868 0.2641938245887906	-0.606461
F	0.8894668445835746 0.7066859730625279 0.2626842678086835	-0.605645
F	0.6466415396998865 0.6462642468884700 0.2024072256647182	-0.620739
F	0.2719112783460992 0.2702341182288536 0.5076635559083229	-0.576537
F	0.2311544916441556 0.2320907275786200 -0.0086832063148483	-0.577676
F	0.7307916786355184 0.7313875861074189 0.4896608213541334	-0.576650
F	0.7704583763365780 0.7715167128737010 0.0064127791867517	-0.575518
In	0.2482794825868304 0.2478593066711361 0.7485171282320295	1.555453
In	0.7478365989409945 0.7492883931039259 0.2471524708438763	1.551757
Cd	0.2517359653468507 0.2517386907898477 0.2491872769610078	0.815863
Cd	0.7515694045569895 0.7514565189338639 0.7480116096055341	0.815425
	  	
