#======================================================================

# CRYSTAL DATA

#----------------------------------------------------------------------

data_VESTA_phase_1


_pd_phase_name                         InFFIVE_1_Cd
_cell_length_a                         11.78978
_cell_length_b                         11.78993
_cell_length_c                         8.65946
_cell_angle_alpha                      91.89700
_cell_angle_beta                       88.07993
_cell_angle_gamma                      89.63267
_symmetry_space_group_name_H-M         P 1
_symmetry_Int_Tables_number            1

loop_
_symmetry_equiv_pos_as_xyz
   x, y, z

loop_
   _atom_site_label
   _atom_site_fract_x
   _atom_site_fract_y
   _atom_site_fract_z
   _atom_site_charge
C	0.2458440495420260 0.4649725795139082 0.3665421728920235	0.102683
C	0.1278821678184648 0.4641369755325642 0.3642669005739514	-0.169712
C	0.7607919927542959 0.5195029441783289 0.3725568412700275	0.098409
C	0.8787173749536796 0.5210886139301899 0.3665415896214219	-0.171399
C	0.5302917093250484 0.2411845713081575 0.3777306233944616	0.101368
C	0.5318507314456903 0.1232225985183801 0.3711943927334506	-0.170293
C	0.4768399834259504 0.7566241865353697 0.3676962164545299	0.100469
C	0.4758142383255412 0.8746036369117469 0.3654999635365865	-0.168750
C	0.7566125316344807 0.4768184622263794 0.6324617122634556	0.099764
C	0.8746027601844297 0.4758064496723045 0.6345581811612857	-0.168648
C	0.2411649808247102 0.5302968782803941 0.6221507519956399	0.101503
C	0.1232085174197183 0.5318579691601026 0.6287449057371858	-0.170338
C	0.4649799926240362 0.2458337065418002 0.6333888162337026	0.102604
C	0.4641289189974532 0.1278649937132498 0.6357206567174203	-0.169965
C	0.5194622054148187 0.7607768233208543 0.6275882985752287	0.098284
C	0.5210551654435329 0.8787030058740923 0.6335024779127982	-0.170882
C	0.0637739782885446 0.4982356268291239 0.4974190917049614	0.101421
C	0.9384526076008358 0.4984158973757180 0.4996708886983107	0.098793
C	0.4982359065061154 0.0637725017927078 0.5025350026688565	0.101594
C	0.4984065600347805 0.9384416327221752 0.5003877193981408	0.098536
H	0.2977447829561138 0.4385738231821539 0.2644567230279782	0.096651
H	0.0866755257546267 0.4349313141093150 0.2595803120941801	0.121487
H	0.7118629401707837 0.5342111971886883 0.2701938424086111	0.095766
H	0.9231807202050778 0.5413290844265286 0.2587999168276798	0.119373
H	0.5549550281858959 0.2905358405090630 0.2777769306807221	0.094621
H	0.5607291382975560 0.0782106676292120 0.2650348154139086	0.119515
H	0.4611078517787852 0.7060897389614884 0.2624098765060779	0.099947
H	0.4555925553283586 0.9153155961146728 0.2586287376566897	0.121313
H	0.7060899577908439 0.4610665126680180 0.7377671933257738	0.100132
H	0.9152982042134026 0.4555647206487542 0.7414458166776838	0.121294
H	0.2905094578971401 0.5549521539085417 0.7220968433797502	0.094560
H	0.0781721167546085 0.5607255784921610 0.7348875655596944	0.119656
H	0.4385910127352779 0.2977271253626723 0.7354782892028747	0.096699
H	0.4349255255903435 0.0866433010119612 0.7404172080450167	0.121677
H	0.5341236287510051 0.7118570314799499 0.7299754328295701	0.095831
H	0.5412985801025626 0.9231614941285040 0.7412341112762791	0.119174
Cd	0.5014329852475068 0.5014197155182112 0.4999802148123317	0.822296
In	0.5028708456881661 0.5027492359619317 -0.0000604489149934	1.560624
F	0.4906880882559948 0.5138364540101807 0.7584623472330509	-0.576221
F	0.5141726566353367 0.4910526924179848 0.2414182775264497	-0.576463
F	0.3811985753098772 0.3812457389307609 0.0001939175561668	-0.625668
F	0.6700331650156656 0.4590869766317165 -0.0233584347192476	-0.616534
F	0.4589952877848861 0.6698963716612546 0.0229751614164474	-0.616893
N	0.3014158233162771 0.4977761698822408 0.4934893469688152	-0.236864
N	0.7007959502451568 0.4980821270038414 0.5032195795024441	-0.240182
N	0.4977727509265775 0.3014097322722369 0.5064230738934468	-0.236708
N	0.4980604904980047 0.7007996129503993 0.4969163062691569	-0.240527
	  	
