#======================================================================

# CRYSTAL DATA

#----------------------------------------------------------------------

data_VESTA_phase_1


_pd_phase_name                         InFFIVE_2_Cu
_cell_length_a                         13.72536
_cell_length_b                         13.72547
_cell_length_c                         8.57830
_cell_angle_alpha                      90.25760
_cell_angle_beta                       89.74111
_cell_angle_gamma                      89.93073
_symmetry_space_group_name_H-M         P 1
_symmetry_Int_Tables_number            1

loop_
_symmetry_equiv_pos_as_xyz
   x, y, z

loop_
   _atom_site_label
   _atom_site_fract_x
   _atom_site_fract_y
   _atom_site_fract_z
   _atom_site_charge
C	0.5282558751131501 0.6990865110177481 0.1270471503873617	0.100629
C	0.5294309979080503 0.8001122622882845 0.1323879669287090	-0.163277
C	0.4692284671120832 0.3019041062037154 0.1280592366194621	0.100535
C	0.4690193995939035 0.2008411600841457 0.1323978001285374	-0.161700
C	0.3016302217482913 0.5298667122563387 0.1256934042960104	0.100210
C	0.2006136997335825 0.5304617888255063 0.1316205131030419	-0.163863
C	0.6988389868951452 0.4710264404086135 0.1278969484227157	0.097821
C	0.7998884556546493 0.4702618956466698 0.1320360198508300	-0.161833
C	0.4710249692937546 0.6988415303460344 0.8721088994878369	0.097873
C	0.4702606373942760 0.7998885474695485 0.8679629015331352	-0.161851
C	0.5298643022359363 0.3016303085848440 0.8743082644795501	0.100210
C	0.5304610676155247 0.2006136925831208 0.8683774034041286	-0.163840
C	0.6990867147823883 0.5282578423238661 0.8729478521423131	0.100589
C	0.8001126367979395 0.5294307198832641 0.8676095261410638	-0.163323
C	0.3019084212295703 0.4692295205437725 0.8719333673536485	0.100557
C	0.2008447144119764 0.4690206964929950 0.8676026633896093	-0.161585
C	0.4999196456975998 0.1478540207511870 0.0001844780606008	0.170693
C	0.5001386763129827 0.0447506572296173 -0.0000218904342722	-0.091255
C	0.4999976737448653 0.8528089892778278 0.0002973157461580	0.170675
C	0.5001712783258646 0.9559479735578207 0.0004225695633946	-0.089595
C	0.8528096450817861 0.4999978436922786 -0.0003011442417027	0.170706
C	0.9559515952804968 0.5001703094908477 -0.0004263124794203	-0.089930
C	0.1478569555189747 0.4999190494782823 -0.0001851918085831	0.170555
C	0.0447488050921358 0.5001373490607094 0.0000208953710452	-0.090825
H	0.5485345233131720 0.6555470507143580 0.2276287868236402	0.100786
H	0.5525975741810428 0.8375568408628774 0.2379576985596803	0.131203
H	0.4451514139424936 0.3453013245742480 0.2280533144981351	0.103307
H	0.4445685291160246 0.1633849307141110 0.2370085957819152	0.131116
H	0.3456778742228702 0.5531826619632525 0.2244379305109262	0.100381
H	0.1629460573582530 0.5546599725900901 0.2367698973372468	0.130699
H	0.6560512630126655 0.4501758274519461 0.2298725977557985	0.104842
H	0.8369834034565116 0.4468072565509765 0.2373011863142354	0.132657
H	0.4501735934287793 0.6560550338052502 0.7701321332362152	0.104813
H	0.4468054877810516 0.8369860739817433 0.7626983332197413	0.132662
H	0.5531823356566957 0.3456754027659299 0.7755604977142005	0.100408
H	0.5546599377445065 0.1629451911378473 0.7632267658171422	0.130672
H	0.6555487259652713 0.5485373985019258 0.7723667679584352	0.100808
H	0.8375579845505329 0.5525954223714621 0.7620371048616544	0.131221
H	0.3453049766575732 0.4451516949000864 0.7719385718167893	0.103227
H	0.1633903668918079 0.4445702919207269 0.7629925409029521	0.131057
Cu	0.5002852713786283 0.5002851538040487 0.0000037465026372	0.724111
In	0.4997183869722205 0.4997158210420391 0.5000002654989784	1.552964
F	0.5003737604136689 0.5011236342555451 0.7437939221947617	-0.595648
F	0.5011036196160605 0.5003425120017522 0.2562113367107532	-0.595640
F	0.4597219650211540 0.6432420978043202 0.4996496994294959	-0.627546
F	0.3946044258044362 0.3946224350334563 0.5000361508033810	-0.629248
F	0.6432351477596284 0.4597157442808685 0.5003430714385178	-0.627561
N	0.4996664670772742 0.3513179100563285 0.0014337095802673	-0.220729
N	0.4996938293503898 0.6494098285953760 -0.0006029386974470	-0.224059
N	0.6494088813268429 0.4996948556488723 0.0006038924852175	-0.224021
N	0.3513204214255002 0.4996677361735075 -0.0014361265004308	-0.220656
	  	
