#======================================================================

# CRYSTAL DATA

#----------------------------------------------------------------------

data_VESTA_phase_1


_pd_phase_name                         InFFIVE_5_Zn_i
_cell_length_a                         20.00866
_cell_length_b                         20.00865
_cell_length_c                         16.37136
_cell_angle_alpha                      89.99968
_cell_angle_beta                       89.99986
_cell_angle_gamma                      89.96539
_symmetry_space_group_name_H-M         P 1
_symmetry_Int_Tables_number            1

loop_
_symmetry_equiv_pos_as_xyz
   x, y, z

loop_
   _atom_site_label
   _atom_site_fract_x
   _atom_site_fract_y
   _atom_site_fract_z
   _atom_site_charge
F	0.2911131164128866 0.1562796282228152 0.3517646465934925	-0.619109
F	0.1505175622324517 0.2638044603546640 0.3509709543717106	-0.628390
F	0.3152031852933352 0.3292407432559074 0.3510847982059366	-0.624868
F	0.6707489299264523 0.6848042700897720 0.1489058038874677	-0.624903
F	0.7362033191517779 0.8494752595832757 0.1490066105221746	-0.628331
F	0.8437173226388471 0.7088752183492807 0.1482356175527327	-0.619076
F	0.6505073677689824 0.7638322744216329 0.6490166283912153	-0.628453
F	0.7910998952416246 0.6562764115527668 0.6482483716297409	-0.619068
F	0.8151930043980932 0.8292424513012017 0.6489083103384684	-0.624888
F	0.1707578540899960 0.1848011716425890 0.8510970136583611	-0.624906
F	0.3437177504266053 0.2088850290800013 0.8517651234075437	-0.619035
F	0.2361663832563796 0.3494799542463510 0.8509669485637326	-0.628368
F	0.2493616592739990 0.2496915099900693 0.4780957145499669	-0.557061
F	0.2495563721546273 0.2493139761453838 0.2240269243397287	-0.557964
F	0.7503199510609794 0.7506397040761474 0.0218994817749649	-0.557022
F	0.7506798137531850 0.7504490629864854 0.2759636899383017	-0.557995
F	0.7493687770276757 0.7496814421834250 0.5219075641386517	-0.557044
F	0.7495483725832940 0.7493270503058962 0.7759705075707563	-0.558013
F	0.2503195641223285 0.2506515724855919 0.9781091413270471	-0.557038
F	0.2506772505266265 0.2504447075455531 0.7240268584265799	-0.557978
N	0.3583067028739740 0.2476086508514807 0.6005729743904468	-0.230422
N	0.1418123698804966 0.2526585469921209 0.6016767683990231	-0.228829
N	0.2524909298984578 0.3582091550377558 0.6011462664286215	-0.229210
N	0.2472968270190976 0.1417275072435859 0.6020517457553874	-0.231755
N	0.6417901730484467 0.7475084000948304 0.8988548158317735	-0.229195
N	0.8582731437510687 0.7527027988248400 0.8979473750040068	-0.231723
N	0.7473418544491588 0.8581880828267041 0.8983229030794273	-0.228855
N	0.7523923725800384 0.6416934677852733 0.8994275397150809	-0.230435
N	0.6418121437287966 0.7526579658761693 0.3983234378607826	-0.228883
N	0.8583068779311833 0.7476094936313298 0.3994263298793747	-0.230423
N	0.7472975175637887 0.6417277420123413 0.3979467833968609	-0.231739
N	0.7524901180887882 0.8582096596255095 0.3988542363187403	-0.229195
N	0.3582736246379266 0.2527031550089385 0.1020525560877788	-0.231752
N	0.1417895166669517 0.2475086083320718 0.1011445325419087	-0.229115
N	0.2523921793911916 0.1416928857423934 0.1005716104694637	-0.230448
N	0.2473415293440356 0.3581887159677873 0.1016774194871422	-0.228873
C	0.3913251057070322 0.2189922592485093 0.6631229999790421	0.101073
C	0.4607199418583898 0.2174310515665359 0.6669768082128600	-0.179157
C	0.4984885658980581 0.2470171026328696 0.6044760278364085	0.104747
C	0.4632631472118869 0.2766995442659853 0.5397189744073961	-0.183446
C	0.3937809465463010 0.2758531272883899 0.5397714148158880	0.099709
C	0.5720617812037496 0.2477869204152344 0.6077816168399426	0.054620
C	0.6078970978784698 0.1923487587306630 0.6371128946190932	-0.128674
C	0.6773230806358049 0.1931063344191529 0.6397357194263308	-0.124292
C	0.7132434671664436 0.2497939591510652 0.6145995601398572	0.067108
C	0.6773582272270846 0.3056496752026107 0.5867161369929423	-0.120281
C	0.6079940289756707 0.3044144068428308 0.5825721862832516	-0.126870
C	0.1086772672770101 0.2812717167584782 0.6640534818655304	0.102532
C	0.0393463085547405 0.2825813945379035 0.6680766029654234	-0.180885
C	0.0015980653629077 0.2527709209816259 0.6056650060427723	0.108118
C	0.0368810050803019 0.2234085423221017 0.5408071593131917	-0.179331
C	0.1063486351458103 0.2246083923953225 0.5408810712626106	0.107652
C	0.9280051773873705 0.2521568265273355 0.6084888568914696	0.054878
C	0.8921129634493571 0.3076965975726374 0.6374323820565854	-0.129276
C	0.8226782590159527 0.3069642654729240 0.6397506481194071	-0.123740
C	0.7867993573139797 0.2502660584451499 0.6146033072750355	0.067053
C	0.8227268662935795 0.1944334149006727 0.5867603133572119	-0.120034
C	0.8920990104761474 0.1956133862266652 0.5829478317785799	-0.125870
C	0.2810364064802652 0.3913179829850796 0.6635269720246811	0.109510
C	0.2825997621003425 0.4606767831391328 0.6673808016598558	-0.177155
C	0.2530445131692975 0.4984212055096462 0.6048254252169255	0.106729
C	0.2234246967078353 0.4631509174524527 0.5401080217345350	-0.181363
C	0.2243228978433681 0.3937196123484569 0.5404208834865715	0.103074
C	0.2522688558200682 0.5720067019060054 0.6079565886160068	0.054800
C	0.3077112791816967 0.6078323531447803 0.6371716877937926	-0.128745
C	0.3069261799741164 0.6772584733012675 0.6397072663412275	-0.123926
C	0.2502308004896867 0.7132017026391090 0.6145498979522774	0.067227
C	0.1944022809528919 0.6773344609740425 0.5866974839213078	-0.120340
C	0.1956396371390998 0.6079655940338965 0.5826654415362421	-0.126732
C	0.2186497310850267 0.1086429562383257 0.6645551732905182	0.099190
C	0.2173279838682637 0.0392513933488434 0.6682988931713014	-0.181693
C	0.2471480448907675 0.0015443726627818 0.6058135505188514	0.105392
C	0.2765465202777030 0.0368405715172474 0.5410029993455773	-0.181757
C	0.2753767051803221 0.1063413545774056 0.5410483608374437	0.100913
C	0.2477833613998612 0.9279481145273164 0.6085416183732736	0.055377
C	0.1922561072892750 0.8920999314651079 0.6374724500097581	-0.130141
C	0.1930075163671254 0.8226635344698355 0.6397363249991590	-0.124088
C	0.2497274325460108 0.7867590249562539 0.6145561276584509	0.066941
C	0.3055639610791421 0.8226479246055434 0.5867302184700500	-0.120693
C	0.3043411544343663 0.8920251660834130 0.5829496931791258	-0.126071
C	0.6086822543167727 0.7189631059799695 0.8364737148003016	0.109564
C	0.5393240501455263 0.7174013171022986 0.8326207406361065	-0.177151
C	0.5015771537196906 0.7469556250104801 0.8951746656264862	0.106805
C	0.5368501953085347 0.7765742781406116 0.9598909150675601	-0.181453
C	0.6062813154644613 0.7756763055244421 0.9595791918804201	0.103103
C	0.4279935652954105 0.7477312608953803 0.8920432359078116	0.054823
C	0.3921691130616590 0.6922891883505856 0.8628274750185626	-0.128805
C	0.3227423426639466 0.6930745871283811 0.8602931382502108	-0.123966
C	0.2867982806195353 0.7497692883198013 0.8854503086251119	0.067341
C	0.3226661207418455 0.8055972069648045 0.9133025737638911	-0.120390
C	0.3920349321403822 0.8043598366852648 0.9173344964786200	-0.126703
C	0.8913565608675617 0.7813505052241160 0.8354446154533121	0.099190
C	0.9607481224048562 0.7826716711995907 0.8317027526915186	-0.181602
C	0.9984571383373075 0.7528519052495015 0.8941871423189771	0.105423
C	0.9631591253148277 0.7234539381733019 0.9589964854918441	-0.181757
C	0.8936582361656394 0.7246229994639674 0.9589514275921229	0.100892
C	0.0720519585504130 0.7522170988028842 0.8914589995460500	0.055336
C	0.1078995740205873 0.8077437781177942 0.8625283130669283	-0.130192
C	0.1773358619986840 0.8069921327123665 0.8602642664432772	-0.124062
C	0.2132414831604631 0.7502726284065895 0.8854436353127996	0.066969
C	0.1773519329210383 0.6944365632633714 0.9132694009269732	-0.120832
C	0.1079743600059057 0.6956593150239189 0.9170507025562337	-0.126010
C	0.7187281974124422 0.8913226594104529 0.8359466960152576	0.102474
C	0.7174193331357664 0.9606539358938645 0.8319247704469489	-0.180850
C	0.7472293674005175 0.9984037017603850 0.8943353379407439	0.108049
C	0.7765915615969186 0.9631187661858689 0.9591922030588214	-0.179312
C	0.7753922312784201 0.8936507773179355 0.9591185370446388	0.107702
C	0.7478429985879333 0.0719949288208462 0.8915116605533834	0.054956
C	0.6923037704504122 0.1078864742007848 0.8625682917022645	-0.129280
C	0.6930357004280824 0.1773214129907724 0.8602495596275076	-0.123744
C	0.7497333051675680 0.2132010921614368 0.8853964166488437	0.067052
C	0.8055656764925775 0.1772731155551361 0.9132395912688807	-0.120039
C	0.8043857462041019 0.1079007966214763 0.9170523802022825	-0.125792
C	0.7810090155805142 0.6086759198753334 0.8368778598287661	0.101042
C	0.7825687063524199 0.5392808350317224 0.8330249681375792	-0.179059
C	0.7529830267685245 0.5015100699655073 0.8955248409844798	0.104725
C	0.7233012332762254 0.5367374880951836 0.9602805760219468	-0.183460
C	0.7241471314925875 0.6062198882049205 0.9602287891601174	0.099750
C	0.7522134120959544 0.4279386098243692 0.8922194055516270	0.054544
C	0.8076508916712092 0.3921031876528875 0.8628874800252615	-0.128657
C	0.8068929276778990 0.3226772273114670 0.8602644581423795	-0.124252
C	0.7502056023626597 0.2867565065094301 0.8854001950362167	0.067044
C	0.6943503810419733 0.3226421450485064 0.9132837114263784	-0.120241
C	0.6955857507003335 0.3920062873920276 0.9174282098600497	-0.126906
C	0.6086780641419336 0.7812715261871707 0.3359473633050621	0.102512
C	0.5393470569035624 0.7825810012653636 0.3319250396537875	-0.180908
C	0.5015963169169048 0.7527709155328681 0.3943358167215454	0.108093
C	0.5368811782959590 0.7234087830691395 0.4591927094137829	-0.179342
C	0.6063491032146491 0.7246077427930429 0.4591190172977025	0.107689
C	0.4280051018742468 0.7521569203810723 0.3915118612339706	0.054895
C	0.3921133246008115 0.8076964868780140 0.3625683281800595	-0.129207
C	0.3226786421404665 0.8069640677482478 0.3602498994800833	-0.123752
C	0.2867993056870787 0.7502660432432650 0.3853971432996685	0.067018
C	0.3227271063909466 0.6944335321432749 0.4132400583348328	-0.120003
C	0.3920992172057084 0.6956135820471708 0.4170526127268607	-0.125797
C	0.8913248910018212 0.7189926179632232 0.3368773180742654	0.101083
C	0.9607198472191237 0.7174314692595939 0.3330240218637973	-0.179088
C	0.9984899993412256 0.7470170794413979 0.3955236122373620	0.104705
C	0.9632623049892322 0.7766989334138106 0.4602792137713996	-0.183399
C	0.8937798907584240 0.7758535957783105 0.4602274466450944	0.099680
C	0.0720618654288555 0.7477869334918996 0.3922183049408348	0.054543
C	0.1078968600526219 0.6923491303238946 0.3628875041107180	-0.128650
C	0.1773229062616288 0.6931066698689199 0.3602648408895188	-0.124221
C	0.2132434967653241 0.7497939311211115 0.3854008102232052	0.067080
C	0.1773577622423768 0.8056492525979119 0.4132839005399769	-0.120204
C	0.1079935130172470 0.8044140283558978 0.4174276453239508	-0.126904
C	0.7186499209895810 0.6086441372802280 0.3354447039422947	0.099147
C	0.7173287070663804 0.5392522718511753 0.3317019779167716	-0.181624
C	0.7471483681465650 0.5015428553876322 0.3941861479262915	0.105434
C	0.7765461408294021 0.5368410610624008 0.4589950223597182	-0.181791
C	0.7753773468501427 0.6063420545341855 0.4589498711846448	0.100944
C	0.7477834087689090 0.4279481072397260 0.3914585272052891	0.055398
C	0.6922565083004164 0.3921006293720695 0.3625280894683376	-0.130186
C	0.6930079880270508 0.3226643896215776 0.3602642835083552	-0.124086
C	0.7497276962921672 0.2867592105114964 0.3854438460049135	0.066977
C	0.8055639351494174 0.3226483227364507 0.4132694236906392	-0.120776
C	0.8043409432647869 0.3920255332188707 0.4170499801279894	-0.126057
C	0.7810364505957740 0.8913180747163811 0.3364735536869047	0.109561
C	0.7825997277738881 0.9606768394149918 0.3326201130786466	-0.177204
C	0.7530446002791117 0.9984228646889155 0.3951746746388484	0.106805
C	0.7234251176418894 0.9631500762190660 0.4598914672413127	-0.181438
C	0.7243225554145940 0.8937188947660663 0.4595790654626561	0.103118
C	0.7522687801652677 0.0720070915923989 0.3920434285831234	0.054779
C	0.8077111357655661 0.1078323667871735 0.3628284126618385	-0.128766
C	0.8069261744484976 0.1772584504075370 0.3602929906787913	-0.123929
C	0.7502309755360282 0.2132017702053846 0.3854503977611147	0.067256
C	0.6944024546871439 0.1773340653784128 0.4133027558220728	-0.120402
C	0.6956396924804469 0.1079652233842603 0.4173346644976575	-0.126663
C	0.3913563496333108 0.2813503518138045 0.1645546274461230	0.099167
C	0.4607481438123832 0.2826713523807235 0.1682972825606465	-0.181608
C	0.4984574554890985 0.2528516793834826 0.1058132879590589	0.105410
C	0.4631596134448618 0.2234537992137821 0.0410044150050359	-0.181669
C	0.3936586757874012 0.2246230649947831 0.0410498908889766	0.100880
C	0.5720522413481570 0.2522167488709934 0.1085412748131542	0.055302
C	0.6078998535583557 0.3077433876046534 0.1374718057941587	-0.130129
C	0.6773360648699728 0.3069919291898124 0.1397358959466595	-0.124062
C	0.7132413449871782 0.2502724438082736 0.1145564505445652	0.066922
C	0.6773521503860200 0.1944363359337242 0.0867307709958184	-0.120725
C	0.6079748971038124 0.1956593304878783 0.0829499887916440	-0.126006
C	0.1086818554888407 0.2189625371391780 0.1635258155574228	0.109513
C	0.0393233962373832 0.2174001869376677 0.1673800938707192	-0.177203
C	0.0015777720279131 0.2469553298261167 0.1048252226504135	0.106789
C	0.0368495486659869 0.2765749730160126 0.0401081301075534	-0.181487
C	0.1062806769991863 0.2756769072765041 0.0404204436184549	0.103064
C	0.9279929017452619 0.2477312686821118 0.1079569276521823	0.054816
C	0.8921676987660767 0.1922887182590994 0.1371718160137262	-0.128767
C	0.8227416386768055 0.1930739276165936 0.1397071903622657	-0.123943
C	0.7867983357710313 0.2497691812829434 0.1145497816390994	0.067254
C	0.8226660793037112 0.3055976660838093 0.0866973823366943	-0.120377
C	0.8920348390376152 0.3043604534929407 0.0826654085738964	-0.126701
C	0.2810084855869687 0.1086755412469780 0.1631214240270278	0.101057
C	0.2825687011086426 0.0392804943967747 0.1669757621915982	-0.179131
C	0.2529826878126272 0.0015105918134077 0.1044760523313167	0.104708
C	0.2233005769514477 0.0367375927870361 0.0397200046185310	-0.183416
C	0.2241471357434816 0.1062200480904072 0.0397714409476584	0.099747
C	0.2522122012008374 0.9279378748623097 0.1077802129831433	0.054586
C	0.3076505456969190 0.8921030474137160 0.1371125721161791	-0.128695
C	0.3068931467475248 0.8226771840934206 0.1397355440945569	-0.124276
C	0.2502057918652744 0.7867564856843929 0.1145999074915017	0.067108
C	0.1943506252347272 0.8226422673830186 0.0867164421444012	-0.120322
C	0.1955855270474753 0.8920065211132061 0.0825722317893629	-0.126898
C	0.2187281996950499 0.3913222128730591 0.1640532289676267	0.102561
C	0.2174189319565127 0.4606534992637812 0.1680751295438308	-0.180976
C	0.2472289501019504 0.4984038728356857 0.1056641881756454	0.108133
C	0.2765912999017668 0.4631192716128461 0.0408075073858686	-0.179366
C	0.2753919162283247 0.3936514681934403 0.0408817486912573	0.107754
C	0.2478428171001070 0.5719954210972313 0.1084878948020784	0.054847
C	0.1923034663361371 0.6078866873462638 0.1374317487493160	-0.129222
C	0.1930354985266414 0.6773214355032737 0.1397506240774627	-0.123770
C	0.2497333708875259 0.7132010006321879 0.1146036701518149	0.067079
C	0.3055659853356616 0.6772732965357112 0.0867604391266574	-0.120118
C	0.3043858799326665 0.6079011633406622 0.0829474942685362	-0.125732
H	0.3610494495458635 0.1986874546520843 0.7127190338638034	0.097384
H	0.4849197309899860 0.1953109506891559 0.7201479992689402	0.116640
H	0.4897764454728193 0.2995691816221745 0.4886722472568940	0.114105
H	0.3650208546531846 0.2980192339104160 0.4898261776949160	0.095299
H	0.5808043007045677 0.1478504822948842 0.6566795103405728	0.100066
H	0.7044360890543179 0.1496797318109235 0.6626720689586069	0.100767
H	0.7045060560638157 0.3497018528521628 0.5658498368166738	0.102885
H	0.5810698284858296 0.3482576597237811 0.5606324134366577	0.103292
H	0.1395554082300126 0.3029848610626368 0.7121512313654870	0.092118
H	0.0148355612843135 0.3051848546051327 0.7207571498075103	0.113101
H	0.0105027158544532 0.2012785503073498 0.4892273618706069	0.115980
H	0.1351144374213855 0.2040967727836075 0.4901964610039682	0.095014
H	0.9190952332660984 0.3523126195216730 0.6567964965543575	0.099764
H	0.7955384370030875 0.3504189844057155 0.6625120670230856	0.101556
H	0.7956155140534005 0.1503955883235056 0.5657660689316774	0.102751
H	0.9190310114757430 0.1517856337448426 0.5609724840821965	0.104195
H	0.3013425544537863 0.3607069100559347 0.7126493420626309	0.092958
H	0.3045612409057871 0.4849994010884714 0.7205253906754996	0.115711
H	0.2007488593060565 0.4896697411652698 0.4889368558951437	0.113319
H	0.2023043143324267 0.3646497175460482 0.4908595352460521	0.091862
H	0.3522609925278408 0.5807592044804906 0.6566875463664097	0.099824
H	0.3503401135079600 0.7043547355600912 0.6625908438903496	0.101472
H	0.1503490820461171 0.7045082739197612 0.5658046852061527	0.102749
H	0.1517714706398209 0.5811016814747716 0.5607958684573411	0.103456
H	0.1970345683029442 0.1391472354587362 0.7132629903872244	0.096169
H	0.1945824095384858 0.0147801411399592 0.7209085611316607	0.114149
H	0.2988610406378194 0.0105327045201979 0.4894390386831587	0.116372
H	0.2960310024440849 0.1348324896123450 0.4900237031370672	0.098440
H	0.1476778280484119 0.9191643733478370 0.6569097588270337	0.100571
H	0.1495698916208750 0.7955496403397944 0.6625278527934672	0.100979
H	0.3496330627276770 0.7955127007441498 0.5657606170212904	0.103211
H	0.3481265058465416 0.9189647876051910 0.5609410742731067	0.104215
H	0.6392922141563629 0.6986562015854959 0.7873531608630783	0.092945
H	0.5150009778874637 0.6954393509802753 0.7794743864639548	0.115666
H	0.5103305619626839 0.7992506507551802 0.0110638929262694	0.113321
H	0.6353494508104750 0.7976953543516654 0.0091395156963247	0.091869
H	0.4192405186047824 0.6477398926700977 0.8433128597357774	0.099851
H	0.2956457321265001 0.6496610378035691 0.8374098040524223	0.101492
H	0.2954923047598502 0.8496500173878715 0.9341952970768493	0.102712
H	0.4188980099071400 0.8482277404517596 0.9392039911441975	0.103424
H	0.8608536011648398 0.8029661521654866 0.7867375215144621	0.096156
H	0.9852200016061374 0.8054178510161132 0.7790912659763565	0.114099
H	0.9894671798207955 0.7011393031120801 0.0105623518966070	0.116341
H	0.8651681264347271 0.7039687306819531 0.0099754120624277	0.098411
H	0.0808358376055381 0.8523214834551335 0.8430911550113588	0.100575
H	0.2044498529126327 0.8504295665458564 0.8374728089411716	0.101010
H	0.2044870239363850 0.6503675366002210 0.9342392184602908	0.103233
H	0.0810360690162272 0.6518746568657342 0.9390589786408015	0.104235
H	0.6970145432954745 0.8604461598657280 0.7878498744704204	0.092143
H	0.6948151086279871 0.9851652977141977 0.7792427640108243	0.113096
H	0.7987214838987423 0.9894969781265011 0.0107732898357397	0.115949
H	0.7959030684761618 0.8648857465977848 0.0098027704584402	0.095017
H	0.6476881423854087 0.0809050519631383 0.8432041870803387	0.099760
H	0.6495813477471734 0.2044611971156985 0.8374882580717073	0.101554
H	0.8496030499523562 0.2043847192589341 0.9342338321432664	0.102743
H	0.8482131958307353 0.0809696397143419 0.9390274763599337	0.104144
H	0.8013137655287870 0.6389503579154314 0.7872825008788761	0.097383
H	0.8046888560976025 0.5150807382136458 0.7798526464577021	0.116614
H	0.7004308026041502 0.5102239702884712 0.0113286943346153	0.114129
H	0.7019802682256934 0.6349788454334718 0.0101726263576642	0.095289
H	0.8521485875937461 0.4191954384567868 0.8433209602856381	0.100054
H	0.8503190665013990 0.2955642910374926 0.8373284211764025	0.100781
H	0.6502989397973904 0.2954944271480779 0.9341501362552967	0.102880
H	0.6517432338462136 0.4189300651715736 0.9393676983438221	0.103304
H	0.6395547613414078 0.8029846713879135 0.2878499186260383	0.092132
H	0.5148360049913326 0.8051849164554526 0.2792428777880274	0.113130
H	0.5105023028938424 0.7012782596254742 0.5107740318585313	0.115990
H	0.6351133456674914 0.7040953013704314 0.5098025947376045	0.095009
H	0.4190949873707505 0.8523127350482761 0.3432041383201902	0.099750
H	0.2955387747960317 0.8504186323191603 0.3374884739385337	0.101562
H	0.2956155230753268 0.6503958439053634 0.4342342091941536	0.102712
H	0.4190305502997572 0.6517855640268856 0.4390278667773687	0.104150
H	0.8610504572415768 0.6986873013190492 0.2872822191162189	0.097393
H	0.9849201371329540 0.6953110759049986 0.2798517963688930	0.116631
H	0.9897759410580104 0.7995686855488506 0.5113270827613705	0.114090
H	0.8650208721075096 0.7980194205302508 0.5101719884047928	0.095297
H	0.0808047261781095 0.6478510984577881 0.3433210570111859	0.100045
H	0.2044360701939521 0.6496805149933099 0.3373287241122327	0.100750
H	0.2045056225099713 0.8497010268719639 0.4341500987125932	0.102868
H	0.0810698889922863 0.8482571048203561 0.4393672860492762	0.103302
H	0.6970339877316056 0.6391471411857244 0.2867376514537296	0.096175
H	0.6945823331890427 0.5147807516974010 0.2790911679177017	0.114112
H	0.7988608116392912 0.5105322845239569 0.5105605921741542	0.116382
H	0.7960316669843716 0.6348320199397801 0.5099732464772400	0.098413
H	0.6476784439937328 0.4191645065799086 0.3430909446839581	0.100568
H	0.6495708266317396 0.2955503086111914 0.3374730670168770	0.100995
H	0.8496325875167080 0.2955127839115423 0.4342392510733321	0.103226
H	0.8481261890545057 0.4189643041280911 0.4390589241939281	0.104222
H	0.8013429687823590 0.8607082927475556 0.2873516083894332	0.092947
H	0.8045615294375217 0.9849999724923506 0.2794744392456519	0.115726
H	0.7007488666764986 0.9896692771964618 0.5110637950468457	0.113308
H	0.7023030347909607 0.8646504791992119 0.5091400778705059	0.091850
H	0.8522605756794052 0.0807598367841193 0.3433126582057611	0.099844
H	0.8503398427945708 0.2043548711050824 0.3374095457453805	0.101487
H	0.6503496078808321 0.2045078525511777 0.4341955403056771	0.102744
H	0.6517716165217036 0.0811017469545567 0.4392043431126091	0.103435
H	0.3608537637922163 0.3029660876894281 0.2132625154980420	0.096183
H	0.4852195808142599 0.3054177063720357 0.2209083515674733	0.114071
H	0.4894678179063253 0.2011391370556458 0.9894386627602164	0.116337
H	0.3651690530531541 0.2039686883440083 0.9900256418936113	0.098404
H	0.5808358302020843 0.3523212761989117 0.1569090498646092	0.100525
H	0.7044497851447914 0.3504291951845609 0.1625272127790799	0.100980
H	0.7044873231782555 0.1503676592784911 0.0657608950221170	0.103223
H	0.5810360362517693 0.1518742206296194 0.0609410980934463	0.104217
H	0.1392918273621363 0.1986558999847307 0.2126478603665700	0.092969
H	0.0150007559431726 0.1954387554210277 0.2205259656382955	0.115717
H	0.0103303004032917 0.2992512868738739 0.9889361676095199	0.113315
H	0.1353487188665215 0.2976968665211395 0.9908593158519311	0.091942
H	0.9192404057824510 0.1477395076932335 0.1566873632212377	0.099825
H	0.7956456356977499 0.1496601392399173 0.1625906972806537	0.101490
H	0.7954925202901928 0.3496506072128764 0.0658045217337540	0.102736
H	0.9188984181014009 0.3482283675695774 0.0607958787354250	0.103436
H	0.3013135925729382 0.1389498310268366 0.2127171306143631	0.097408
H	0.3046888071305411 0.0150803663820181 0.2201480765275455	0.116647
H	0.2004308165107690 0.0102242052506550 0.9886724462175036	0.114098
H	0.2019802377253167 0.1349786080392276 0.9898265739232935	0.095285
H	0.3521487508430501 0.9191953061023141 0.1566789398906398	0.100076
H	0.3503193477439545 0.7955640712149066 0.1626715373826662	0.100776
H	0.1502990486417640 0.7954948122776249 0.0658500907842081	0.102885
H	0.1517431020461201 0.9189304727002816 0.0606328237565680	0.103305
H	0.1970144607310708 0.3604456586539464 0.2121509255751363	0.092115
H	0.1948150953456435 0.4851648242718819 0.2207573305611314	0.113120
H	0.2987217160217034 0.4894980868091272 0.9892259670578846	0.115947
H	0.2959039185545523 0.3648866575092924 0.9901979934229957	0.095004
H	0.1476873759953782 0.5809047570851968 0.1567959592066532	0.099771
H	0.1495810926886138 0.7044609239280972 0.1625121082502829	0.101580
H	0.3496036011145195 0.7043849015322411 0.0657662009858838	0.102750
H	0.3482133922319469 0.5809698785513111 0.0609724951119508	0.104157
Zn	0.2502019245215167 0.2497621566987682 0.6007835811652927	0.736225
Zn	0.7502357861251877 0.7497977357995191 0.8992179281479419	0.736178
Zn	0.7502028017129787 0.7497627463387629 0.3992170946984582	0.736189
Zn	0.2502344498291649 0.2497970590392109 0.1007832708186844	0.736187
In	0.2513892172767593 0.2500936834926816 0.3511533626712209	1.568932
In	0.7499060649001725 0.7486116552781606 0.1488439627203007	1.568878
In	0.7513881328996681 0.7500953827085430 0.6488416530994350	1.568984
In	0.2499090037266523 0.2486127463008323 0.8511546423806999	1.568926
	  	
