#======================================================================

# CRYSTAL DATA

#----------------------------------------------------------------------

data_VESTA_phase_1


_pd_phase_name                         InFFIVE_3_Co
_cell_length_a                         14.27452
_cell_length_b                         14.27218
_cell_length_c                         8.29166
_cell_angle_alpha                      89.98634
_cell_angle_beta                       89.98416
_cell_angle_gamma                      92.45126
_symmetry_space_group_name_H-M         P 1
_symmetry_Int_Tables_number            1

loop_
_symmetry_equiv_pos_as_xyz
   x, y, z

loop_
   _atom_site_label
   _atom_site_fract_x
   _atom_site_fract_y
   _atom_site_fract_z
   _atom_site_charge
C	0.2680722727290892 0.4523846605364625 0.6299750965067634	0.062482
C	0.2292978936053430 0.0498715998440941 0.6386531120519523	0.068175
C	0.2355935676255312 0.4524423058567181 0.3584578571044765	0.058605
C	0.2625079802206696 0.0496976798672627 0.3677527135066735	0.066096
C	0.0497265070338913 0.2625195836623163 0.3677152811644239	0.066166
C	0.4524076154487218 0.2355998261839054 0.3584409932728028	0.058801
C	0.4523729004293546 0.2680800942199399 0.6299345495761218	0.062322
C	0.0498872507591097 0.2293131935037692 0.6386151072131590	0.068469
C	0.9523248209947700 0.2318040176419421 0.6410518033937160	0.057325
C	0.5497881106336359 0.2670171012188833 0.6315338389629719	0.064449
C	0.5499439739253161 0.2330726079818860 0.3609602038087469	0.067799
C	0.9523384834156742 0.2635711542235143 0.3692743592300279	0.060304
C	0.7316263498853575 0.0500145006366895 0.3612676647092143	0.068219
C	0.7653695441353341 0.4524132057879020 0.3695076169287737	0.062367
C	0.7654210400474442 0.0498796712610829 0.6319108960441210	0.064179
C	0.7331648192560359 0.4523206657623087 0.6411493504451125	0.056920
C	0.4522896753584144 0.7331860469353279 0.6412609125507668	0.057206
C	0.0498289197427713 0.7653994698523711 0.6319180267508622	0.064449
C	0.0499859108694923 0.7316635667824578 0.3612399743510246	0.068254
C	0.4523677216021029 0.7653050706445751 0.3696040987478704	0.061395
C	0.2330760020439789 0.5499837606916413 0.3609806756190529	0.068041
C	0.2635849580149683 0.9523105720661315 0.3693671292914912	0.061386
C	0.2670317458698606 0.5498020149032333 0.6315634653703073	0.063948
C	0.2318131667141695 0.9523042857052497 0.6411273141536417	0.056969
C	0.7654098480863964 0.9524099272239567 0.6308019758922299	0.061954
C	0.7316408469587490 0.5499574219861642 0.6390880533287174	0.068797
C	0.7331997732954840 0.9523697298433498 0.3591954071710250	0.057737
C	0.7654318248822801 0.5498847344441640 0.3683957757886620	0.063576
C	0.5498094657613242 0.7653624111518943 0.3684474771253196	0.064530
C	0.9523757344149242 0.7332389620986670 0.3591673570539497	0.058021
C	0.9523801167709144 0.7653558068871534 0.6308248045160010	0.061787
C	0.5498888650207744 0.7316337916433769 0.6391578207131914	0.068799
H	0.2785139395662060 0.4134131040942781 0.7408196103238333	0.105269
H	0.2134680712208591 0.0884005325039174 0.7483589901375978	0.105495
H	0.2238556735771811 0.4145169662468308 0.2454413228508197	0.108987
H	0.2742547543151432 0.0889784914370430 0.2566331158427652	0.101873
H	0.0889723731439230 0.2741976413044931 0.2565336308838509	0.101749
H	0.4145406997639423 0.2238395103220824 0.2453984854453664	0.108747
H	0.4134667887868589 0.2785021408601021 0.7408784608849897	0.105090
H	0.0883442847069838 0.2134509327448831 0.7483548277721265	0.105335
H	0.9144570756394214 0.2205638370374103 0.7542711049335868	0.108789
H	0.5890387884117597 0.2790075773697528 0.7425628046639740	0.102568
H	0.5883962280163377 0.2167821960155300 0.2514110195010575	0.105229
H	0.9135093788443908 0.2738508127278000 0.2582488787304980	0.106474
H	0.7157920282603393 0.0885110186872068 0.2515363940217639	0.105507
H	0.7753596354706194 0.4135797970736829 0.2583819334370272	0.106032
H	0.7778797215200012 0.0892150887594671 0.7427367406501564	0.102089
H	0.7213525582042993 0.4143695943298912 0.7541324508980543	0.108683
H	0.4143616232820634 0.7213756871916038 0.7542265427865891	0.108652
H	0.0891543432083687 0.7778138727246394 0.7427357986978077	0.102172
H	0.0884973985467329 0.7157964846108745 0.2515769870366040	0.105677
H	0.4135318604029343 0.7752486357999548 0.2584948110277774	0.106189
H	0.2167581276293488 0.5884657166516690 0.2515102237286070	0.105284
H	0.2738473290188292 0.9134317108574793 0.2583646174964912	0.106035
H	0.2790134585816901 0.5890723602962831 0.7425824690189203	0.102866
H	0.2205327780413314 0.9144367475611134 0.7542998782245399	0.109040
H	0.7754166478507796 0.9135681045839815 0.7419462005006555	0.105789
H	0.7157310125900208 0.5884279738926951 0.7487963299724348	0.105198
H	0.7213846308746364 0.9144378231268780 0.2462283376473786	0.108937
H	0.7778012554288548 0.5892715604595142 0.2575449456408458	0.102252
H	0.5891621102842959 0.7777337352943021 0.2575794799490025	0.102201
H	0.9143966571503200 0.7215035737821457 0.2462375430368656	0.108933
H	0.9135246166156855 0.7753386781809775 0.7419522959026585	0.106025
H	0.5883854639251496 0.7157212016500402 0.7488184597304212	0.105495
Co	0.2506557817338581 0.2506813625713477 0.4958392321496708	0.826268
Co	0.7507264128011569 0.2507643505166198 0.5039309838883305	0.823900
Co	0.2507503367547038 0.7507317761263725 0.5039204784545342	0.823683
Co	0.7507087941041717 0.7507380464903819 0.4964592566355145	0.824201
In	0.2498173321085595 0.2497859846904025 -0.0051882556347226	1.545972
In	0.7497967221004878 0.2497287017427940 0.0049832262794375	1.545226
In	0.2499063873212782 0.7498754059950460 0.0049450413989153	1.546065
In	0.7497249733334072 0.7497499765090442 -0.0047509143383895	1.545954
F	0.2553414825377021 0.2552599085630749 0.7364145063058072	-0.564281
F	0.2473724151777263 0.2473596311878721 0.2533437937246653	-0.566724
F	0.1486265490526492 0.1486044368726253 -0.0275746423673244	-0.574882
F	0.2165357475555972 0.3854161749523259 -0.0009019141231549	-0.579350
F	0.3854565053327347 0.2165159702565534 -0.0008630347125114	-0.579393
F	0.7471393704936892 0.2472253705790710 0.7463923616788073	-0.566691
F	0.7556695959940951 0.2556100225882904 0.2634575349980280	-0.564246
F	0.6488145999318403 0.1485318669368921 0.0298961699566489	-0.575206
F	0.7161673978102304 0.3852626304350100 0.0006303528352924	-0.578841
F	0.8853508460356517 0.2162117237982870 0.0005092665306747	-0.578719
F	0.2471773740361358 0.7471364645169207 0.7463898781424902	-0.566616
F	0.2556325311566865 0.7555492997822004 0.2634532044643869	-0.564016
F	0.1488225773578561 0.6488220826312812 0.0300030393051022	-0.575315
F	0.2161124410619021 0.8853830753927491 0.0006847707658721	-0.578540
F	0.3854058018553688 0.7161593997486615 0.0005715781226760	-0.578701
F	0.7552999251062832 0.7554507308809039 0.7368932664795157	-0.564319
F	0.7471893476365781 0.7471032218181035 0.2537957865482082	-0.567106
F	0.6487095468381039 0.6485221164931971 -0.0292140501967515	-0.575234
F	0.7161798723301881 0.8853139744346518 -0.0001175819318570	-0.578842
F	0.8852911878240746 0.7163871526523541 -0.0003259060300191	-0.578797
N	0.4033578315098614 0.2531888069109163 0.4930121761862489	-0.215074
N	0.0989502788369923 0.2456522081170080 0.5021618452882159	-0.215178
N	0.2531589559488511 0.4033722395878551 0.4930336880438050	-0.214898
N	0.2456317191471161 0.0989407753653125 0.5021766318182778	-0.214706
N	0.9033151315370683 0.2490852505852332 0.5063792430093897	-0.213783
N	0.5989815845705432 0.2496850817767020 0.4973009845038384	-0.213226
N	0.7501291973189368 0.4033113554207136 0.5063292452140242	-0.213951
N	0.7486674744004373 0.0990954954194333 0.4974321091187144	-0.213148
N	0.4033149181901907 0.7501206869586206 0.5064632032695748	-0.213435
N	0.0990108811076244 0.7487093788624122 0.4974053930321294	-0.213340
N	0.2491088210450975 0.9033264761963263 0.5064939931110333	-0.214031
N	0.2497013632765357 0.5989760480992627 0.4973174333032143	-0.213031
N	0.9033136359202343 0.7500907324954244 0.4940196541088735	-0.214493
N	0.5990138733217550 0.7487742802473504 0.5029761777581125	-0.213563
N	0.7500810142668964 0.9033198390129501 0.4940184648134502	-0.214627
N	0.7488228387880078 0.5990782785545834 0.5029470523731023	-0.213156
	  	
