#======================================================================

# CRYSTAL DATA

#----------------------------------------------------------------------

data_VESTA_phase_1


_pd_phase_name                         InFFIVE_15_Zn_i
_cell_length_a                         29.95327
_cell_length_b                         29.11168
_cell_length_c                         8.39984
_cell_angle_alpha                      89.99995
_cell_angle_beta                       89.99994
_cell_angle_gamma                      89.99957
_symmetry_space_group_name_H-M         P 1
_symmetry_Int_Tables_number            1

loop_
_symmetry_equiv_pos_as_xyz
   x, y, z

loop_
   _atom_site_label
   _atom_site_fract_x
   _atom_site_fract_y
   _atom_site_fract_z
   _atom_site_charge
C	0.9331709819789170 0.1018682764821011 0.8881589047297831	0.097716
C	0.9008774044544630 0.0677156769316462 0.8936840321059254	-0.165362
C	0.7698658980783434 0.9362146692256014 0.8952911520881329	-0.118035
C	0.7359134676853555 0.9039201946929399 0.8950878083398615	-0.116195
C	0.5688460804517378 0.7418144886158183 0.8880460491209083	0.096478
C	0.6021211347845951 0.7749488996178441 0.8933871769924407	-0.170123
C	0.4335447607248317 0.6016365765239696 0.8878792291720685	0.105744
C	0.4012124086085044 0.5675298558636543 0.8937192019085665	-0.168201
C	0.2698088575262315 0.4362734802425190 0.8952001024407780	-0.115488
C	0.2358650389633349 0.4039506057873288 0.8949949655415594	-0.115423
C	0.0689992526799089 0.2414344143937107 0.8877602479964968	0.103655
C	0.1022412173674882 0.2745960239600703 0.8933957709483622	-0.169848
C	0.0673820855823855 0.8974326824183740 0.3878690045843991	0.104919
C	0.0991625823536869 0.9320873528128695 0.3937187817739097	-0.166031
C	0.2300725144847995 0.0638361202352512 0.3951889463574825	-0.115069
C	0.2640447922939645 0.0961237216270577 0.3949867610505416	-0.114755
C	0.4318636116838359 0.2575930929915831 0.3877743787952870	0.102887
C	0.3981282671942002 0.2249654747899947 0.3934055996052788	-0.170543
C	0.5672069938974210 0.3977775296182671 0.3881519507341451	0.098643
C	0.5989293722429291 0.4324947124495878 0.3936857740291915	-0.164120
C	0.7301019280215407 0.5637863842803418 0.3952991660915169	-0.117305
C	0.7640909992477453 0.5960366320383343 0.3950932338189398	-0.115514
C	0.9314453348568956 0.7578235569523853 0.3880500152390136	0.095827
C	0.8977422218895806 0.7251520142018908 0.3933912000060634	-0.169974
C	0.0672600322068033 0.1027509393160706 0.6121271502831203	0.106784
C	0.0990142163536155 0.0680787764395195 0.6062794215643612	-0.167275
C	0.2298520408218446 0.9363710125639951 0.6047410380218782	-0.114845
C	0.2638769088553515 0.9041492682676515 0.6049704720386715	-0.115637
C	0.4309607043670045 0.7419070432410697 0.6119565445248515	0.095773
C	0.3977030417068384 0.7750697259750834 0.6066243525834855	-0.169426
C	0.5662695795068968 0.6017873796662164 0.6121180664785447	0.104664
C	0.5985904942723657 0.5676777424499658 0.6062769063262419	-0.168459
C	0.7299262885923503 0.4364923894453078 0.6047359649954057	-0.114238
C	0.7638655788295097 0.4041736754504921 0.6049629850785728	-0.116478
C	0.9313429519599619 0.2423434513457421 0.6119644357316625	0.094770
C	0.8976117834070595 0.2749933534429490 0.6066380437589731	-0.169424
C	0.9330719145707248 0.8983139083230879 0.1118454790175910	0.096654
C	0.9007590615051004 0.9324562323153742 0.1063263452442059	-0.164718
C	0.7696894302836428 0.0640096307773764 0.1047347037715961	-0.116494
C	0.7357752620638849 0.0963564898788555 0.1049273057231306	-0.115602
C	0.5679621649155675 0.2577189763312221 0.1122270512269627	0.103196
C	0.6017022601571361 0.2251046666408873 0.1065914741861201	-0.170410
C	0.4326341640703663 0.3978850163900368 0.1118675780843399	0.099017
C	0.4009008991523040 0.4326069203277223 0.1063314788018574	-0.166382
C	0.2696972823774738 0.5640225650365883 0.1047492465414876	-0.116428
C	0.2356845508280674 0.5962602443991982 0.1049479788733717	-0.114447
C	0.0688996011776778 0.7587338975401029 0.1122251873608540	0.102884
C	0.1021195664192492 0.7255551394136990 0.1065865577108129	-0.169634
C	0.0673815931900154 0.8974320411280109 0.1121341707569215	0.104938
C	0.0991619786526324 0.9320866772764492 0.1062806893577466	-0.165975
C	0.2300726497654100 0.0638362729172416 0.1048066786458198	-0.115024
C	0.2640449451577399 0.0961238807296277 0.1050099083118597	-0.114731
C	0.4318642278062041 0.2575929230190345 0.1122262531380745	0.103027
C	0.3981285563133745 0.2249656886243391 0.1065939405262819	-0.170542
C	0.5672065348715580 0.3977769179254903 0.1118545248074381	0.098663
C	0.5989291105892107 0.4324940274842107 0.1063169925483304	-0.164037
C	0.7301019654658815 0.5637866874205556 0.1046973362640861	-0.117197
C	0.7640911231432108 0.5960369380505759 0.1049052584046980	-0.115507
C	0.9314459115349768 0.7578239530670909 0.1119578619077017	0.095795
C	0.8977430309408641 0.7251524091629952 0.1066129238547966	-0.169921
C	0.9331710408324108 0.1018677576298532 0.6118320299866411	0.097772
C	0.9008773796934678 0.0677148550058109 0.6063088211548875	-0.165355
C	0.7698659738844056 0.9362147353744722 0.6047055519476625	-0.117912
C	0.7359135136037220 0.9039202380271463 0.6049085649603937	-0.116257
C	0.5688453085171477 0.7418148034428832 0.6119606959092299	0.096487
C	0.6021203078197666 0.7749493217898153 0.6066173006370664	-0.170138
C	0.4335448148026285 0.6016367453786281 0.6121230445750003	0.105738
C	0.4012123781655965 0.5675297507567124 0.6062826555979617	-0.168163
C	0.2698088913519307 0.4362734868293743 0.6047989830622105	-0.115558
C	0.2358650748482111 0.4039510025394236 0.6050038332245965	-0.115331
C	0.0689997753983592 0.2414342526178816 0.6122348796108857	0.103639
C	0.1022417348416526 0.2745959766020249 0.6066014860240156	-0.169764
C	0.9330711829172406 0.8983140534082356 0.3881600515827072	0.096759
C	0.9007582680009052 0.9324566549888715 0.3936761453366731	-0.164764
C	0.7696896578686988 0.0640094802559908 0.3952631364204886	-0.116582
C	0.7357753784844341 0.0963561843315392 0.3950691318237737	-0.115565
C	0.5679630169140906 0.2577192293807190 0.3877724139817814	0.103140
C	0.6017028961289087 0.2251048265958435 0.3934066519433008	-0.170370
C	0.4326340251027275 0.3978855558799277 0.3881324023968259	0.098997
C	0.4009010942032128 0.4326071069681626 0.3936679821788000	-0.166340
C	0.2696970774542972 0.5640227313370669 0.3952490814810403	-0.116497
C	0.2356843671301471 0.5962600828322415 0.3950496360367053	-0.114450
C	0.0689000944076135 0.7587333141019882 0.3877763276399773	0.102942
C	0.1021203444785931 0.7255546498797923 0.3934111046070481	-0.169614
C	0.0672596829774422 0.1027512750678602 0.8878688513764503	0.106795
C	0.0990140184395345 0.0680789040485956 0.8937206975620989	-0.167269
C	0.2298519501567206 0.9363711025966983 0.8952547510082673	-0.114768
C	0.2638768156732703 0.9041493597588978 0.8950253599244804	-0.115650
C	0.4309604025805154 0.7419070161195729 0.8880448497191809	0.095723
C	0.3977028345570539 0.7750698427678032 0.8933764189528982	-0.169316
C	0.5662694064241155 0.6017869491707669 0.8878810490564828	0.104642
C	0.5985903920694708 0.5676775674143174 0.8937204934024178	-0.168523
C	0.7299263907827697 0.4364923064961006 0.8952636936589496	-0.114143
C	0.7638655963442201 0.4041736632238427 0.8950354729746356	-0.116558
C	0.9313429653533936 0.2423427838085019 0.8880299134749698	0.094815
C	0.8976119319110343 0.2749928566822255 0.8933582627823737	-0.169595
C	0.6538553788666577 0.8257751396575392 0.7500002963287149	-0.103293
C	0.8838407254981352 0.0499806047024277 0.7499965507851375	0.162521
C	0.8214505328012202 0.9862914507995914 0.7499991469312921	-0.101121
C	0.6196411314166499 0.7923901650256510 0.7500014855696329	0.170361
C	0.7872887762902981 0.9529234225541104 0.7499984260554970	0.129479
C	0.7183067163472912 0.8872439930080609 0.7499981880475722	0.138247
C	0.6837158302272283 0.8543086357850227 0.7499984751403402	-0.101447
C	0.8505965388664171 0.0156021905326078 0.7499985012368445	-0.103434
C	0.1538647032809805 0.3256295155850121 0.7499995751948922	-0.106474
C	0.3840634414131468 0.5498833629990137 0.7500003778124320	0.165183
C	0.3214446469369382 0.4863671307678631 0.7500004308580084	-0.095785
C	0.1197101301225822 0.2921342768530017 0.7499989699462176	0.171560
C	0.2872418284627857 0.4530074708650758 0.7499995748087075	0.130397
C	0.2182456888031535 0.3872378851319507 0.7499994757361693	0.137758
C	0.1836775210802748 0.3542346831096455 0.7499985265324735	-0.097146
C	0.3506632207710335 0.5156180392728923 0.7500008046292116	-0.106934
C	0.3458379048041568 0.1746672134830358 0.2499982633508058	-0.107045
C	0.1158294537033270 0.9502080004503034 0.2499990789792461	0.164355
C	0.1782101241722374 0.0139828525888128 0.2499979123828608	-0.097650
C	0.3802443732098724 0.2078830894743621 0.2499999533609485	0.172568
C	0.2125588871311145 0.0471867259761819 0.2499977148429881	0.128944
C	0.2816227325465188 0.1128827786770635 0.2499984518181565	0.138090
C	0.3161288244076389 0.1459507849104958 0.2499987370401159	-0.095744
C	0.1488872934830870 0.9848357803891298 0.2499979649800691	-0.109249
C	0.8456911609386826 0.6746674079239556 0.2500004162949065	-0.102736
C	0.6156026482798255 0.4505905626036359 0.2500010273483038	0.160366
C	0.6781650180227542 0.5141029885770366 0.2499993603130152	-0.101512
C	0.8799387654218933 0.7080136727556712 0.2500021418656563	0.169314
C	0.7125815952631354 0.5471907424573377 0.2499982213208320	0.128219
C	0.7816386041041987 0.6127639242145929 0.2499995257213028	0.139513
C	0.8160878234548475 0.6458549224535290 0.2500002649975375	-0.101087
C	0.6487243080527272 0.4851019080492024 0.2500004826437129	-0.106395
C	0.3459434191829262 0.8259485130495496 0.7499995641911215	-0.100189
C	0.1156811454168048 0.0499671567248568 0.7499993746640934	0.164738
C	0.1780326874416764 0.9862032245326837 0.7499978412035007	-0.097204
C	0.3801641814386422 0.7925279880571751 0.7500001280779887	0.169960
C	0.2123685005740400 0.9530044459133045 0.7499977518092873	0.126281
C	0.2815056589541310 0.8874631556703727 0.7499979982008311	0.141646
C	0.3161125739910176 0.8545214991398518 0.7499983479320939	-0.104104
C	0.1487251965528807 0.0153598123485662 0.7499993010773307	-0.110078
C	0.8455073238004872 0.3255017424030510 0.7499993685525602	-0.103961
C	0.6157089169759329 0.5500242277072330 0.7499980023233724	0.166430
C	0.6782812092776686 0.4864980527335656 0.7499998815333848	-0.091856
C	0.8797812959727469 0.2921515331074676 0.7499979627095643	0.170084
C	0.7124938864806655 0.4531746491823341 0.7499995931480430	0.127491
C	0.7814425391286014 0.3874259118093441 0.7499988517651753	0.139388
C	0.8158875605851991 0.3543095951626983 0.7499980298075057	-0.099528
C	0.6490716463910676 0.5157494632634464 0.7499985336317821	-0.109493
C	0.6539744749750006 0.1748206765731316 0.2499977147334604	-0.107596
C	0.8837067142480182 0.9501981054286786 0.2500004718909077	0.161276
C	0.8212779764148995 0.0138933786870218 0.2499979612618456	-0.101044
C	0.6195761661022257 0.2080205692434588 0.2499983455411100	0.171870
C	0.7871335337570970 0.0472930809592411 0.2499994545328234	0.130023
C	0.7182209034647385 0.1130887938568229 0.2499984877410957	0.136089
C	0.6837121313916845 0.1461414914242106 0.2499978537946109	-0.095787
C	0.8504290522960914 0.9845815324722097 0.2499990138912529	-0.099594
C	0.1537116966313297 0.6745407400894808 0.2499969113327037	-0.105351
C	0.3842001552384877 0.4507017299211115 0.2499983603687345	0.161611
C	0.3216082607350366 0.5142317779899231 0.2499989678323221	-0.101613
C	0.1195737554299380 0.7080317419748188 0.2499984012542037	0.171552
C	0.2872181591313506 0.5473787814710053 0.2499993925042127	0.128299
C	0.2180836779230973 0.6129483518753918 0.2499993547470047	0.137491
C	0.1834996345082950 0.6459183720331781 0.2499977309269856	-0.097102
C	0.3510439899352184 0.4852145694205022 0.2499985135043339	-0.104552
H	0.9472293737207153 0.1156485471700988 -0.0021347865336295	0.093453
H	0.8891883494658024 0.0548401326887933 0.0080758702549585	0.121444
H	0.7835019104301334 0.9490362562474703 0.0071485974737919	0.107330
H	0.7224271966345276 0.8910220552078385 0.0068954339400812	0.115183
H	0.5554609947034185 0.7274113406785666 -0.0021790909320088	0.092291
H	0.6145567003856246 0.7868975309380584 0.0078351498901909	0.126281
H	0.4479173358178389 0.6156822926500356 -0.0034432765381499	0.088491
H	0.3894409819926074 0.5546155328900151 0.0079364787445889	0.121041
H	0.2834346160279365 0.4490435501879922 0.0071366766591386	0.107913
H	0.2224222548095212 0.3910553254121462 0.0068867706217125	0.114886
H	0.0553433086830971 0.2267062286930535 -0.0034996114394295	0.087548
H	0.1147598333090287 0.2865848167454484 0.0076734119142443	0.125471
H	0.0542555843583030 0.8821248232312097 0.4964792703894322	0.089409
H	0.1111407692532841 0.9447965885382853 0.5079336475981162	0.120493
H	0.2165187412589733 0.0509842451041561 0.5071293689699613	0.107492
H	0.2775587019345478 0.1089244484135983 0.5068970430332259	0.115359
H	0.4467667207901571 0.2710293255423835 0.4964542101016580	0.087790
H	0.3858572921107245 0.2126963220605058 0.5076693221050836	0.126345
H	0.5544775088294884 0.3826865600064653 0.4978444465481020	0.093806
H	0.6108617625724714 0.4451337681441599 0.5080816744191271	0.120459
H	0.7165171752329330 0.5509124977888411 0.5071572648724997	0.106922
H	0.7776421046224866 0.6088639313769494 0.5068857468679032	0.115517
H	0.9460755785387502 0.7709343231028561 0.4977778204252166	0.092903
H	0.8855502147101053 0.7129165441181704 0.5078161223416203	0.126366
H	0.0541311348919300 0.1180669094432038 0.5035160754228335	0.088190
H	0.1109833722440041 0.0553574581768251 0.4920577717016487	0.120434
H	0.2162243749299741 0.9491429988604846 0.4928197823517912	0.106179
H	0.2774019117968473 0.8913038687837287 0.4931386024844755	0.115651
H	0.4443606297639893 0.7275123767508226 0.5021693178005301	0.092988
H	0.3852837156102821 0.7870271762672757 0.4921535311985575	0.126038
H	0.5519148588925462 0.6158505942963498 0.5034539658877575	0.088538
H	0.6103753896621045 0.5547689334675285 0.4920866102914987	0.121222
H	0.7163397824039170 0.4493146169174893 0.4928208827643135	0.106833
H	0.7773535629916599 0.3912785336225355 0.4931347563194278	0.115364
H	0.9459696366727675 0.2292340028670178 0.5022175556956314	0.093290
H	0.8854258705864591 0.2872194629687733 0.4921843016897646	0.125844
H	0.9471230967500861 0.8845282289511451 0.0021237650777885	0.094015
H	0.8890612064078374 0.9453013525092898 0.9919142138971887	0.121457
H	0.7832420747184485 0.0510989591296476 0.9928720506368302	0.107472
H	0.7222729929031663 0.1091965130794515 0.9930653771311525	0.114327
H	0.5530633991830557 0.2711640417626757 0.0035501698941997	0.088040
H	0.6139900052231608 0.2128402379748749 0.9923445072467260	0.125977
H	0.4453775149042770 0.3828045077379397 0.0021727315712088	0.094104
H	0.3889903667948080 0.4452365529405309 0.9918967178052859	0.120952
H	0.2833040060147199 0.5511902404486921 0.9928616524197722	0.106727
H	0.2221596661308834 0.6090739388425528 0.9930916198099929	0.114390
H	0.0552419392085752 0.7734684260524456 0.0034970300996992	0.087132
H	0.1146326046490081 0.7135548834476343 0.9923231494411325	0.125765
H	0.0542549337895471 0.8821239303812511 0.0035245933901762	0.089396
H	0.1111396345271695 0.9447955125496080 0.9920644295493631	0.120479
H	0.2165190421410270 0.0509845753123795 0.9928658580701049	0.107454
H	0.2775590535103559 0.1089248176361173 0.9931001454787516	0.115316
H	0.4467686378670946 0.2710284658931553 0.0035466916328474	0.087738
H	0.3858582651147384 0.2126965244853637 0.9923297383718068	0.126340
H	0.5544765325734070 0.3826854143867908 0.0021635472816888	0.093761
H	0.6108612828064229 0.4451329640120674 0.9919200350436770	0.120416
H	0.7165174628913092 0.5509132096068881 0.9928384600664730	0.106892
H	0.7776425252835241 0.6088645009252895 0.9931132523713336	0.115504
H	0.9460763969034209 0.7709346572255136 0.0022309555810508	0.092935
H	0.8855513474431316 0.7129174700299877 0.9921863017422617	0.126378
H	0.9472290270279902 0.1156471573891031 0.5021237431753726	0.093372
H	0.8891878952836570 0.0548388880561866 0.4919182367968358	0.121415
H	0.7835018946685478 0.9490362463410127 0.4928477738386600	0.107310
H	0.7224271864499158 0.8910220417779032 0.4931011577017828	0.115171
H	0.5554596997572887 0.7274113758084073 0.5021866943957698	0.092261
H	0.6145555088686376 0.7868973248840159 0.4921686698320665	0.126300
H	0.4479173258083042 0.6156823301070663 0.5034454388589519	0.088495
H	0.3894413833124720 0.5546152522827468 0.4920648488666917	0.121021
H	0.2834351443089190 0.4490436841064453 0.4928629197359804	0.107927
H	0.2224227439669295 0.3910554834007910 0.4931110165769189	0.114867
H	0.0553439907440419 0.2267065828329986 0.5034940906785889	0.087523
H	0.1147604535727562 0.2865847594691428 0.4923241633889462	0.125449
H	0.9471218168046404 0.8845285892149539 0.4978830831743120	0.093951
H	0.8890597060504492 0.9453023757607348 0.5080865317365070	0.121457
H	0.7832415621817312 0.0510981662658738 0.5071263156946310	0.107544
H	0.7222727259836597 0.1091965742450761 0.5069304959701147	0.114291
H	0.5530653304708310 0.2711649706136868 0.4964503436109667	0.088008
H	0.6139910513698617 0.2128404429643619 0.5076529463412325	0.125988
H	0.4453770825718902 0.3828051027501675 0.4978278145927512	0.094120
H	0.3889900616006300 0.4452372080750592 0.5081013454364117	0.120942
H	0.2833040126842893 0.5511903494448864 0.5071380537288035	0.106754
H	0.2221591044267769 0.6090739605735217 0.5069054785261313	0.114400
H	0.0552423847965653 0.7734676163076777 0.4965043345286991	0.087126
H	0.1146336976460137 0.7135539416290905 0.5076736696635099	0.125741
H	0.0541304685886491 0.1180678093788241 -0.0035221478727956	0.088205
H	0.1109832650150247 0.0553578900492836 0.0079433797738908	0.120437
H	0.2162242644913843 0.9491431107158349 0.0071760849356478	0.106130
H	0.2774017642632182 0.8913040005751265 0.0068573519135412	0.115623
H	0.4443601412874494 0.7275127049778591 -0.0021669242840401	0.093033
H	0.3852832731827505 0.7870273844034360 0.0078472189643604	0.126014
H	0.5519144967541035 0.6158495915329455 -0.0034538444851244	0.088591
H	0.6103758150242329 0.5547686634346248 0.0079103611049945	0.121264
H	0.7163400067080212 0.4493144360301016 0.0071789581006170	0.106801
H	0.7773537357210585 0.3912783902764536 0.0068632399889396	0.115358
H	0.9459700483705151 0.2292333494504558 -0.0022225263289258	0.093267
H	0.8854259043801953 0.2872190844419221 0.0078117960065802	0.125918
Zn	0.4999416223378998 0.6736214990764161 0.7500020008946088	0.736445
Zn	-0.0006897720878002 0.1730600646403591 0.7499959699467494	0.736663
Zn	0.4999265817751212 0.3275716822374356 0.2499982906024437	0.736637
Zn	-0.0006703932519582 0.8270978372559125 0.2500120195735794	0.737219
In	0.4999524295345824 0.6723865885344629 0.2500231829104015	1.544701
In	0.0008502554142898 0.1731624593673640 0.2500004744816304	1.545993
In	0.4999263343126542 0.3264301907694755 0.7500024108603015	1.544991
In	0.0008722836449565 0.8269545428327936 0.7500020154154186	1.545274
F	0.4999619628173863 0.6028906675998091 0.2500133235894892	-0.604898
F	0.9678647108411691 0.2339068727125588 0.2500013349877467	-0.597279
F	0.9682079569759675 0.1122397372120689 0.2500039539167293	-0.592935
F	0.4998872717893208 0.2569233821873021 0.7500476902800295	-0.609549
F	0.9679562243143670 0.7661366821856238 0.7500263066885069	-0.597156
F	0.9681556653868892 0.8878372891373264 0.7499885692936745	-0.593102
F	0.5590786554670005 0.7062315193434773 0.2500093430501323	-0.595237
F	0.0684275489394398 0.1733725615960115 0.2499890853549413	-0.608515
F	0.4407593838030939 0.3601568684193575 0.7499976518930140	-0.595052
F	0.4408490430485063 0.7062730509175371 0.2499973229610977	-0.595745
F	0.5591915106392480 0.3599731788421310 0.7499983841242165	-0.594745
F	0.0684419127934845 0.8267134359943156 0.7500160753208790	-0.608103
F	0.4998731676734630 0.6732990173800375 0.5024740675834461	-0.553024
F	-0.0000870397345326 0.1731837633588782 0.5025391080361982	-0.553249
F	0.4998669029405903 0.3271565233916730 0.0025068847698143	-0.553228
F	-0.0001012065817962 0.8270440677901325 0.0025357084884968	-0.553139
F	0.4998757518167359 0.6733003646673578 -0.0024760601008157	-0.553154
F	-0.0000785866161614 0.1731757311556097 -0.0025509127682562	-0.553229
F	0.4998611099491675 0.3271577632717450 0.4975000234188552	-0.553258
F	-0.0000850242330242 0.8270390158049066 0.4974790121837552	-0.553079
N	0.5522021443409105 0.7253918817360409 0.7500031584814154	-0.227703
N	0.9490431519893924 0.1189911648857809 0.7499942121852737	-0.227537
N	0.0522559600409860 0.2250414034256835 0.7499971563223176	-0.224143
N	0.4493761877412782 0.6188719255366930 0.7500002917060670	-0.222676
N	0.4485027464624060 0.2740845502306260 0.2500004039837947	-0.222544
N	0.0514569737127884 0.8802966456966544 0.2500027378422814	-0.223074
N	0.9481121674800783 0.7742334983421324 0.2500053678754427	-0.226241
N	0.5513916934717220 0.3805890807984448 0.2500031735316141	-0.228464
N	0.4475805707158094 0.7254541518762138 0.7500006464114011	-0.227009
N	0.0513600933713898 0.1199058460788103 0.7499976227221975	-0.224000
N	0.9480305031821377 0.2259543731743032 0.7499970252810577	-0.225892
N	0.5504150987001797 0.6190059566248081 0.7500000125197012	-0.223050
N	0.5513030828773868 0.2741914207857031 0.2500002004232657	-0.223932
N	0.9489679692543646 0.8811984590207117 0.2500042291557772	-0.225695
N	0.0521808104223587 0.7751469881199666 0.2500016639036974	-0.223289
N	0.4484288344731372 0.3806798212310881 0.2499998239889111	-0.225988
	  	
