#======================================================================

# CRYSTAL DATA

#----------------------------------------------------------------------

data_VESTA_phase_1


_pd_phase_name                         InFFIVE_14_Ni_i
_cell_length_a                         13.26621
_cell_length_b                         13.25025
_cell_length_c                         8.29854
_cell_angle_alpha                      87.99664
_cell_angle_beta                       87.83402
_cell_angle_gamma                      89.01198
_symmetry_space_group_name_H-M         P 1
_symmetry_Int_Tables_number            1

loop_
_symmetry_equiv_pos_as_xyz
   x, y, z

loop_
   _atom_site_label
   _atom_site_fract_x
   _atom_site_fract_y
   _atom_site_fract_z
   _atom_site_charge
C	0.5699889582707858 0.2645792977377777 0.3636694980842343	-0.177156
C	0.4652769922496630 0.2685289984822088 0.3667342514561212	0.112081
C	0.9393163099670386 0.2886586849850368 0.4107659396219894	-0.170592
C	0.0438058099414614 0.2824302208265647 0.3947008748228842	0.109717
C	0.2623886904483698 0.5698879194948113 0.3656540116844059	-0.177469
C	0.2659858039438400 0.4650099686568680 0.3691477503738942	0.110854
C	0.2974197757752117 0.9392256237552660 0.4062468124179818	-0.169649
C	0.2905231355894355 0.0438519603465579 0.3913178391400580	0.109592
C	0.9320467424591586 0.2341861629181193 0.1368865528380917	-0.181569
C	0.0368464149702505 0.2304733597881883 0.1313527981837061	0.107737
C	0.5645554093937070 0.2096787321697840 0.0898364367927828	-0.166114
C	0.4600268732922501 0.2177219837493011 0.1024963042754885	0.105580
C	0.2113278132740705 0.5640080570821230 0.0900430699834873	-0.168462
C	0.2192034633517271 0.4594235644350435 0.1030361764871204	0.104088
C	0.2309038052475173 0.9317198064199059 0.1400491032111131	-0.181098
C	0.2270998253692370 0.0366123160833572 0.1351778729272291	0.109496
C	0.4319132928783140 0.7351297050610105 0.6381829403064362	-0.180937
C	0.5366336740906540 0.7318959204041251 0.6322917608549276	0.109276
C	0.0643384314202377 0.7288395349891046 0.5809084586538480	-0.165448
C	0.9597318211031811 0.7331161037024438 0.5960204682351952	0.105151
C	0.7361162646287497 0.4318159301378651 0.6374424519971587	-0.180460
C	0.7333204043096339 0.5366759839482238 0.6316824741094419	0.110665
C	0.7164066188166974 0.0639978828067029 0.5853930486043170	-0.162713
C	0.7224987784787482 0.9593060133015305 0.5992056532255969	0.104393
C	0.0697093252574622 0.7586972549552109 0.8656595032249206	-0.177831
C	0.9649741372020050 0.7603356827088348 0.8702828073494575	0.108209
C	0.4393030676742043 0.7806846317077767 0.9167478266726109	-0.167914
C	0.5438273572467995 0.7764092270391116 0.8994309464390099	0.113730
C	0.7810917739055874 0.4393474570233523 0.9160802287405265	-0.169372
C	0.7767544409051005 0.5439514882498530 0.8991262485846543	0.112537
C	0.7628230322023061 0.0696799530796221 0.8634308258777115	-0.176810
C	0.7657651892913078 0.9648546699992538 0.8670527830855136	0.112112
C	0.6209745243263545 0.2352052544714447 0.2210725684534673	0.191229
C	0.8819830910458614 0.2630734412725784 0.2805363956293568	0.191608
C	0.2350853810578750 0.6206779791813083 0.2221299830410923	0.192852
C	0.2660369250760435 0.8817707184913065 0.2795455145166934	0.190198
C	0.3819796215036607 0.7595639168769007 0.7843986506579551	0.191056
C	0.1207074001844052 0.7429256521550837 0.7170206977516015	0.191495
C	0.7599818460030883 0.3819061450815517 0.7836028401578538	0.191119
C	0.7381132782200291 0.1205520734940411 0.7184923844766975	0.189217
H	0.6110410593103587 0.2799944682277385 0.4711226523161960	0.108609
H	0.4224925810012756 0.2872373059753093 0.4763992987337364	0.090913
H	0.9026057007727938 0.3126155986002463 0.5227922416735594	0.125267
H	0.0913745304465644 0.3016282704170203 0.4927616485931469	0.090498
H	0.2763175879671445 0.6113801211777439 0.4734653284419813	0.109814
H	0.2826572823362243 0.4226293046578363 0.4799264240889216	0.092165
H	0.3265098824051081 0.9024498854247933 0.5145704098085337	0.125127
H	0.3142110819231253 0.0915062582506991 0.4868311388996685	0.091267
H	0.8900061685594038 0.2181263159234045 0.0306842663154766	0.109964
H	0.0783442077805925 0.2085461176798293 0.0216985834843251	0.093721
H	0.6016316630328122 0.1843659527606216 0.9790119077532513	0.125792
H	0.4145356532629566 0.2003828424644661 0.0007306688261306	0.097736
H	0.1878460195856916 0.6008362835898350 0.9781408305667800	0.125068
H	0.2037714420059670 0.4138264826817907 0.0004163770698320	0.097389
H	0.2102772307545180 0.8894249584007827 0.0363033735900196	0.112010
H	0.2009449750757800 0.0783032637881373 0.0285573600131166	0.092886
H	0.3900257580280909 0.7212186587264033 0.5308805091601094	0.105943
H	0.5782768346095628 0.7124223234878082 0.5216181643877642	0.093026
H	0.1013059786781024 0.7149432731359801 0.4644995986035080	0.124623
H	0.9145191601219927 0.7228938413095604 0.4912600418990126	0.095134
H	0.7228507887786844 0.3896489588963959 0.5300286701819924	0.106223
H	0.7145971569529487 0.5783768463647090 0.5209605631122334	0.092908
H	0.6952468194055169 0.1009329612592998 0.4723604349242688	0.125058
H	0.7072860699430977 0.9139088061441377 0.4963181543595699	0.095213
H	0.1105732270714611 0.7663068606717358 0.9759537106972445	0.104731
H	0.9226409648735122 0.7686339895646449 0.9840741233872736	0.093728
H	0.4026677324510616 0.8001096718570340 0.0311762314234169	0.125367
H	0.5913461494094951 0.7931376650125523 -0.0013252019298341	0.087830
H	0.8003217094966578 0.4027094474333113 0.0303865530120762	0.125221
H	0.7929255903171749 0.5916033170553259 -0.0013181194142014	0.087788
H	0.7758424065867019 0.1107405383461088 0.9720073151050734	0.106354
H	0.7812239540768326 0.9222509048272228 0.9780279755638058	0.092897
N	0.7759408003298897 0.2730003702172635 0.3012560021197538	-0.109563
N	0.2769262891352957 0.7755624545755285 0.2982929395876250	-0.111993
N	0.7269998614606774 0.2250954837269861 0.2015986809383644	-0.101412
N	0.2247917797749363 0.7267445809567653 0.2040196767611152	-0.101158
N	0.2266425023685992 0.7360144528037920 0.6935941819352783	-0.098338
N	0.7296430344598539 0.2266500277612595 0.6970077976053112	-0.099107
N	0.2759661466812687 0.7674617647157076 0.8086587376184501	-0.107120
N	0.7682794204244072 0.2758215328018154 0.8063213898660488	-0.107788
N	0.4107390523635526 0.2469140356517130 0.2385249388345269	-0.229030
N	0.0922319016860056 0.2535049642145000 0.2579990633614165	-0.223930
N	0.2462185002745794 0.4102386946468711 0.2401137591720357	-0.230294
N	0.2555775939365181 0.0920978055241897 0.2586583953428007	-0.225074
N	0.5921089215500118 0.7522205237683102 0.7602565924529611	-0.224035
N	0.9103678028272744 0.7487110352092976 0.7380632330246734	-0.227314
N	0.7531828512975823 0.5922303689462871 0.7599105876156559	-0.225154
N	0.7469686937869701 0.9101145446711346 0.7374776707200917	-0.227689
F	0.3891347980269146 0.1888539519647834 0.7393048050692553	-0.594420
F	0.2027974137273839 0.3916492744179974 0.7396090221435558	-0.592896
F	0.1341299015552837 0.1426488619938988 0.7793106436619256	-0.600197
F	0.6937864508584346 0.8914422794677422 0.2407571554251274	-0.589996
F	0.8905873692918976 0.6997521711010467 0.2392208858718100	-0.586491
F	0.6383277814716698 0.6391006883851079 0.2713820327084784	-0.599726
F	0.2516780202418179 0.2508578773688532 0.4931496602124574	-0.566147
F	0.2512818690970248 0.2495145958782411 0.0057513026317091	-0.564747
F	0.7490402452616662 0.7493841183514903 0.5057771228347405	-0.562080
F	0.7518070185487069 0.7525327684512801 -0.0069250908857951	-0.562438
In	0.2458648829058329 0.2441015883268586 0.7503609659487969	1.555653
In	0.7445043899404112 0.7465864365128744 0.2503413943300964	1.551324
Ni	0.2514838279568537 0.2510210016122198 0.2485681269731018	0.756546
Ni	0.7511284123654389 0.7511208257945182 0.7488942655240173	0.753946
	  	
