#======================================================================

# CRYSTAL DATA

#----------------------------------------------------------------------

data_VESTA_phase_1


_pd_phase_name                         InFFIVE_2_Cu_i
_cell_length_a                         13.74767
_cell_length_b                         13.74789
_cell_length_c                         8.60756
_cell_angle_alpha                      90.00042
_cell_angle_beta                       89.99971
_cell_angle_gamma                      89.72176
_symmetry_space_group_name_H-M         P 1
_symmetry_Int_Tables_number            1

loop_
_symmetry_equiv_pos_as_xyz
   x, y, z

loop_
   _atom_site_label
   _atom_site_fract_x
   _atom_site_fract_y
   _atom_site_fract_z
   _atom_site_charge
C	-0.0000682242267040 0.3005534624995193 0.3597316199779415	-0.152826
C	-0.0007150064950597 0.1996802683568250 0.3647893304886469	0.097178
C	0.4999353944009590 0.8005727285998188 0.8597363763007814	-0.152841
C	0.4992909854348761 0.6997012843453686 0.8648000786675335	0.097222
C	-0.0004132026946949 0.7001745783048638 0.3596643755731569	-0.160019
C	0.9989717811502365 0.8010351065122714 0.3649218075989250	0.103627
C	0.4995832746768408 0.2001896628205970 0.8596693532237690	-0.160243
C	0.4989723503577991 0.3010478559438705 0.8649247049387095	0.103792
C	0.7001678649603830 -0.0004078662038534 0.3596696130611641	-0.159964
C	0.8010281223842318 0.9989735359483254 0.3649170913221462	0.103515
C	0.2001822040460621 0.4995983909553816 0.8596847791378589	-0.159874
C	0.3010414146972114 0.4989790253078523 0.8649092922458302	0.103462
C	0.3005533559710183 -0.0000638188826936 0.3597369537583370	-0.152910
C	0.1996797249276059 -0.0007116963441297 0.3647887408505195	0.097275
C	0.8005878170312302 0.4999376503992487 0.8597499683227321	-0.152802
C	0.6997144656860879 0.4992910756281661 0.8647864366451512	0.097201
C	-0.0000684173779033 0.3005546792589217 0.6402705373989181	-0.152757
C	-0.0007154488893883 0.1996815765947085 0.6352121604689778	0.097128
C	0.4999356529611678 0.8005724447461064 0.1402633129926911	-0.152861
C	0.4992912400326848 0.6997009133790939 0.1351979472197369	0.097366
C	-0.0004128766536320 0.7001755135239930 0.6403383788647253	-0.160034
C	0.9989715428627775 0.8010362383684434 0.6350816521112290	0.103654
C	0.4995829307952016 0.2001911976425479 0.1403319159934713	-0.160218
C	0.4989718758321824 0.3010491610963949 0.1350764755765229	0.103729
C	0.3005537188155864 -0.0000640871628118 0.6402649538964800	-0.152927
C	0.1996800937917513 -0.0007117424516213 0.6352156619683098	0.097223
C	0.8005864184324472 0.4999378468740575 0.1402484965736669	-0.152776
C	0.6997130603092573 0.4992913713306226 0.1352124834653517	0.097181
C	0.7001667087924029 -0.0004088797893299 0.6403327869681799	-0.159920
C	0.8010274079352020 0.9989731335732737 0.6350847873536269	0.103547
C	0.2001821520924964 0.4995981128542567 0.1403157363236778	-0.159888
C	0.3010412466266212 0.4989788402375991 0.1350897727750393	0.103452
C	0.0010511702658483 0.4560144117941636 0.5000010978009970	-0.084901
C	0.0005679692410300 0.3532225987186408 0.5000010707077988	0.160800
C	0.5010443358852753 0.9560303333350744 0.0000012748538158	-0.084977
C	0.5005644223561976 0.8532375986119859 0.0000005778460377	0.160895
C	0.0010303152460882 0.5446817916957692 0.5000011521303800	-0.098612
C	0.0003504690644121 0.6474594251612231 0.5000013161290936	0.167729
C	0.5010257367336668 0.0446991310801967 0.0000012687344503	-0.098626
C	0.5003442538778902 0.1474760951348361 0.0000008747684339	0.168207
C	0.5446735957311168 0.0010369756451767 0.5000018507918872	-0.098964
C	0.6474511695324421 0.0003556961762592 0.5000006579537171	0.167642
C	0.0447107094760741 0.5010370636458105 0.0000011211566598	-0.098669
C	0.1474616820276984 0.5003546547300544 0.0000006078788305	0.168191
C	0.4560144083087459 0.0010587366395368 0.4999999466911256	-0.084393
C	0.3532231395624994 0.0005735231468909 0.5000005040929989	0.160821
C	0.9560248928073377 0.5010560788363259 -0.0000002482452400	-0.084977
C	0.8532592164310440 0.5005716902458089 -0.0000005312371391	0.160844
H	0.9995108363711658 0.3374362858343908 0.2476783321731852	0.123398
H	0.9975383177676431 0.1573588771651900 0.2578677116101665	0.100018
H	0.4995154355121183 0.8374508266676131 0.7476892694430147	0.123461
H	0.4975520432621173 0.6573661553565358 0.7579073088410286	0.100047
H	0.9990893270270910 0.6627527378789275 0.2480491809692147	0.122283
H	0.9970561235308442 0.8447804774961576 0.2595117869836295	0.098046
H	0.4990851756796076 0.1627716430966000 0.7480615890572664	0.122295
H	0.4970559734399440 0.3448069352127452 0.7595350658676621	0.098196
H	0.6627558221547515 0.9990950178002701 0.2480555543863825	0.122306
H	0.8447800880920983 0.9970590435900472 0.2595043537346525	0.098070
H	0.1627866500547946 0.4990985497384562 0.7480813599872206	0.122176
H	0.3448191069918290 0.4970642713560740 0.7595161112997028	0.098194
H	0.3374265246913742 0.9995190312003922 0.2476820099204673	0.123394
H	0.1573535382186047 0.9975442269397515 0.2578636104090449	0.099968
H	0.8374443274798129 0.4995179214548637 0.7477010070671299	0.123409
H	0.6573616826534223 0.4975456633103689 0.7578922155400328	0.100022
H	0.9995102919598117 0.3374381094459797 0.7523240107506532	0.123340
H	0.9975389963663337 0.1573601219596914 0.7421329337379799	0.100030
H	0.4995157529568012 0.8374504678406617 0.2523111333939953	0.123448
H	0.4975512033087588 0.6573679851471260 0.2420923751341260	0.099994
H	0.9990898174158255 0.6627538112436169 0.7519528898536701	0.122262
H	0.9970568455642773 0.8447815798957846 0.7404928554222813	0.098048
H	0.4990846686245092 0.1627743130836957 0.2519397229001861	0.122288
H	0.4970551699344493 0.3448088076271217 0.2404660030313262	0.098214
H	0.3374270116451546 0.9995182022120435 0.7523190974096804	0.123406
H	0.1573537112329992 0.9975446569715576 0.7421409776748429	0.099989
H	0.8374419650169458 0.4995179490673670 0.2522975813299765	0.123376
H	0.6573608241141253 0.4975450937566847 0.2421079697902121	0.100025
H	0.6627547672749027 0.9990949846172194 0.7519467995568883	0.122312
H	0.8447789282771173 0.9970585453143612 0.7404976014053521	0.098024
H	0.1627862378476945 0.4990979136947373 0.2519192903544404	0.122215
H	0.3448184017646455 0.4970638235188586 0.2404825285170535	0.098215
Cu	0.0004014760137484 0.0004047403893295 0.5000010278364692	0.719906
Cu	0.5004161840743963 0.5004145872608259 -0.0000028771298418	0.719287
In	0.0010560887940363 0.0010531875586591 0.0000038789233841	1.541099
In	0.5011549742908837 0.5010964788631443 0.4999884592477613	1.541663
N	-0.0005865862754472 0.1499775331284706 0.5000008308555981	-0.218205
N	0.4994270605979784 0.6500039439105915 -0.0000015161145637	-0.218221
N	-0.0006056950360244 0.8507333670309988 0.5000018231219786	-0.217669
N	0.4994014693123870 0.3507348044832382 0.0000004241676896	-0.217713
N	0.8507246914842307 -0.0006046309180489 0.5000009830235050	-0.217564
N	0.3507261936695965 0.4994091831227236 -0.0000009089870313	-0.217476
N	0.1499763645179524 -0.0005844387470208 0.5000025684076076	-0.218294
N	0.6500155875236592 0.4994249456140327 -0.0000008381633246	-0.217950
F	0.0003299280850848 0.0003413917795305 0.7566272408120963	-0.585174
F	0.5003760655862173 0.5003390889106286 0.2568012324635549	-0.585229
F	0.0003210190661485 0.0003233860837050 0.2433829642750336	-0.585265
F	0.5003719761154618 0.5003545005805438 0.7431813144793036	-0.585203
F	0.6445566714747694 0.4632099254652429 0.4999804873449034	-0.607948
F	0.4633381943545237 0.6445564610466988 0.4999561279271316	-0.608091
F	0.3966256683752554 0.3965811589261062 0.4999964367077381	-0.620606
F	0.8964310084575192 0.8964217309055743 -0.0000054208519580	-0.620478
F	0.9631897061646602 0.1445637308147113 0.0000229117030562	-0.608040
F	0.1445792689071273 0.9632274884300164 0.0000125632798119	-0.607994
	  	
