#======================================================================

# CRYSTAL DATA

#----------------------------------------------------------------------

data_VESTA_phase_1


_pd_phase_name                         InFFIVE_14_Co_i
_cell_length_a                         12.94124
_cell_length_b                         12.93332
_cell_length_c                         8.63403
_cell_angle_alpha                      89.48592
_cell_angle_beta                       89.34736
_cell_angle_gamma                      88.46774
_symmetry_space_group_name_H-M         P 1
_symmetry_Int_Tables_number            1

loop_
_symmetry_equiv_pos_as_xyz
   x, y, z

loop_
   _atom_site_label
   _atom_site_fract_x
   _atom_site_fract_y
   _atom_site_fract_z
   _atom_site_charge
C	0.5673044561206896 0.2646377799053390 0.3579449739354449	-0.173601
C	0.4603270028804791 0.2687307197414070 0.3627845412864805	0.093873
C	0.9451262238798902 0.2875735558409498 0.4088476880847975	-0.164377
C	0.0517830282116404 0.2818871280341054 0.3937313944646191	0.099957
C	0.2623868043560384 0.5673301477290800 0.3600473470048985	-0.172322
C	0.2662453183734809 0.4602598358527132 0.3650599607775767	0.092621
C	0.2956983079345262 0.9452295430788860 0.4050379571867644	-0.165554
C	0.2892530266121193 0.0519467237873778 0.3904236602860302	0.097715
C	0.9339078915367194 0.2363216876290918 0.1416845297363874	-0.178674
C	0.0409579031321052 0.2324986794036029 0.1357186488019116	0.095104
C	0.5570624503378828 0.2092447948844149 0.0926964511466347	-0.159573
C	0.4502855859151213 0.2161917176224551 0.1061300936487033	0.094870
C	0.2105567590115205 0.5567360734703289 0.0933460564538058	-0.160537
C	0.2176461522021204 0.4499708656898150 0.1067252712824272	0.092315
C	0.2331166852002733 0.9335961393383108 0.1437453788989866	-0.178590
C	0.2288417620650767 0.0407104286156393 0.1380820558007402	0.094011
C	0.4337639525242610 0.7358336864583929 0.6432917746211383	-0.179325
C	0.5407392060684634 0.7333034407695799 0.6367707687209521	0.093467
C	0.0565541640552375 0.7291019874039868 0.5848727753402286	-0.156550
C	0.9498319844223405 0.7318929552881781 0.6002798159072275	0.091268
C	0.7368436264837674 0.4336848834047193 0.6426237429053038	-0.178204
C	0.7345324633729278 0.5407279034500618 0.6363728958637874	0.094361
C	0.7171965588874950 0.0564349949238085 0.5882936055354234	-0.157945
C	0.7218348513383526 0.9496311031822862 0.6028334778486422	0.092466
C	0.0671444327769191 0.7600631791498701 0.8592211060244294	-0.173045
C	0.9602128038869561 0.7613994096834065 0.8654413827208559	0.092840
C	0.4452053963547296 0.7778271688073070 0.9142168653179570	-0.161818
C	0.5518320496558291 0.7747740985119641 0.8979604185311320	0.101558
C	0.7786166975611366 0.4451810129607653 0.9135485818871079	-0.164326
C	0.7753034972049195 0.5518482725541373 0.8977220235050797	0.100754
C	0.7640451690176644 0.0670984533933083 0.8572316433554302	-0.171045
C	0.7668247596859171 0.9601004941453973 0.8627219718916976	0.094814
C	0.6175282261924128 0.2355561253451214 0.2191357578022283	0.195130
C	0.8842168321685120 0.2631514371980821 0.2819586729256413	0.196043
C	0.2352807579561273 0.6173758494154464 0.2205280080066554	0.196122
C	0.2658729835849968 0.8840937344195196 0.2810416694144446	0.195220
C	0.3842563894579533 0.7582504024693759 0.7855150971366954	0.195144
C	0.1170921080724814 0.7440215945691127 0.7155555598529807	0.195050
C	0.7588040058450440 0.3841690987606531 0.7847577062526432	0.195402
C	0.7393764605213003 0.1170441335480167 0.7165047645719292	0.194853
H	0.6110510909182661 0.2804705968678265 0.4615859908448699	0.111148
H	0.4178998684714348 0.2875119000027633 0.4686638647494945	0.101628
H	0.9093194159288425 0.3098328238809999 0.5185290288421797	0.128693
H	0.1023918225357406 0.2994321138793167 0.4888867082377934	0.097590
H	0.2767605641810549 0.6114166140175631 0.4640202165309835	0.112617
H	0.2832950749363739 0.4180742775457410 0.4716267722951983	0.102346
H	0.3228934664265845 0.9094910613226697 0.5120458718608129	0.129417
H	0.3110338362157619 0.1026562105778219 0.4835412157999381	0.098540
H	0.8894105091298291 0.2215811477980544 0.0382216364748906	0.111451
H	0.0828577743897496 0.2130790268420712 0.0293359804411986	0.101821
H	0.5925837638222781 0.1842281576370590 0.9840725717030039	0.131435
H	0.4016434194772077 0.1982041987832159 0.0088059246557618	0.101308
H	0.1872139679687342 0.5920584195839000 0.9839905896883490	0.130848
H	0.2015902680699678 0.4011495948163379 0.0086388004614193	0.102583
H	0.2142199754303773 0.8887776125537834 0.0422241962578221	0.113517
H	0.2051401677986754 0.0824995127626004 0.0337656648170324	0.102234
H	0.3894083137368072 0.7227143767581072 0.5390112534309103	0.108532
H	0.5827803214726374 0.7165556631325100 0.5295367372507708	0.102791
H	0.0918901647130601 0.7154847285411311 0.4717035984569758	0.130209
H	0.9013132229847548 0.7205018538080877 0.5004860498160536	0.100459
H	0.7242193838531706 0.3891582216768468 0.5382348826263462	0.108281
H	0.7183115327747458 0.5829032231967657 0.5292808412945116	0.102622
H	0.6968049823358612 0.0918282364648540 0.4776650847729352	0.131548
H	0.7059804248489963 0.9010053165590157 0.5045638372940265	0.100385
H	0.1107960773609721 0.7687460289594958 0.9652420230902274	0.107557
H	0.9181729042584814 0.7706941482627410 0.9744425899323566	0.103167
H	0.4094188995917599 0.7949695214481152 0.0259030392644442	0.128642
H	0.6024464060358675 0.7898164050826931 -0.0060143842930230	0.095422
H	0.7956929417066458 0.4093816133586277 0.0250541140369859	0.128927
H	0.7898474515942976 0.6025140460643714 -0.0059626392919177	0.094584
H	0.7779944558559176 0.1109627926945257 0.9616721426288177	0.108098
H	0.7827356057777749 0.9178187267769798 0.9696112129703609	0.102990
N	0.7763090137046565 0.2713861925792337 0.3030786601575699	-0.119430
N	0.2749845767803850 0.7760529310211023 0.3012185728996549	-0.120102
N	0.7254411992376049 0.2271299512067385 0.1988989362329266	-0.106940
N	0.2268568841543825 0.7252972480196589 0.2009229887555880	-0.107439
N	0.2247623845287388 0.7381930104078978 0.6926704115938364	-0.106588
N	0.7321426998626843 0.2248552114015619 0.6948418703003522	-0.105764
N	0.2765142682691679 0.7650348779786716 0.8089554233845428	-0.115210
N	0.7657381787962863 0.2763783946501160 0.8072505363859240	-0.117398
N	0.4020548705741470 0.2463339521872846 0.2385363433715866	-0.177033
N	0.0996333130714127 0.2540860566438278 0.2599591533003230	-0.177032
N	0.2457904018799582 0.4018872416928517 0.2399421036795735	-0.177267
N	0.2554930879129520 0.0995607662783795 0.2597781146152492	-0.175356
N	0.5995425107297531 0.7526280905636569 0.7619215423313428	-0.175151
N	0.9017665599431396 0.7482500476627687 0.7378726588957545	-0.176473
N	0.7534067447515134 0.5995428383558677 0.7618031078119186	-0.174890
N	0.7467767513332084 0.9016187871392622 0.7373933454422195	-0.176998
F	0.3979170669112468 0.1943597446100766 0.7500834695625320	-0.604279
F	0.2047494826379232 0.3986758957426889 0.7508127646703652	-0.604828
F	0.1357582990023579 0.1410230288044419 0.7489680695662299	-0.616195
F	0.6984902968965374 0.8987999643703314 0.2524960663255729	-0.601977
F	0.8982655613347303 0.7018843313010336 0.2511878986549773	-0.599234
F	0.6383283414527200 0.6391416975598461 0.2381573996113164	-0.613274
F	0.2587864602122446 0.2574796568722664 0.5040052254269833	-0.564254
F	0.2439242538496120 0.2429644765167608 -0.0045240000900076	-0.564387
F	0.7408666256610690 0.7411525211141529 0.4941322478213713	-0.562055
F	0.7593042263095785 0.7599286013157353 0.0040576401464946	-0.555124
In	0.2485372361383226 0.2465611818561522 0.7494463199040509	1.537483
In	0.7470581086149219 0.7481728996674674 0.2488811395932537	1.532893
Co	0.2508277411802298 0.2506141267106912 0.2493358301984996	0.602821
Co	0.7505864458004567 0.7505067146768393 0.7495545747726579	0.600616
	  	
