#======================================================================

# CRYSTAL DATA

#----------------------------------------------------------------------

data_VESTA_phase_1


_pd_phase_name                         InFFIVE_7_Cu
_cell_length_a                         18.91622
_cell_length_b                         18.91736
_cell_length_c                         8.61858
_cell_angle_alpha                      89.66195
_cell_angle_beta                       90.33807
_cell_angle_gamma                      90.03071
_symmetry_space_group_name_H-M         P 1
_symmetry_Int_Tables_number            1

loop_
_symmetry_equiv_pos_as_xyz
   x, y, z

loop_
   _atom_site_label
   _atom_site_fract_x
   _atom_site_fract_y
   _atom_site_fract_z
   _atom_site_charge
C	0.6654463650586223 0.8685136325654204 0.6934631445198443	0.100550
C	0.6138714317082177 0.9208169199397638 0.6946395081826566	-0.173569
C	0.5822696879003461 0.8881541835893980 0.4347845111717737	-0.168674
C	0.6345079163113992 0.8369162517908064 0.4417723670655232	0.098207
C	0.8356185795515124 0.6314820670400617 0.6890487346865128	0.100965
C	0.8869386101851379 0.5790122814315187 0.6921796086749401	-0.173857
C	0.9180193549180643 0.6124358256472545 0.4324436703655501	-0.167689
C	0.8659837622860711 0.6639543417596665 0.4375321038497663	0.095355
C	0.6320774024660506 0.6637612679305057 0.6919376091378636	0.101286
C	0.5794722199246576 0.6124682584656758 0.6938401359580804	-0.172459
C	0.6111992940136995 0.5825131597983592 0.4333333947199898	-0.166479
C	0.6624692479580025 0.6348109722074676 0.4391755093156410	0.096086
C	0.8692433707796052 0.8335571035736943 0.6906222889854956	0.101073
C	0.9214685640086501 0.8852115727199461 0.6930557697513935	-0.173835
C	0.8866409053156038 0.9183618631736282 0.4345123374965840	-0.169869
C	0.8350674522092781 0.8663774575191838 0.4407961789990219	0.097704
C	0.3335580134227407 0.3692403958849251 0.3093918721536071	0.101003
C	0.3852092547063061 0.4214664625442856 0.3069571602230914	-0.173969
C	0.4183631951883279 0.3866402372413529 0.5655046734203802	-0.169883
C	0.3663812067839840 0.3350671592391242 0.5592165506013714	0.097767
C	0.1637584169999996 0.1320831677042231 0.3080717787820393	0.101385
C	0.1124686615250971 0.0794754241168260 0.3061655817296658	-0.172543
C	0.0825114577954457 0.1111995634206458 0.5666627626732562	-0.166431
C	0.1348068074860736 0.1624696309225055 0.5608224438230038	0.096203
C	0.3685142380516609 0.1654487271404140 0.3065474668590069	0.100409
C	0.4208162647422663 0.1138734677297254 0.3053708979058016	-0.173694
C	0.3881511189858420 0.0822745458188178 0.5652252376124672	-0.168442
C	0.3369129427107324 0.1345107277895368 0.5582356752000548	0.098015
C	0.1314811464559896 0.3356231781402218 0.3109594522672284	0.100775
C	0.0790105441591319 0.3869391376097129 0.3078282685426906	-0.173760
C	0.1124355717752551 0.4180184839624385 0.5675577932690414	-0.167839
C	0.1639529519772358 0.3659862686520239 0.5624683071420430	0.095442
C	0.4322733146506083 0.0709209366743179 0.4368594955976245	0.142386
C	0.4872859554441917 0.0169294175712866 0.4360786970393755	-0.120935
C	0.0677473869161843 0.4294362453489275 0.4387343780590723	0.142895
C	0.0125615500895266 0.4832531320062320 0.4364682544681823	-0.120224
C	0.4288450792629007 0.4319484750697697 0.4375698073237631	0.145118
C	0.4827746379184253 0.4870761049454080 0.4361217043788216	-0.123029
C	0.0704256688615604 0.0674448149066027 0.4377349130862015	0.140789
C	0.0164721345608721 0.0123179734374761 0.4363692456261644	-0.118093
C	0.5674414789760795 0.5704259671075271 0.5622696335768526	0.140732
C	0.5123092047664495 0.5164651572382413 0.5636328974819935	-0.117787
C	0.9319524079409371 0.9288464893099639 0.5624453678311647	0.145186
C	0.9870834597935891 0.9827826523432458 0.5638813934230250	-0.123026
C	0.5709167032792157 0.9322767668285925 0.5631496712031553	0.142299
C	0.5169227005416773 0.9872916232210716 0.5639191047692490	-0.120659
C	0.9294369209908362 0.5677487177575388 0.5612677230901382	0.142865
C	0.9832565007680273 0.5125594951507605 0.5635316042061472	-0.120143
H	0.6989752632913964 0.8584265760116536 0.7947282518273704	0.104031
H	0.6078526462734020 0.9528165614734493 0.7985654289215383	0.121502
H	0.5499623334767159 0.8925197589374595 0.3301077003712916	0.118519
H	0.6455984146648149 0.8022733294030104 0.3444187548445763	0.098575
H	0.8020513893013334 0.6423730839242178 0.7883729949588508	0.099475
H	0.8935686300239442 0.5468243878215175 0.7966027637483531	0.119117
H	0.9502983443361416 0.6087163765594787 0.3285019915683850	0.120864
H	0.8559206867484762 0.6988119761426160 0.3384842130445405	0.103694
H	0.6436830292801853 0.6958289139611901 0.7935037021671636	0.101369
H	0.5480066278038989 0.6057217586114544 0.7984679769176761	0.120667
H	0.6067498290495427 0.5509041753088638 0.3284770915484565	0.120273
H	0.6957483750592196 0.6464493448690007 0.3395594486966967	0.101682
H	0.8598436816750973 0.7984550158142271 0.7893111018471638	0.101176
H	0.9543872828736899 0.8909486066749766 0.7965299451203024	0.119952
H	0.8901050018452645 0.9515250021584899 0.3310314774919572	0.119550
H	0.7987752546231196 0.8568561603420906 0.3443033876658983	0.100878
H	0.2984584970536662 0.3598421023911187 0.2107055287590925	0.101196
H	0.3909516991005719 0.4543855918293087 0.2034892887149697	0.120043
H	0.4515234504394079 0.3901055664664337 0.6689820122810823	0.119561
H	0.3568646111752830 0.2987786979839499 0.6556989550822546	0.100844
H	0.1958259548620665 0.1436808899569062 0.2065042887085537	0.101288
H	0.1057220746551912 0.0480071826722079 0.2015461509813110	0.120708
H	0.0509040797934553 0.1067472187606236 0.6715203677675996	0.120264
H	0.1464427692199124 0.1957388511593804 0.6604442936559554	0.101676
H	0.3584334930534487 0.1989753792305541 0.2052900803509421	0.104117
H	0.4528152404872449 0.1078470583995369 0.2014514943233230	0.121523
H	0.3925131835460251 0.0499671859422095 0.6698882116371326	0.118473
H	0.3022718344095836 0.1455928831021349 0.6555878161626844	0.098563
H	0.1423718586438100 0.3020635876681654 0.2116365316624202	0.099542
H	0.0468221146029410 0.3935744425361756 0.2034115331725261	0.119043
H	0.1087166183882292 0.4502945233506458 0.6714976123163364	0.120885
H	0.1988040287369605 0.3559238961393051 0.6615221826157083	0.103664
H	0.5064930097416058 0.0017110301980005 0.3215568387223385	0.105556
H	0.9931430889502524 0.4988246498068462 0.3214611195990316	0.104749
H	0.4981511949554259 0.5064880781166472 0.3213760424843200	0.106164
H	0.0009827299092810 0.9930228659620036 0.3216804866172889	0.103843
H	0.4930192487472121 0.5009809154949715 0.6783394899245342	0.103738
H	0.0064919024577643 0.9981510023814287 0.6786517085275321	0.106191
H	0.5017096373524241 0.0065005381299393 0.6784597668737050	0.105453
H	0.9988247518233946 0.4931403424832546 0.6785506248383503	0.104707
Cu	0.2496947901064155 0.2498405366169961 0.4321841477432951	0.719590
Cu	0.7498381786933024 0.7496939652549385 0.5677976481541122	0.719639
In	0.2505058190669602 0.2504542278821528 0.9339540559778530	1.553667
In	0.7504652113712452 0.7505101038211706 0.0660048391729771	1.553524
F	0.2492445417412379 0.2502025509212550 0.1769657821626818	-0.596830
F	0.2503590099409658 0.2493821851754433 0.6908306248592977	-0.594877
F	0.7502119881464726 0.7492338429080041 0.8229961669052345	-0.596716
F	0.7493243497175425 0.7503800692092949 0.3091490854480255	-0.594937
F	0.1727435137782301 0.1751397235970794 0.9336812979940179	-0.630632
F	0.2248386861999583 0.3554033345444248 0.9324545172667360	-0.632186
F	0.3547679015442610 0.2220099366094115 0.9356163745812112	-0.631677
F	0.7220215179106406 0.8547721985973677 0.0643204545844410	-0.631639
F	0.8554371859527092 0.7249283361304520 0.0675231925114027	-0.632155
F	0.6752438253356456 0.6726505690758012 0.0661141984043959	-0.630558
N	0.3272244585710118 0.1753538201042421 0.4312903001038449	-0.223524
N	0.1730487104167109 0.3252623110128799 0.4361930992793572	-0.221815
N	0.3245340867438539 0.3267855214005397 0.4335314261733732	-0.220006
N	0.1747486353662074 0.1727212013502853 0.4336026993135053	-0.226870
N	0.6727096044874185 0.6747482244171147 0.5663971070557687	-0.226853
N	0.8267941582731870 0.8245364936948766 0.5664794239066060	-0.220106
N	0.6753453504912692 0.8272336942534677 0.5687180010259257	-0.223767
N	0.8252632845912903 0.6730436392612893 0.5638098206104065	-0.221996
	  	
