#======================================================================

# CRYSTAL DATA

#----------------------------------------------------------------------

data_VESTA_phase_1


_pd_phase_name                         InFFIVE_5_Co_i
_cell_length_a                         19.76872
_cell_length_b                         19.76876
_cell_length_c                         16.54888
_cell_angle_alpha                      90.03098
_cell_angle_beta                       90.03077
_cell_angle_gamma                      90.06654
_symmetry_space_group_name_H-M         P 1
_symmetry_Int_Tables_number            1

loop_
_symmetry_equiv_pos_as_xyz
   x, y, z

loop_
   _atom_site_label
   _atom_site_fract_x
   _atom_site_fract_y
   _atom_site_fract_z
   _atom_site_charge
F	0.2939316786640589 0.1541621473748778 0.3545658420680897	-0.620268
F	0.1506472764024351 0.2619798985861666 0.3544656406118128	-0.630117
F	0.3187303615612118 0.3279698558799839 0.3544200715833702	-0.625897
F	0.6720598037851195 0.6812488942306003 0.1455687133266253	-0.625730
F	0.7379813772975911 0.8493375979395936 0.1455739981382990	-0.629972
F	0.8458616953732244 0.7060297914861594 0.1454787627573047	-0.620249
F	0.6504656486178304 0.7621654808711940 0.6522201492561109	-0.629716
F	0.7937409409258953 0.6542619680129084 0.6509109566440214	-0.620777
F	0.8187466633427353 0.8277763646327639 0.6523924833155925	-0.625710
F	0.1722270552103883 0.1812425083003135 0.8476150358372065	-0.625742
F	0.3457377770775020 0.2062488693886338 0.8491183968665451	-0.620820
F	0.2378557230699503 0.3495316920787866 0.8477927333341732	-0.629724
F	0.2496925950466292 0.2497386755809004 0.4802849096357352	-0.560118
F	0.2496638306549367 0.2490603858939339 0.2288682792437572	-0.564410
F	0.7502820980917728 0.7503024053643421 0.0197160838066719	-0.559934
F	0.7509397720002623 0.7503259098744128 0.2711372915330014	-0.564283
F	0.7496418353703487 0.7497852148977029 0.5260546089010238	-0.565668
F	0.7498977720178875 0.7488005482152856 0.7777839019025059	-0.560760
F	0.2501848742064132 0.2503550394435545 0.9739540005055880	-0.565653
F	0.2511953535725388 0.2501017239598272 0.7222245428917354	-0.560809
N	0.3558675036223992 0.2466312592877324 0.6003098504697018	-0.193678
N	0.1441709301323977 0.2542535732365320 0.6016601887822030	-0.192835
N	0.2517136115776979 0.3559091136084899 0.6013642613103199	-0.191832
N	0.2475094078291654 0.1441758425413605 0.6022589996710099	-0.195186
N	0.6440882963289239 0.7482776802879584 0.8986519867105679	-0.192107
N	0.8558312435340346 0.7524946121101234 0.8977343362673439	-0.195104
N	0.7457429056847982 0.8558314348526458 0.8983305408839941	-0.192822
N	0.7533775873806154 0.6441323291908128 0.8997062785344880	-0.193607
N	0.6493226196693269 0.7526263054874963 0.3978607621189982	-0.187911
N	0.8506655796158310 0.7479904209670752 0.3988745500298347	-0.187961
N	0.7473604392353557 0.6492428193062212 0.3977337873832163	-0.187049
N	0.7521641222141292 0.8509215154656804 0.3985431869638841	-0.187826
N	0.3507571757204239 0.2526398084483567 0.1022639249654819	-0.187073
N	0.1490759741150322 0.2478391742456457 0.1014635632604433	-0.187707
N	0.2520101560502971 0.1493375804517879 0.1011259483432089	-0.188072
N	0.2473720034682262 0.3506749308649855 0.1021364943814074	-0.187808
C	0.3891293044445230 0.2184268303262182 0.6626940307605633	0.095425
C	0.4591406483956659 0.2174653778679188 0.6667911854724715	-0.176879
C	0.4969657233281313 0.2470334896254226 0.6045104122995139	0.100448
C	0.4616002501956467 0.2763552513360215 0.5399018602354965	-0.181446
C	0.3914648274105496 0.2751170583868223 0.5398547967503586	0.094296
C	0.5710617478466299 0.2479622961333117 0.6076014662012877	0.056349
C	0.6068297259889635 0.1918494584343874 0.6370815961113953	-0.130457
C	0.6769815188937889 0.1925391093031427 0.6395279170544466	-0.127333
C	0.7129517205005265 0.2498861134647943 0.6138469931444810	0.068188
C	0.6772058873577098 0.3064417297156908 0.5856291700703536	-0.123891
C	0.6070946500575597 0.3052063864540576 0.5818244645724022	-0.123962
C	0.1109782984319276 0.2823937469887925 0.6640656995625653	0.097804
C	0.0409854189411429 0.2829728688228802 0.6685091604461219	-0.179155
C	0.0031150464269026 0.2530629693141527 0.6062906570183191	0.105151
C	0.0383787417628357 0.2242697098781892 0.5413925972472978	-0.177057
C	0.1084524387104855 0.2260726637992371 0.5411732509711774	0.103540
C	0.9290184345857544 0.2521167606750869 0.6090265048287112	0.054335
C	0.8931185332079188 0.3083467581536381 0.6379879693657314	-0.128164
C	0.8229644906320034 0.3076788371816768 0.6398635663220388	-0.128122
C	0.7871049011487083 0.2502808211035337 0.6140520465060427	0.069828
C	0.8229670774874130 0.1937119043737868 0.5860363809505917	-0.122790
C	0.8930921561865921 0.1949055321750208 0.5828216958200313	-0.124826
C	0.2802814094619698 0.3892241838714556 0.6634799821117546	0.103382
C	0.2820235017217769 0.4592015324151760 0.6672601934236085	-0.176451
C	0.2527840603063048 0.4969721530628096 0.6047597990903451	0.105136
C	0.2232276080272041 0.4616139777639400 0.5402087542483044	-0.181833
C	0.2238033097852366 0.3915187200097031 0.5407262878372118	0.098787
C	0.2521388066536391 0.5710522543324114 0.6076648477490585	0.055654
C	0.3082974486111616 0.6069441744374334 0.6371177716299014	-0.129320
C	0.3075712946887913 0.6770939053634847 0.6395884338773067	-0.127134
C	0.2501729950673567 0.7129217556207857 0.6139878726942420	0.069069
C	0.1936050367374382 0.6770445567352915 0.5857449382345871	-0.123360
C	0.1948651750613240 0.6069487552398473 0.5819252978396457	-0.124870
C	0.2188242865463599 0.1109982927584146 0.6645070467808452	0.094891
C	0.2175420853028415 0.0409580935666903 0.6684112026979685	-0.180532
C	0.2471392322568622 0.0030712065896821 0.6061184075476005	0.102487
C	0.2762739119012673 0.0383830005819345 0.5414234723428379	-0.181217
C	0.2753126794539429 0.1085108067631448 0.5414881449946137	0.096872
C	0.2477995122608367 0.9289610341584005 0.6087786632236191	0.055261
C	0.1916127918318547 0.8929682413339717 0.6378812796561613	-0.129998
C	0.1923307171737507 0.8228051225030747 0.6398866255250149	-0.126792
C	0.2497321231105836 0.7870702853544888 0.6141550574440248	0.068422
C	0.3062677737290409 0.8230302824848234 0.5860531442414767	-0.122876
C	0.3049985712184068 0.8931427473718606 0.5826720836261067	-0.125166
C	0.6107759620158517 0.7197156173629241 0.8365328984782868	0.103443
C	0.5408006745544736 0.7179772554556203 0.8327450799127214	-0.176169
C	0.5030258078652990 0.7472153652713273 0.8952434430923145	0.105188
C	0.5383814719165977 0.7767694665985685 0.9597937112407693	-0.182039
C	0.6084749097933940 0.7761874773797873 0.9592853592998315	0.099134
C	0.4289457949891036 0.7478631435302321 0.8923324961978981	0.055504
C	0.3930542183731169 0.6917046138982025 0.8628801101940028	-0.129227
C	0.3229053524588015 0.6924316206334753 0.8604106623237265	-0.126988
C	0.2870778634075108 0.7498274181668518 0.8860125673568874	0.069052
C	0.3229540107618279 0.8063944404663581 0.9142543451826868	-0.123232
C	0.3930489009507772 0.8051358157227317 0.9180729108360446	-0.124804
C	0.8890097187249251 0.7811791919688724 0.8354866213800785	0.094927
C	0.9590502101935147 0.7824549350314861 0.8315806588563177	-0.180546
C	0.9969302140021123 0.7528589536555471 0.8938727091032685	0.102569
C	0.9616204531093864 0.7237292979271466 0.9585694132373751	-0.181245
C	0.8914932962251482 0.7246909838032568 0.9585035825864856	0.096893
C	0.0710411086566340 0.7522004368462295 0.8912167527464524	0.055180
C	0.1070346559462362 0.8083871163516668 0.8621170182383265	-0.129920
C	0.1771990765171270 0.8076697305214106 0.8601142173382637	-0.126779
C	0.2129311933049365 0.7502692691821616 0.8858454218342455	0.068377
C	0.1769731920158918 0.6937331418257578 0.9139460757629029	-0.122815
C	0.1068605681028237 0.6950031201022604 0.9173236875152029	-0.125219
C	0.7176027075970616 0.8890248109059086 0.8359267725965007	0.097872
C	0.7170251113279451 0.9590178732694709 0.8314836345158977	-0.179148
C	0.7469385022604504 0.9968843356897696 0.8937002908124390	0.105104
C	0.7757290929115133 0.9616198987178660 0.9585989025031710	-0.176909
C	0.7739224654866560 0.8915470719104027 0.9588210809107044	0.103588
C	0.7478832286757967 0.0709809136317983 0.8909691832707025	0.054348
C	0.6916530688406605 0.1068818859217380 0.8620099991207046	-0.128227
C	0.6923198229134008 0.1770361486948202 0.8601357825366139	-0.127917
C	0.7497184591697289 0.2128961496788425 0.8859470571604735	0.069794
C	0.8062865799174004 0.1770339596151611 0.9139642646852704	-0.122803
C	0.8050941854175458 0.1069082725252432 0.9171768524943914	-0.124795
C	0.7815832660552532 0.6108755181808256 0.8373177613087939	0.095420
C	0.7825369685438289 0.5408651530871099 0.8332169241710764	-0.176669
C	0.7529685292749910 0.5030374992685294 0.8954941507785641	0.100537
C	0.7236480870383140 0.5383986121092083 0.9601048421814478	-0.181438
C	0.7248882359007657 0.6085329625928001 0.9601574976564408	0.094303
C	0.7520361009394848 0.4289426579008394 0.8923970183967471	0.056311
C	0.8081489350683381 0.3931711098219012 0.8629171646315855	-0.130515
C	0.8074606678446027 0.3230181450595913 0.8604703938425965	-0.127204
C	0.7501132928589530 0.2870489846556593 0.8861527030866100	0.068137
C	0.6935560832072545 0.3227944208546956 0.9143695245862256	-0.123792
C	0.6947930013077255 0.3929064102122967 0.9181726498732630	-0.123943
C	0.6153493960008570 0.7810532145743381 0.3357361363384431	0.093482
C	0.5451135220918347 0.7823887373500614 0.3320845979346779	-0.176868
C	0.5063283183546630 0.7527242264679003 0.3938448259763816	0.105097
C	0.5425678683139722 0.7238623734531927 0.4582409618327809	-0.173688
C	0.6128865240266594 0.7251911265305881 0.4586001901301395	0.096823
C	0.4314867296926236 0.7520065543573573 0.3912293157193874	0.054512
C	0.3946859019012511 0.8078946531380268 0.3623257011856744	-0.129278
C	0.3242196702020749 0.8073130111934839 0.3606869365404965	-0.125219
C	0.2874634302070819 0.7503034840644651 0.3864902681774370	0.070628
C	0.3242218789814608 0.6940485654893014 0.4142977482590031	-0.122602
C	0.3946432156929056 0.6951884158780596 0.4173907194255049	-0.122496
C	0.8847128999497276 0.7196272484328678 0.3367477826598172	0.092157
C	0.9549573598119266 0.7180570974867471 0.3335094700300478	-0.175834
C	0.9937112893642920 0.7474143592842607 0.3955039649868932	0.103837
C	0.9573658345004816 0.7767987587971565 0.4595769003627556	-0.179069
C	0.8869873578278855 0.7759153062587921 0.4596260657526504	0.090188
C	0.0685617168752552 0.7481250910822829 0.3926108624155865	0.054742
C	0.1052077062907856 0.6923066506599904 0.3631898409763246	-0.128322
C	0.1756635212140600 0.6928956267967642 0.3610128067148802	-0.126614
C	0.2125742508285639 0.7498945982590900 0.3867076709412713	0.067971
C	0.1759724937546132 0.8061591716323960 0.4147706365436170	-0.121331
C	0.1055667760164795 0.8050010018677569 0.4184251427205136	-0.125372
C	0.7189392859570295 0.6152392160256130 0.3354193315499052	0.089753
C	0.7176250931502584 0.5449568916526489 0.3319145944002485	-0.177287
C	0.7472125337867709 0.5062472650163764 0.3937449200079061	0.102407
C	0.7761106044863968 0.5425444144042166 0.4581575741651018	-0.176891
C	0.7748833655880263 0.6128902071782502 0.4585801538967751	0.089969
C	0.7479199056573821 0.4313981228500815 0.3911289073369607	0.055748
C	0.6920108526772658 0.3944983819552065 0.3621456380434345	-0.129747
C	0.6926401945589395 0.3240418898639498 0.3604333550174179	-0.125381
C	0.7496980691660010 0.2874589491585711 0.3862224680501534	0.069625
C	0.8059634037902738 0.3243067931201830 0.4141323400263933	-0.122206
C	0.8047646066158279 0.3947138196377999 0.4173263568077700	-0.123712
C	0.7803227348716001 0.8850156248316079 0.3363765263132746	0.098695
C	0.7819290084853810 0.9552390405135334 0.3330303628171999	-0.173978
C	0.7527171540134655 0.9938873473639742 0.3950709913421409	0.107125
C	0.7234231700829153 0.9575894385975169 0.4592212146716442	-0.178716
C	0.7243854204168642 0.8872635250721469 0.4591798113681920	0.093939
C	0.7519890393942259 0.0686962246723767 0.3922213589485807	0.053947
C	0.8078105182414915 0.1054507768325913 0.3629034747472559	-0.129310
C	0.8071812024978365 0.1758956313878019 0.3607530668109105	-0.125022
C	0.7501564296150200 0.2125987834026620 0.3864006843569303	0.069946
C	0.6939132121248124 0.1758754552825276 0.4144427012164165	-0.123044
C	0.6951042130989076 0.1054878134977542 0.4180486513623364	-0.122893
C	0.3847618576443890 0.2810607277743273 0.1645759723668321	0.089898
C	0.4550448667152879 0.2823758134451049 0.1680821957843917	-0.177364
C	0.4937537918527569 0.2527874791936714 0.1062532625252688	0.102329
C	0.4574576784894527 0.2238890815055644 0.0418415804013388	-0.176920
C	0.3871109161126683 0.2251162593180857 0.0414195918323235	0.089906
C	0.5686051713008785 0.2520788161187656 0.1088711375153487	0.055736
C	0.6055042057083835 0.3079891068335219 0.1378543913894250	-0.129651
C	0.6759602745910546 0.3073588243440087 0.1395659471707629	-0.125497
C	0.7125418115352300 0.2503014580998117 0.1137767106088843	0.069665
C	0.6756956135110396 0.1940357583594387 0.0858673568275742	-0.122210
C	0.6052890642850228 0.1952341315726637 0.0826731549546214	-0.123799
C	0.1149801642658412 0.2196783635555477 0.1636258176940968	0.098508
C	0.0447564825362720 0.2180720065559672 0.1669692521436088	-0.174008
C	0.0061107500283955 0.2472843805069375 0.1049271502958721	0.107070
C	0.0424103439578465 0.2765793132114648 0.0407788679645115	-0.178786
C	0.1127357619445514 0.2756173672453425 0.0408255219999629	0.093912
C	0.9313001532317139 0.2480104910468102 0.1077745159572748	0.054062
C	0.8945464802778372 0.1921881606925830 0.1370932744814772	-0.129409
C	0.8241024486366804 0.1928185679736989 0.1392471325802132	-0.125052
C	0.7874009763519677 0.2498434224819290 0.1135994103915507	0.069958
C	0.8241221710206681 0.3060867523550004 0.0855565070056070	-0.123231
C	0.8945086441037440 0.3048959043419826 0.0819474493414028	-0.123013
C	0.2803717889454593 0.1152909243104584 0.1632508509666782	0.092146
C	0.2819448605760841 0.0450462911175333 0.1664879612262353	-0.175843
C	0.2525857283662080 0.0062932276156768 0.1044926559293971	0.103913
C	0.2232021079967683 0.0426395142870829 0.0404195353658589	-0.179070
C	0.2240840515261000 0.1130171727047349 0.0403731462238814	0.090257
C	0.2518760899756419 0.9314402569211673 0.1073849955136259	0.054800
C	0.3076946770682636 0.8947949635515952 0.1368076339575773	-0.128514
C	0.3071051928678159 0.8243384412390906 0.1389844371455165	-0.126457
C	0.2501056365040498 0.7874274813699360 0.1132905380182057	0.067781
C	0.1938404573633369 0.8240287419624779 0.0852272046364710	-0.121398
C	0.1949992517610834 0.8944351411397267 0.0815707108637626	-0.125374
C	0.2189430237823916 0.3846500880741507 0.1642578422732965	0.093440
C	0.2176078794241735 0.4548855040475823 0.1679104743831746	-0.176794
C	0.2472749712993946 0.4936699595587051 0.1061522240023624	0.105083
C	0.2761369456879307 0.4574295739605488 0.0417546417280316	-0.173635
C	0.2748047312336773 0.3871111023791053 0.0413975698420344	0.096727
C	0.2479906820393198 0.5685132428378205 0.1087658927729155	0.054509
C	0.1921015630181599 0.6053148861671970 0.1376707052994637	-0.129310
C	0.1926848761782549 0.6757810597236351 0.1393114563992579	-0.125244
C	0.2496954540039077 0.7125374085409001 0.1135092817412732	0.070695
C	0.3059505764724690 0.6757788389132749 0.0857011782505095	-0.122694
C	0.3048090268538450 0.6053575932738009 0.0826052056379656	-0.122438
H	0.3586420139100551 0.1980348259473510 0.7119002706606256	0.102352
H	0.4835254101304143 0.1957603607691590 0.7198171676691295	0.118965
H	0.4884166442357026 0.2991026681152321 0.4891935501439258	0.117017
H	0.3624204783216258 0.2970626194395007 0.4902083578270061	0.100408
H	0.5790065594573468 0.1471179304246514 0.6567205574472370	0.100276
H	0.7046369392396628 0.1489230027845168 0.6626080558361565	0.102405
H	0.7050451590713409 0.3506415094077714 0.5643907811673226	0.102851
H	0.5795861903633714 0.3492532731215616 0.5597542731894748	0.101116
H	0.1424203377227969 0.3041890530278347 0.7115904484197025	0.096297
H	0.0160684265394668 0.3049639782968685 0.7210048221195962	0.115758
H	0.0115748153457360 0.2021973227145782 0.4902145733471109	0.117542
H	0.1374732850916101 0.2062254914622506 0.4905270450191198	0.100045
H	0.9208128696541910 0.3532051120420156 0.6575588703108923	0.099573
H	0.7952359104968524 0.3513748238396319 0.6625909330735649	0.104113
H	0.7952329359439479 0.1495014890258378 0.5645512474820614	0.102516
H	0.9206734665656772 0.1508355002515454 0.5609526404639316	0.102729
H	0.3001724165429099 0.3582676455727404 0.7123813484440230	0.099737
H	0.3038240723609848 0.4838859918216180 0.7200818681093137	0.118343
H	0.2010123335614880 0.4886128493470868 0.4893297129650391	0.115901
H	0.2018395597441150 0.3619220905410404 0.4916593789061056	0.096481
H	0.3530844592692998 0.5792611987527951 0.6567129164343448	0.099173
H	0.3512017849639548 0.7048746591412914 0.6626266963638885	0.103662
H	0.1493628341380848 0.7047528204815434 0.5645482477052396	0.102994
H	0.1507670465465012 0.5793230954142833 0.5599895940471774	0.101525
H	0.1973016574601734 0.1418037837938253 0.7128745337479716	0.101394
H	0.1950757963013070 0.0163036106445620 0.7208183283564399	0.117471
H	0.2982371795994707 0.0117729474327142 0.4900909410360651	0.118368
H	0.2959116737980036 0.1371428174282482 0.4907637795807726	0.102578
H	0.1468212099831080 0.9205760065937799 0.6575882682287307	0.100696
H	0.1486990555285263 0.7949609433292149 0.6627423688215843	0.102552
H	0.3505042024475011 0.7954154601375927 0.5646699265602112	0.102976
H	0.3490112459245646 0.9208643565100781 0.5607691178885235	0.102634
H	0.6417315127755635 0.6998199794973373 0.7876294481507498	0.099855
H	0.5161169017738496 0.6961825185001291 0.7799210209773160	0.118253
H	0.5113840889722158 0.7989915504482493 0.0106699115903155	0.116027
H	0.6380718258131544 0.7981506743578640 0.0083545469676634	0.096472
H	0.4207384881094770 0.6469190521807398 0.8432840686468343	0.099130
H	0.2951282496065843 0.6487995038201729 0.8373721863771013	0.103673
H	0.2952445281436512 0.8506360218357342 0.9354515862635798	0.102970
H	0.4206718641363714 0.8492341243250138 0.9400084103735853	0.101429
H	0.8582061280663119 0.8027028651522388 0.7871179561238791	0.101495
H	0.9837051709735339 0.8049206218373994 0.7791775536137271	0.117534
H	0.9882318227489516 0.7017652788827801 0.0098953832426464	0.118464
H	0.8628635212180579 0.7040909321978496 0.0092313145492851	0.102647
H	0.0794285674955550 0.8531780767049563 0.8424114116797128	0.100671
H	0.2050419480599514 0.8513020868694956 0.8372583923843357	0.102637
H	0.2045836972202368 0.6494953492878001 0.9353296236309940	0.103038
H	0.0791380343030109 0.6509911315151752 0.9392258580681792	0.102594
H	0.6958044956386277 0.8575798887460475 0.7884047514810203	0.096382
H	0.6950367605661917 0.9839336316979462 0.7789881517195161	0.115850
H	0.7978034680459011 0.9884248715315715 0.0097776769827220	0.117603
H	0.7937678192483402 0.8625243266988750 0.0094644761129127	0.099955
H	0.6467939584337336 0.0791865427789521 0.8424390138924412	0.099544
H	0.6486250228669997 0.2047674564006704 0.8374075468055168	0.104087
H	0.8504976357256131 0.2047694030211155 0.9354492530348631	0.102568
H	0.8491634501426972 0.0793250542798547 0.9390465838716386	0.102708
H	0.8019758730930733 0.6413624959262223 0.7881125021755224	0.102387
H	0.8042323798929583 0.5164766238299917 0.7801870277552088	0.118879
H	0.7008941171004790 0.5115811110326834 0.0108030607757391	0.117060
H	0.7029437748881637 0.6375781647640607 0.0098063123286528	0.100525
H	0.8528798105712980 0.4209973063705328 0.8432794882348360	0.100302
H	0.8510780759395987 0.2953628647692189 0.8373898225552328	0.102417
H	0.6493563309267470 0.2949525753687657 0.9356068981386430	0.102895
H	0.6507457467785094 0.4204166365679216 0.9402432417227172	0.101058
H	0.6464716059852446 0.8021665073421864 0.2877097464208141	0.099521
H	0.5209386145658409 0.8051242948443063 0.2795095668102043	0.116308
H	0.5164995484063388 0.7018013223269768 0.5099296481512438	0.119004
H	0.6417218116540275 0.7056610784447763 0.5094661657491937	0.102592
H	0.4218200907784531 0.8529618938770294 0.3422966419383750	0.099118
H	0.2970178435476148 0.8513453668543055 0.3378912625213185	0.102784
H	0.2970579593672128 0.6495274487302216 0.4359085737017862	0.102693
H	0.4216765869750805 0.6507998047028560 0.4394108850411512	0.102091
H	0.8545636629665367 0.6997116876351677 0.2870317998172333	0.102420
H	0.9786130001229626 0.6957102502811939 0.2803699114641098	0.119840
H	0.9834397341318872 0.7996532969400800 0.5108701825327879	0.117486
H	0.8581959424409493 0.7974387873609803 0.5095920325587613	0.102446
H	0.0779192797733920 0.6473138577338938 0.3431145334442305	0.099626
H	0.2027538708019821 0.6489043047259724 0.3378662636322786	0.101711
H	0.2032831853067095 0.8507047808781580 0.4361674319584772	0.102991
H	0.0786562470764460 0.8493826303520151 0.4406980091568889	0.101889
H	0.6978440155124181 0.6456812441731109 0.2866001414792069	0.101645
H	0.6948281582831105 0.5208599184880004 0.2792732002679494	0.118313
H	0.7983443693314738 0.5166198491619212 0.5098354347530555	0.119795
H	0.7949481150755817 0.6412014988561981 0.5098338801343447	0.104044
H	0.6469415916826029 0.4215652544947969 0.3421051319570346	0.100043
H	0.6486450682058457 0.2967029165271652 0.3375471302346753	0.101475
H	0.8504925478279065 0.2972383453044092 0.4357560551643720	0.102913
H	0.8490971935770034 0.4219036501294000 0.4394771745146228	0.102403
H	0.7998519566776143 0.8543512372953476 0.2870984281517809	0.100546
H	0.8039436300660234 0.9793479819569724 0.2800128460292892	0.118792
H	0.7008296593143019 0.9839414334570125 0.5103654742334678	0.116313
H	0.7031284473192346 0.8580021627635228 0.5087780039364940	0.099121
H	0.8528488140633564 0.0782657612083912 0.3430349024332496	0.099013
H	0.8511513869085717 0.2031105170325233 0.3377046943336346	0.102398
H	0.6494157996263384 0.2030749587675303 0.4358766474365300	0.102952
H	0.6507402972785563 0.0784182436235912 0.4402215963604968	0.101517
H	0.3543256688686889 0.3021581937316457 0.2133984180752321	0.101610
H	0.4791439675046103 0.3051729542967677 0.2207221083588149	0.118349
H	0.4833831309582534 0.2016538951609486 0.9901655351880891	0.119833
H	0.3588053233761346 0.2050515146294173 0.9901622814208833	0.104093
H	0.5784375233175862 0.3530576144230132 0.1578928572236145	0.100014
H	0.7032967715289985 0.3513539732545127 0.1624515785132294	0.101444
H	0.7027625629429769 0.1495068052571556 0.0642454722224321	0.102861
H	0.5781005875527986 0.1509015386575857 0.0605226288302791	0.102298
H	0.1456388635795983 0.2001477079023130 0.2129076274516883	0.100613
H	0.0206446504407503 0.1960558727980553 0.2199839903113410	0.118880
H	0.0160556643744012 0.2991698202581142 0.9896354941505946	0.116320
H	0.1419936187211504 0.2968720978794208 0.9912241428878137	0.099184
H	0.9217305251303712 0.1471503408251623 0.1569620797765631	0.098974
H	0.7968885901988548 0.1488487671041933 0.1622941251781319	0.102413
H	0.7969247918238789 0.3505836348864437 0.0641222790994841	0.103008
H	0.9215788999098209 0.3492586918775087 0.0597764459814934	0.101501
H	0.3002848793894362 0.1454391818615424 0.2129683460799566	0.102383
H	0.3042898778329913 0.0213873294513208 0.2196242362311590	0.119876
H	0.2003490391126223 0.0165662271464829 0.9891265841671365	0.117465
H	0.2025607822948931 0.1418098003177941 0.9904087680161695	0.102427
H	0.3526889388334063 0.9220849706053446 0.1568823265806994	0.099679
H	0.3510937559219678 0.7972475936378838 0.1621324159880453	0.101661
H	0.1492957336327661 0.7967172048306690 0.0638334635973215	0.102995
H	0.1506169856784064 0.9213472646515399 0.0592985098184735	0.101806
H	0.1978323505256331 0.3535269831757698 0.2122844801078122	0.099478
H	0.1948701503615007 0.4790605533533860 0.2204823162515823	0.116278
H	0.2981961282710551 0.4834986152776333 0.9900679149416994	0.118982
H	0.2943386644902192 0.3582772460709610 0.9905323207715779	0.102591
H	0.1470338984822482 0.5781796553638824 0.1577000871508667	0.099035
H	0.1486548835145851 0.7029848105380513 0.1621073239956952	0.102787
H	0.3504704412431945 0.7029417236202927 0.0640922148943288	0.102679
H	0.3491987849316823 0.5783214581138409 0.0605878986102753	0.102002
Co	0.2500663847920233 0.2499618673007215 0.6010815193261771	0.588012
Co	0.7500383767565345 0.7499353886199926 0.8989194589722703	0.587986
Co	0.7499802217211291 0.7500590034241758 0.3987881320937598	0.580431
Co	0.2499387046249153 0.2500163170343372 0.1012123615415290	0.580628
In	0.2529025303837600 0.2487381298807915 0.3540689914611384	1.558174
In	0.7512750117748720 0.7470860486350592 0.1459289591463401	1.557858
In	0.7526492541282724 0.7488271934340567 0.6511897663323315	1.558677
In	0.2511785839051673 0.2473480248276085 0.8488192814473158	1.558860
	  	
