#======================================================================

# CRYSTAL DATA

#----------------------------------------------------------------------

data_VESTA_phase_1


_pd_phase_name                         InFFIVE_6_Co_i
_cell_length_a                         17.43909
_cell_length_b                         17.44633
_cell_length_c                         16.76105
_cell_angle_alpha                      89.98995
_cell_angle_beta                       89.99361
_cell_angle_gamma                      89.97771
_symmetry_space_group_name_H-M         P 1
_symmetry_Int_Tables_number            1

loop_
_symmetry_equiv_pos_as_xyz
   x, y, z

loop_
   _atom_site_label
   _atom_site_fract_x
   _atom_site_fract_y
   _atom_site_fract_z
   _atom_site_charge
N	0.2440539046722959 0.1372599787024418 0.1276282142450797	-0.192211
N	0.2563459024076338 0.3625206763568275 0.1283347261547765	-0.192688
N	0.3624855407797540 0.2436603557522136 0.1281597312238233	-0.192473
N	0.1375901147578956 0.2558584997118607 0.1274573967572797	-0.192132
N	0.7563930905923856 0.6373294501465808 0.3717332493031481	-0.192979
N	0.7440920253378156 0.8625922392281095 0.3725427714301340	-0.191804
N	0.6376344044424185 0.7436406176988821 0.3717289835657750	-0.192536
N	0.8625442383951432 0.7559402268369009 0.3722269658620601	-0.191680
N	0.7564487709536718 0.8625157435857743 0.8718150605407248	-0.192551
N	0.7440644567327184 0.6372892953455552 0.8721093960440911	-0.192150
N	0.6376354467726957 0.7559244763330031 0.8724496821259504	-0.191919
N	0.8624543740292868 0.7435888150076929 0.8717051246450368	-0.192821
N	0.2440353300488497 0.3625752052082843 0.6274963427713339	-0.192266
N	0.2564580527566608 0.1373260160326301 0.6282610351185965	-0.193080
N	0.3625108150630726 0.2559151475565583 0.6278332914069308	-0.191522
N	0.1376729759929978 0.2436123355825458 0.6282373198984689	-0.192621
C	0.2025942441559437 0.0999959073539431 0.1834611467345370	0.097588
C	0.1942426100000365 0.0209288905232240 0.1829833117395984	-0.176101
C	0.2320404051418731 0.9773196332407978 0.1248199706627397	0.113333
C	0.2766059809096427 0.0165975598909083 0.0684744118923797	-0.178134
C	0.2803322064664274 0.0960006327834980 0.0709130289680808	0.095809
C	0.2259707838155720 0.8932423519903604 0.1236032278094965	0.060545
C	0.2915316340557389 0.8486029375851515 0.1205819831277702	-0.175302
C	0.2870082715106304 0.7677777334078361 0.1218341733136114	0.084736
C	0.1463792244400130 0.7789032032158445 0.1244186021684169	-0.124783
C	0.1527792376246166 0.8574836853617778 0.1266801807167563	-0.135013
C	0.2975836604706050 0.3996371059071544 0.1846047346155862	0.091818
C	0.3057981103598592 0.4787839959841241 0.1841410710194721	-0.178396
C	0.2681017307113173 0.5225005686656121 0.1258895100861079	0.107279
C	0.2241680961987861 0.4832539347638169 0.0690856808566268	-0.176307
C	0.2206652308893795 0.4037906028072450 0.0711162293152432	0.092238
C	0.2740858391921128 0.6066140396960762 0.1244885287511254	0.061779
C	0.2084860284784783 0.6512114449286058 0.1211596771639649	-0.175013
C	0.2129240030411443 0.7320652564374996 0.1219434831421454	0.085013
C	0.3535287350729456 0.7209699693251096 0.1245648332117498	-0.124615
C	0.3472636497613842 0.6423996634502693 0.1272972055425954	-0.137934
C	0.3996129680234451 0.2019265960582436 0.1839426049724719	0.090246
C	0.4787438499174188 0.1939020413261013 0.1837607351037802	-0.177654
C	0.5224865266011053 0.2321362618693078 0.1258977516301610	0.111125
C	0.4832254062101157 0.2762819403874808 0.0692816382714158	-0.171642
C	0.4037941470082881 0.2797121731532513 0.0713847273432872	0.099110
C	0.6065995330630545 0.2261330139598327 0.1245529247775797	0.061167
C	0.6512807877319255 0.2916238336387852 0.1212692106000812	-0.174933
C	0.7321585535158037 0.2869770389177634 0.1219916425450965	0.085653
C	0.7208774164127520 0.1464603720677310 0.1245308967748554	-0.123666
C	0.6423164652777077 0.1529240332105307 0.1272958974949237	-0.136107
C	0.1002538633468821 0.2968745155147406 0.1836959834783705	0.093004
C	0.0211240613850242 0.3050857155799278 0.1830827919737823	-0.177323
C	0.9775982789113365 0.2676027271863726 0.1246495847256431	0.108110
C	0.0170458151805189 0.2234742095860902 0.0680227766972819	-0.179273
C	0.0965292074524546 0.2198882132553118 0.0703004892490373	0.090943
C	0.8934616763053470 0.2736717817584671 0.1234519247831430	0.062177
C	0.8487027190521431 0.2082522010696209 0.1204360242661372	-0.175630
C	0.7678395104560380 0.2128551148809938 0.1217982721161084	0.084786
C	0.7791472021862640 0.3533578781679561 0.1244801132542860	-0.126395
C	0.8577311909905811 0.3468847135074316 0.1266350821534240	-0.137291
C	0.7982576279206876 0.6002061477721262 0.3160510405381801	0.090560
C	0.8064408520042166 0.5210994446217978 0.3163204112361224	-0.177831
C	0.7682000811738030 0.4773730727816549 0.3741580309588944	0.111334
C	0.7238449355732393 0.5165850888662407 0.4306354932251619	-0.172354
C	0.7202973960185125 0.5959966979806149 0.4284732777946696	0.099066
C	0.7742165223365050 0.3932741159686421 0.3755296757984192	0.060903
C	0.7085970151660733 0.3487471576387692 0.3787946098651249	-0.175118
C	0.7130654929296489 0.2678983300614552 0.3780665470685155	0.084953
C	0.8536777705857251 0.2788655266471122 0.3755436018865141	-0.123681
C	0.8473973736844397 0.3574373001215139 0.3727932701881355	-0.135396
C	0.7029187826680779 0.8999174486654852 0.3163962325727825	0.091917
C	0.6945164336025449 0.9790196189965497 0.3170886807417758	-0.177424
C	0.7320591915840149 0.0225546497857850 0.3754505255121591	0.109940
C	0.7764063532991408 0.9831680013688548 0.4319447107417402	-0.179738
C	0.7801087291958521 0.9037002597958430 0.4296298891681073	0.090848
C	0.7260061206271652 0.1066751425832609 0.3766413794621568	0.060029
C	0.7915608520437996 0.1512780973170038 0.3796424603944326	-0.174462
C	0.7871374548581401 0.2321194221486732 0.3782684229182581	0.084590
C	0.6465311919582799 0.2211314412870632 0.3755880328023432	-0.125645
C	0.6528302925847841 0.1425400817279277 0.3734573239467606	-0.135704
C	0.6005535262397468 0.7023347082190808 0.3154975630554250	0.090784
C	0.5213969782127915 0.6941143125668526 0.3159529803294274	-0.177719
C	0.4776343948770688 0.7318742897232453 0.3741373919227832	0.107248
C	0.5168940641708162 0.7758540074370200 0.4309142111966372	-0.175893
C	0.5963706921832007 0.7793636018330625 0.4289121313732084	0.092109
C	0.3934734989325847 0.7259290185976952 0.3755212919872764	0.062083
C	0.3488308435349134 0.7915031163182873 0.3788461689948809	-0.175047
C	0.2679413735205278 0.7870824821763441 0.3780848173313578	0.085017
C	0.2790330312192837 0.6465606022567861 0.3754708508587817	-0.125441
C	0.3576117652224762 0.6528112689293777 0.3727342306140679	-0.137637
C	0.8997749119052996 0.7974836723704878 0.3164424567155963	0.096876
C	0.9788433720252981 0.8058675747216439 0.3169711244268234	-0.175247
C	0.0224892939078903 0.7680106570938114 0.3750934793575272	0.112271
C	0.9831926420768211 0.7233645832368140 0.4313770668738994	-0.177334
C	0.9037934457624265 0.7196015027214973 0.4289182585390190	0.095057
C	0.1066171380151155 0.7740697635066035 0.3763698376097429	0.059792
C	0.1512903704902311 0.7085360677028375 0.3794135657396407	-0.175066
C	0.2321515714739562 0.7130436668050062 0.3782013039515636	0.085093
C	0.2210416492726550 0.8535864200351868 0.3756185879186428	-0.124483
C	0.1424461906819616 0.8472109736470584 0.3733424504795740	-0.135408
C	0.7978403015978308 0.8995466300318827 0.8155599854811821	0.090460
C	0.8061497061783154 0.9786741483972056 0.8160475646482952	-0.178053
C	0.7683981049222266 0.0223743211185161 0.8742469503901708	0.107987
C	0.7242487048145794 0.9831969344203612 0.9309463895672517	-0.176486
C	0.7206419351231147 0.9037480164356673 0.9289781679374556	0.092054
C	0.7743548160056823 0.1065463588002578 0.8755990828030791	0.062034
C	0.7087066755886072 0.1510989700959244 0.8789154041176260	-0.175127
C	0.7129403853605236 0.2320040643995271 0.8781647779382050	0.084562
C	0.8535585524664675 0.2211609701906848 0.8755093813467183	-0.124826
C	0.8474413904668180 0.1425592084643476 0.8727624068214096	-0.136582
C	0.7024834060602015 0.6001100911639436 0.8163167579842079	0.098158
C	0.6939499039943674 0.5210633743302008 0.8169589018747456	-0.176236
C	0.7317088983362279 0.4774785919187219 0.8751644305238732	0.112946
C	0.7764982516052039 0.5166772823562342 0.9313435070341286	-0.177488
C	0.7804202760160651 0.5960518459509474 0.9288229399658523	0.094460
C	0.7256463283246924 0.3933470330725595 0.8764633353658521	0.060216
C	0.7912649368546876 0.3487610629087054 0.8795026310089936	-0.174595
C	0.7869481837410467 0.2678831970952555 0.8782890358054365	0.084303
C	0.6463097287741015 0.2787437354750798 0.8756631253948396	-0.123421
C	0.6525453428497001 0.3573527498579110 0.8733991169919471	-0.136508
C	0.6004432432559582 0.7971887188989962 0.8162700035003411	0.091445
C	0.5213554042349707 0.8057314056680084 0.8170450266802058	-0.176935
C	0.4777707554781762 0.7682516256611492 0.8754529387853146	0.107947
C	0.5170812681600371 0.7238106454096201 0.9319267057448406	-0.177761
C	0.5965405421784649 0.7199190337260110 0.9295950998124288	0.089915
C	0.3935381882105301 0.7742684377493392 0.8766785037423459	0.060928
C	0.3489252920953462 0.7087106694116007 0.8797385447500785	-0.174378
C	0.2679977802653112 0.7129339693404491 0.8783854038471843	0.084136
C	0.2787478407690498 0.8534507967913676 0.8756620851675672	-0.124908
C	0.3573917044946207 0.8473097151744260 0.8735187731905800	-0.136771
C	0.8994606628945608 0.7016834741294702 0.8159654279992601	0.090871
C	0.9785591843002096 0.6933453438198884 0.8163062510690707	-0.178895
C	0.0223091963849122 0.7314800106749526 0.8741957624939836	0.111091
C	0.9831454911735635 0.7758895180467882 0.9306653494560464	-0.171435
C	0.9037550879398976 0.7796201206382031 0.9285013675465428	0.099385
C	0.1065116847971859 0.7255076546828918 0.8755842377314453	0.061672
C	0.1510526285425308 0.7911386336207612 0.8788845066841238	-0.175352
C	0.2319902009319039 0.7868804005666161 0.8781798123837457	0.084953
C	0.2212662836887603 0.6463583913903214 0.8755971986433079	-0.123405
C	0.1426446142546193 0.6524701194661577 0.8728304580656687	-0.135435
C	0.2027958227289842 0.3998111191181404 0.6836819261131942	0.091493
C	0.1943016452631769 0.4789050304329560 0.6829254580627625	-0.176360
C	0.2317980587101501 0.5224501215405637 0.6245241650902407	0.109527
C	0.2762432059596318 0.4831594651052523 0.5680546163721676	-0.179685
C	0.2800707519725452 0.4036905444302989 0.5703631236317901	0.090750
C	0.2257776827786248 0.6065868594096149 0.6233369338060594	0.060572
C	0.2913596308192481 0.6511434008418363 0.6203323730437923	-0.174920
C	0.2870970221585454 0.7320332756955383 0.6216924870470724	0.084489
C	0.1464801491550137 0.7212503964775268 0.6243797535513717	-0.124677
C	0.1526803329704162 0.6426235697866697 0.6265112662667017	-0.136509
C	0.2983950067037162 0.1002629791867097 0.6839701559433210	0.090747
C	0.3066777039291299 0.0211652691015717 0.6836582513417316	-0.178055
C	0.2684778252140543 0.9774577374089344 0.6258087507305652	0.111382
C	0.2240526773738495 0.0166095091208311 0.5693463246998157	-0.172215
C	0.2203675370956484 0.0960150779940969 0.5714930666192141	0.099212
C	0.2744428574089413 0.8933490985490393 0.6244623845617019	0.061919
C	0.2087918538272732 0.8488674649223661 0.6211878476960137	-0.175692
C	0.2130893139397661 0.7679685866712567 0.6218927824160437	0.084565
C	0.3537116367161149 0.7787260611398256 0.6244437240661541	-0.123845
C	0.3475383208165065 0.8573323003803618 0.6272035424647691	-0.135238
C	0.3996652167775140 0.2974995200990744 0.6836250571863839	0.097106
C	0.4787135032291111 0.3060548915979582 0.6829898293238313	-0.175824
C	0.5223725965166303 0.2683348446976909 0.6248225767263936	0.113059
C	0.4831673455802325 0.2235527079630553 0.5686322372171912	-0.177344
C	0.4037721375653968 0.2195882964723017 0.5711256999372636	0.094281
C	0.6065322130538359 0.2744043610823398 0.6234974848980548	0.060683
C	0.6511558821665218 0.2088179199034870 0.6204363474842780	-0.174700
C	0.7320709716777464 0.2130830179948155 0.6216530187652271	0.084546
C	0.7212562609666920 0.3536303875257938 0.6242714567465224	-0.123478
C	0.6426234651954937 0.3474480336695144 0.6265257792198304	-0.136602
C	0.1006667902571780 0.2022240184861306 0.6844991281944489	0.090404
C	0.0215237275399196 0.1938479844783759 0.6839743542495471	-0.178606
C	0.9777657703397612 0.2315311945534175 0.6257601162825664	0.107973
C	0.0169557451343248 0.2756697119735594 0.5690635125816242	-0.175689
C	0.0964101720399233 0.2793581172176097 0.5710502312120832	0.092216
C	0.8935637490335774 0.2255690238914529 0.6243685495907411	0.062207
C	0.8489821538936522 0.2912008746879310 0.6210365886335848	-0.175087
C	0.7680390845854322 0.2870205035619244 0.6217778215955859	0.084676
C	0.7788322196750761 0.1464900898099797 0.6244458635289741	-0.125246
C	0.8574536897615743 0.1525508818523250 0.6271897350047612	-0.137047
H	0.1776056523138039 0.1355037257388342 0.2300421733217644	0.102988
H	0.1605554668375769 0.9932328167532148 0.2295425735813282	0.118168
H	0.3066114281837917 0.9854131805349295 0.0215659945862148	0.116714
H	0.3117507156531519 0.1289359591193540 0.0264453869241424	0.100260
H	0.3478618319512647 0.8758494274725596 0.1198621524461921	0.108106
H	0.0899882531195887 0.7517026869270059 0.1250893174829095	0.113385
H	0.1015102344134817 0.8932977244632049 0.1288923852950263	0.102197
H	0.3232332612339040 0.3643057914408006 0.2312267174648484	0.103741
H	0.3398371633343957 0.5063891351152157 0.2304850387005714	0.117678
H	0.1946024833714842 0.5141643328706941 0.0216591458320322	0.119322
H	0.1908129158072629 0.3716200479733536 0.0248229201825364	0.105301
H	0.1521755452965606 0.6239428790936331 0.1204011274998493	0.110179
H	0.4098345656115387 0.7483114138678855 0.1250336952454316	0.108821
H	0.3985670752399406 0.6066471589862521 0.1296759191567461	0.104019
H	0.3636175255981934 0.1755697258205234 0.2294159964365833	0.101733
H	0.5064999298757872 0.1596216926902185 0.2298240177488434	0.116025
H	0.5142539540074106 0.3058144857334583 0.0219349679079945	0.119196
H	0.3711114080614055 0.3097336132123292 0.0257506945430150	0.103169
H	0.6240667348262749 0.3479550459782034 0.1206221388799111	0.110541
H	0.7480338376811996 0.0900607748812876 0.1249137089639674	0.109900
H	0.6064950810978348 0.1016908977882049 0.1295626474210112	0.104716
H	0.1351910700159666 0.3214860086982149 0.2311010223931005	0.105344
H	0.9934763159527193 0.3386035161338095 0.2298285632930742	0.119479
H	0.9860215099789098 0.1935571149618531 0.0209285189673938	0.117993
H	0.1292229436405722 0.1889410909477191 0.0251079158527864	0.104159
H	0.8759194515469291 0.1519100987605288 0.1195934647665850	0.107074
H	0.7518084442530146 0.4096859795445209 0.1252707372715947	0.110895
H	0.8937037498779798 0.3980083901433688 0.1289380679453953	0.101991
H	0.8246162436265934 0.6361392415326880 0.2705382096950765	0.101897
H	0.8408098573235797 0.4933997041741844 0.2703063586831556	0.116226
H	0.6941868894607643 0.4855630853221952 0.4778948172718297	0.119383
H	0.6901015367961730 0.6285941210194049 0.4740248545008584	0.103209
H	0.6522935159233604 0.3760694810379338 0.3794244093862775	0.110915
H	0.9100374022863517 0.2516206343887240 0.3751596968605711	0.109929
H	0.8987495552328252 0.3930839649253703 0.3705626246023769	0.104871
H	0.6783369309607913 0.8650214429694622 0.2689509243882750	0.105757
H	0.6608608452733439 0.0066025528016908 0.2704142955365244	0.119478
H	0.8064336555630279 0.0142081086287470 0.4789326443811918	0.117910
H	0.8112783266459375 0.8711117016123979 0.4747318087279488	0.104074
H	0.8478635367663175 0.1239445478411398 0.3804647674883343	0.106761
H	0.5902460239780825 0.2485559585704209 0.3747855568289291	0.110287
H	0.6015807822189321 0.1067507771320843 0.3711681563044630	0.101564
H	0.6359667757646452 0.6766976145291278 0.2689269069531274	0.104180
H	0.4938394403862652 0.6599710907386537 0.2696670822239601	0.117595
H	0.4859433573485078 0.8054352352174738 0.4782995833055066	0.119054
H	0.6285783315973142 0.8092530890146593 0.4751632136766575	0.105197
H	0.3761302986557751 0.8477753643709598 0.3795911009302810	0.109986
H	0.2516584101443611 0.5902809483740746 0.3750074244048764	0.108960
H	0.3934000340553361 0.6015345834177646 0.3703648782663996	0.103897
H	0.8641856834260413 0.8225063433427526 0.2699282310794420	0.103325
H	0.0065317269829075 0.8396879807874678 0.2705137049469243	0.118160
H	0.0143880009897878 0.6933751708233408 0.4783022804685676	0.117142
H	0.8707806489231803 0.6881767950851607 0.4733214184857628	0.100443
H	0.1240139878946271 0.6522440405980121 0.3801182423711040	0.107982
H	0.2482685246289050 0.9099538304974423 0.3749656183535813	0.113398
H	0.1065958037783735 0.8984477158307557 0.3711577637424727	0.102434
H	0.8235040475728768 0.8641984882906212 0.7689126641690712	0.104695
H	0.8402830301572151 0.0062438766893955 0.7697693511081496	0.117654
H	0.6946497482190555 0.0141634933529991 0.9782793120171672	0.119342
H	0.6906397069696657 0.8716229272651745 0.9752860101828209	0.105501
H	0.6523974352627466 0.1237711206447974 0.8796925126818792	0.109444
H	0.9098241069714927 0.2485949396025263 0.8750020645497705	0.108518
H	0.8988251472429646 0.1069310814978501 0.8703874684876459	0.103512
H	0.6775038703795193 0.6356080267351030 0.7696524025649195	0.102961
H	0.6601454308644407 0.4933604067663153 0.7705333046675471	0.118553
H	0.8064484303430141 0.4854609895263869 0.9782627947143854	0.117084
H	0.8119441033659965 0.6289737266916634 0.9732383165521306	0.101365
H	0.8475944250157665 0.3760638500649551 0.8802155409212185	0.107601
H	0.5899566530039737 0.2514580870822253 0.8749490659422807	0.113080
H	0.6012068555833883 0.3930484296940414 0.8711884399196153	0.102467
H	0.6354168783355550 0.8216999142127355 0.7687508998692331	0.106687
H	0.4938068065879209 0.8394125756653683 0.7703868460592150	0.119769
H	0.4859989569959332 0.6938927578192400 0.9789737658474995	0.117663
H	0.6291679414967268 0.6886935676596477 0.9746976768993779	0.104800
H	0.3763390427455360 0.6524415667952446 0.8805430278724560	0.106158
H	0.2512177979990051 0.9096807905389788 0.8748104935563744	0.109961
H	0.3931008641006362 0.8986164524877315 0.8711721407011747	0.101657
H	0.8634632070968611 0.6754310894081283 0.7703906224206052	0.102357
H	0.0062490986108839 0.6589547191555580 0.7703180597293632	0.116450
H	0.0141894472512345 0.8053853265508004 0.9779752280556439	0.118666
H	0.8710925355057871 0.8098876436424773 0.9740272699070794	0.103395
H	0.1236439400268158 0.8474138233574291 0.8795381349631406	0.110165
H	0.2486182801353964 0.5900592281516507 0.8751672496348906	0.109785
H	0.1070831435366731 0.6010666244469230 0.8705645874209491	0.104552
H	0.1782521508283753 0.3649324300267444 0.7312613564450913	0.106549
H	0.1606215835907777 0.5064851362402127 0.7295858030325301	0.119196
H	0.3061952186558784 0.5142415789826130 0.5210399249853942	0.117867
H	0.3112894274766269 0.3711255331430171 0.5252058137185804	0.104400
H	0.3476788345260914 0.6238057590525190 0.6195265075541306	0.106717
H	0.0901999839736167 0.7487594942972209 0.6251950035304689	0.110063
H	0.1013663768348458 0.6069318518724748 0.6288161487464009	0.101545
H	0.3247313024896497 0.1361862592039889 0.7295560689495754	0.101914
H	0.3410755303152275 0.9934391059343054 0.7296422889165292	0.116010
H	0.1944976171672162 0.9855608040030237 0.5220645399386301	0.119077
H	0.1901200451739137 0.1286004917703490 0.5258928808076768	0.103619
H	0.1524622925652873 0.8761900466759300 0.6205419341807150	0.110372
H	0.4100630540348483 0.7514005635766299 0.6248337869565658	0.110027
H	0.3989464107054205 0.8928746604682195 0.6294303961824795	0.104712
H	0.3640598821375918 0.3224438585150054 0.7302536094107167	0.103113
H	0.5063682152139751 0.3398767114585629 0.7294368615370473	0.118429
H	0.5143930890461839 0.1936132681214075 0.5217116324437494	0.117274
H	0.3708012166062320 0.1880471656850381 0.5267466493656378	0.101000
H	0.6237862712349534 0.1525421546509809 0.6197509086436761	0.107303
H	0.7486119185741008 0.4099355329719697 0.6249975418082165	0.113076
H	0.6069422847052928 0.3988037101638109 0.6287427885005331	0.102253
H	0.1360834919305500 0.1766453033393382 0.7311638734384374	0.105155
H	0.9940029548525865 0.1596866256330463 0.7302687191456900	0.117772
H	0.9859781340439311 0.3052292109778172 0.5216844199769648	0.118855
H	0.1285891714428534 0.3093951439549658 0.5247873448401433	0.105360
H	0.8763800348124690 0.3474514515195770 0.6202705400788261	0.109494
H	0.7513203832535420 0.0902799559436847 0.6249621985455229	0.108578
H	0.8930684848526735 0.1011572574223919 0.6295625155244239	0.103625
F	0.2558159726569449 0.1349754136151435 0.3777615145619815	-0.644334
F	0.1447594771227211 0.3073661057375490 0.3790521317070357	-0.637673
F	0.3444948767004703 0.3202894682661414 0.3777319266962284	-0.640855
F	0.6795570415355524 0.6555868348627237 0.1222336836690396	-0.641019
F	0.6927422470366453 0.8550283273342105 0.1207456114712128	-0.637722
F	0.8650476215269813 0.7438127005679718 0.1223960964175329	-0.644483
F	0.6447911457243908 0.8072733702321608 0.6211833709237916	-0.637901
F	0.7560740577405852 0.6351025502673117 0.6228484094962724	-0.644317
F	0.8446447386906559 0.8201001141280654 0.6219555089180657	-0.641198
F	0.1794844508417954 0.1557682065831740 0.8780327451279513	-0.640814
F	0.3650031323140530 0.2440662143905649 0.8775620658956704	-0.644297
F	0.1929502836646917 0.3555733326659147 0.8785768704688851	-0.637962
F	0.2482079410648735 0.2495059491413469 0.2553264009309537	-0.568158
F	0.2495438648163690 0.2486815996150983 0.5010113222640690	-0.568484
F	0.7503431650619915 0.7517199861239476 0.2446368815998770	-0.568492
F	0.7512688740907854 0.7500985472505082 0.9990209758164967	-0.568657
F	0.7483546407041979 0.7503609435944316 0.7445763798953479	-0.568207
F	0.7493608277471988 0.7485979229917209 0.4989640425894813	-0.568437
F	0.2501899448131345 0.2515768279523786 0.7554166420098773	-0.568146
F	0.2510767701071338 0.2509910700551179 0.0010248325498082	-0.568047
Co	0.2500489627725286 0.2499185912764620 0.1282213864269472	0.586129
Co	0.7500788722462347 0.7499362296382679 0.3717232482752639	0.586724
Co	0.7500816359940053 0.7499252317055911 0.8717072397946061	0.585749
Co	0.2500715431381331 0.2499274011706991 0.6282675755179318	0.586509
In	0.2487943797863100 0.2523046236426221 0.3782044281149420	1.564317
In	0.7477171603352306 0.7510590773169561 0.1217980483123316	1.564828
In	0.7488528513563412 0.7523455045864806 0.6217781523115991	1.565022
In	0.2476384823125510 0.2513679979324991 0.8782054282046415	1.564361
	  	
