#======================================================================

# CRYSTAL DATA

#----------------------------------------------------------------------

data_VESTA_phase_1


_pd_phase_name                         InFFIVE_1_Ni
_cell_length_a                         11.27201
_cell_length_b                         11.27204
_cell_length_c                         8.24570
_cell_angle_alpha                      90.10720
_cell_angle_beta                       89.89065
_cell_angle_gamma                      89.99056
_symmetry_space_group_name_H-M         P 1
_symmetry_Int_Tables_number            1

loop_
_symmetry_equiv_pos_as_xyz
   x, y, z

loop_
   _atom_site_label
   _atom_site_fract_x
   _atom_site_fract_y
   _atom_site_fract_z
   _atom_site_charge
C	0.2534596919082416 0.4579944366204322 0.3711157913871548	0.101105
C	0.1300878538039661 0.4577284474228137 0.3662345441226439	-0.173196
C	0.7471672708562362 0.5413479014135578 0.3717411725420749	0.107753
C	0.8704092117205064 0.5421509685823418 0.3664679839557571	-0.172803
C	0.5416022800660455 0.2532423550066581 0.3721078428734073	0.105318
C	0.5422788785906992 0.1299200087859503 0.3665988156184130	-0.174969
C	0.4583425707114089 0.7468970144357958 0.3717213069980467	0.101551
C	0.4579146308094060 0.8701947444446940 0.3667454825441756	-0.173001
C	0.7468956354818377 0.4583436859486242 0.6282884565783755	0.101403
C	0.8701909847301614 0.4579151716929131 0.6332605556702681	-0.172972
C	0.2532410944921674 0.5416045651391582 0.6278715909988961	0.105057
C	0.1299175383821353 0.5422798738459268 0.6333876906977621	-0.174855
C	0.4579901630932089 0.2534609485366467 0.6288678128716233	0.101188
C	0.4577256227172030 0.1300885188466368 0.6337573142912061	-0.173169
C	0.5413468138966082 0.7471677172503747 0.6282654224438925	0.107781
C	0.5421496132082396 0.8704088812528307 0.6335330719737640	-0.172843
C	0.0656603332341386 0.5000916275027670 0.4998386306123603	0.103913
C	0.9346900986762637 0.5000780795122239 0.4998642092950220	0.099820
C	0.5000920575237952 0.0656603998934124 0.5001554936695710	0.103955
C	0.5000769698631844 0.9346905440178457 0.5001337207560864	0.099858
H	0.3056490452558648 0.4243937283512925 0.2691915277716841	0.096344
H	0.0849289504631539 0.4223435699359214 0.2599228082487413	0.123865
H	0.6948205631040871 0.5731195938511120 0.2699657055239444	0.091451
H	0.9155165509886676 0.5772016289220522 0.2597628914150797	0.120393
H	0.5750305132025469 0.3061381102333251 0.2713377060067066	0.090657
H	0.5774742330127097 0.0845405987736194 0.2600474834854143	0.121432
H	0.4268662236517416 0.6952802536873188 0.2685489063798764	0.097068
H	0.4228342459056366 0.9148588261998761 0.2599737863431483	0.123414
H	0.6952792316946628 0.4268643925954024 0.7314667857691356	0.097097
H	0.9148581581233565 0.4228323925186537 0.7400267207349072	0.123460
H	0.3061363026158339 0.5750302113953139 0.7286368904155689	0.090800
H	0.0845412546793159 0.5774718202580099 0.7399445069445683	0.121362
H	0.4243927924169300 0.3056508158058290 0.7307872611988313	0.096324
H	0.4223434783460602 0.0849307095613697 0.7400781875409463	0.123845
H	0.5731176725942143 0.6948225244142913 0.7300433285750364	0.091424
H	0.5771995630975177 0.9155173052020168 0.7402293997652002	0.120406
Ni	0.5002497950798982 0.5002503296768051 0.4999999891927554	0.756946
In	0.4995955932249334 0.4995922828870584 0.0000059247604293	1.562930
F	0.5005843772771360 0.4999069112661382 0.7437500554062216	-0.566140
F	0.4999421617635500 0.5006106779413669 0.2562587039560624	-0.566052
F	0.3724306616552654 0.3724366409614226 0.0000859517395056	-0.610485
F	0.6731402376609017 0.4521970987102440 0.0023389111501982	-0.610266
F	0.4522352158424393 0.6731471923660024 0.9976500632139674	-0.610256
N	0.3142490340688257 0.4998050101058283 0.4995216651746708	-0.231496
N	0.6861318603811152 0.4998227436843815 0.4999511444689190	-0.236828
N	0.4998016158605350 0.3142480172219102 0.5004603300139636	-0.231683
N	0.4998213722676293 0.6861307843218228 0.5000566149040150	-0.236904
	  	
