#======================================================================

# CRYSTAL DATA

#----------------------------------------------------------------------

data_VESTA_phase_1


_pd_phase_name                         InFFIVE_7_Ni
_cell_length_a                         19.16494
_cell_length_b                         19.16483
_cell_length_c                         8.20251
_cell_angle_alpha                      89.93291
_cell_angle_beta                       90.06639
_cell_angle_gamma                      90.02743
_symmetry_space_group_name_H-M         P 1
_symmetry_Int_Tables_number            1

loop_
_symmetry_equiv_pos_as_xyz
   x, y, z

loop_
   _atom_site_label
   _atom_site_fract_x
   _atom_site_fract_y
   _atom_site_fract_z
   _atom_site_charge
C	0.6650079156770103 0.8712316539517173 0.6950156975680662	0.098596
C	0.6139904638801132 0.9227371547002046 0.6988927269601922	-0.176867
C	0.5798554472205180 0.8882682305812999 0.4297183292548687	-0.174252
C	0.6314654044633906 0.8376556676325753 0.4356695981302185	0.103170
C	0.8352643809919488 0.6288213275961272 0.6944754093615899	0.105471
C	0.8860918236888793 0.5771635218119212 0.6990886914994202	-0.177792
C	0.9200740606379145 0.6117509741174891 0.4299470058891522	-0.173527
C	0.8686187316161015 0.6625898609119347 0.4352066946410436	0.096535
C	0.6286106037361554 0.6648631940230156 0.6946021457772413	0.102958
C	0.5771027135997029 0.6138674040527964 0.6989446069718890	-0.176213
C	0.6116733351358525 0.5798020163028895 0.4300233815905375	-0.171329
C	0.6624721601923264 0.6312662534906280 0.4358025999894843	0.099150
C	0.8712560096799620 0.8346864765483467 0.6946518976537315	0.101910
C	0.9227401710758670 0.8858007737965331 0.6990381034930750	-0.178778
C	0.8880142637134092 0.9200503721897152 0.4299043309243086	-0.173616
C	0.8371229460726466 0.8686023991882328 0.4356694329515237	0.099291
C	0.3346871803297171 0.3712558905555138 0.3053468032512736	0.101946
C	0.3858017133244390 0.4227415411159764 0.3009600624986262	-0.178759
C	0.4200499947574928 0.3880140563937113 0.5700935016339220	-0.173666
C	0.3686023003132213 0.3371215234126692 0.5643283627396299	0.099335
C	0.1648649093249160 0.1286105274960231 0.3054069522022781	0.102865
C	0.1138678230382278 0.0771037491624977 0.3010603929879981	-0.176218
C	0.0798005987666007 0.1116722671087937 0.5699804842471429	-0.171439
C	0.1312658968756887 0.1624710154625388 0.5642055324653190	0.099379
C	0.3712311026161072 0.1650077198570403 0.3049808738053016	0.098567
C	0.4227376267535545 0.1139900187112588 0.3011053152240400	-0.176872
C	0.3882684201640128 0.0798552313303262 0.5702813076601054	-0.174185
C	0.3376555076222740 0.1314654390701208 0.5643286009509277	0.103165
C	0.1288209428109912 0.3352637031163848 0.3055257846197805	0.105439
C	0.0771629338824327 0.3860917271568019 0.3009112643696553	-0.177757
C	0.1117499195168952 0.4200749319493318 0.5700519630149797	-0.173458
C	0.1625896008982838 0.3686186775610162 0.5647928848708862	0.096534
C	0.4330037404785031 0.0701250455133663 0.4365075158306640	0.141456
C	0.4872701131706854 0.0167982738623337 0.4335770371490856	-0.121556
C	0.0669061734352943 0.4298887759885500 0.4362226458977290	0.141894
C	0.0125437002119118 0.4831837572644853 0.4334907617668883	-0.121171
C	0.4297414002937193 0.4329108349662271 0.4363098367575275	0.144168
C	0.4830920113399901 0.4872443462141215 0.4335325176446728	-0.124583
C	0.0700252567208106 0.0668653619499103 0.4363061725046481	0.138730
C	0.0166988595473733 0.0125205014499469 0.4335008792956319	-0.118713
C	0.5668649013444402 0.5700258339190960 0.5636946256376328	0.138683
C	0.5125206104061176 0.5166991576203001 0.5665002758897050	-0.118683
C	0.9329102924393382 0.9297414211323055 0.5636886942509282	0.144185
C	0.9872441965150434 0.9830914315830483 0.5664666393323918	-0.124593
C	0.5701252489416156 0.9330036413587360 0.5634916942419009	0.141463
C	0.5167986304904078 0.9872697528360238 0.5664233778980581	-0.121526
C	0.9298886846541987 0.5669063715668532 0.5637769936771331	0.141938
C	0.9831834978674531 0.5125443163302075 0.5665083330999399	-0.121124
H	0.6990977609555921 0.8628275090404004 0.7998336890703047	0.096844
H	0.6090385037563413 0.9549827456524551 0.8076944171441882	0.117698
H	0.5465958860942997 0.8916460325841518 0.3221567013622195	0.115576
H	0.6399811566808160 0.8023890879865316 0.3337392788476118	0.088954
H	0.8006465661727749 0.6376659986008958 0.7974854500342829	0.089314
H	0.8912115210289571 0.5448329315776974 0.8079276895329742	0.115308
H	0.9531749546095362 0.6085964981179017 0.3223173712095529	0.118360
H	0.8606271219074471 0.6974928596609533 0.3316663228199014	0.095992
H	0.6375760463576360 0.6985783308726519 0.7991284821784785	0.093896
H	0.5450061514514547 0.6087738834411416 0.8079827346857150	0.116830
H	0.6083696684237787 0.5468630282339528 0.3221304041603615	0.117221
H	0.6969019619395034 0.6398775149777253 0.3323796482884989	0.093877
H	0.8631706632517874 0.7994290290863153 0.7974384243443929	0.092647
H	0.9552035366971378 0.8909024291093642 0.8076536247672442	0.116662
H	0.8913579168962737 0.9533950122171325 0.3225011474646786	0.116553
H	0.8011526959669316 0.8608538318903454 0.3341227172723997	0.091289
H	0.2994303092321674 0.3631720800583655 0.2025609667713557	0.092610
H	0.3909037882877953 0.4552049843564774 0.1923423786726171	0.116643
H	0.4533935361378147 0.3913565694270905 0.6774976539510158	0.116588
H	0.3608535143369353 0.3011513020679134 0.6658764918526845	0.091268
H	0.1985800708125402 0.1375762234378626 0.2008782141217386	0.093914
H	0.1087752571449548 0.0450081832623449 0.1920190713959509	0.116825
H	0.0468597569141062 0.1083681544312404 0.6778726336374071	0.117206
H	0.1398747385151928 0.1969014314819504 0.6676288440066570	0.093816
H	0.3628283679095999 0.1990983286579942 0.2001619222214420	0.096844
H	0.4549840987961087 0.1090382886270514 0.1923034988466739	0.117696
H	0.3916464726037218 0.0465953284763614 0.6778448957903754	0.115546
H	0.3023884642119203 0.1399804769500240 0.6662598724542029	0.088964
H	0.1376653969560352 0.3006458791678041 0.2025155111041528	0.089311
H	0.0448328401905679 0.3912109465791085 0.1920705941163491	0.115291
H	0.1085955025400520 0.4531757982178218 0.6776819467010520	0.118347
H	0.1974907438510880 0.3606278505000599 0.6683367665893142	0.095994
H	0.5060853385001735 0.0020800361153627 0.3123798964598203	0.102926
H	0.9937007078988447 0.4982536725005599 0.3123451475453656	0.102272
H	0.4980531471686264 0.5061112538423417 0.3124134384379261	0.103641
H	0.0018357686653566 0.9936836454839274 0.3123050895383743	0.101725
H	0.4936831178668297 0.5018349155668737 0.6876939155973439	0.101713
H	0.0061109344891879 0.9980523289409090 0.6875863273767623	0.103635
H	0.5020802773436533 0.0060849184437031 0.6876204516219182	0.102921
H	0.9982534239158897 0.4937012547444278 0.6876534923251398	0.102235
Ni	0.2498692943054273 0.2498316435534948 0.4344237573561524	0.757897
Ni	0.7498325213414455 0.7498710545600347 0.5655775017666566	0.757973
In	0.2504832938842853 0.2505654650651341 0.9346885988133569	1.563118
In	0.7505687911747709 0.7504834789350905 0.0653097175466171	1.563082
F	0.2501115341470386 0.2495085818535906 0.1916747427148079	-0.564164
F	0.2494898407284471 0.2500588445034185 0.6775642011647484	-0.562498
F	0.7495076385856294 0.7501175922271124 0.8083254480969561	-0.564197
F	0.7500638772312087 0.7494964213826870 0.3224305060932397	-0.562514
F	0.1748290164359149 0.1763393635933636 0.9351039401088840	-0.608826
F	0.2249599255427313 0.3532851485456475 0.9377811273459445	-0.610167
F	0.3527405962846044 0.2232597204678024 0.9317783397317632	-0.609921
F	0.7232173421912944 0.8527305935083324 0.0682116263361406	-0.609939
F	0.8532970524604162 0.7249883511485692 0.0621803976324613	-0.610098
F	0.6763749178927383 0.6747990564306308 0.0649195878109478	-0.608838
N	0.3290059790044600 0.1737853223679261 0.4345094170336900	-0.234349
N	0.1711419335889750 0.3263677816303876 0.4348665841687383	-0.234167
N	0.3261069946345363 0.3287675705877036 0.4346218019233911	-0.231638
N	0.1736242136264073 0.1709800084083027 0.4345609128833424	-0.237833
N	0.6709815360369831 0.6736237631078338 0.5654474911157306	-0.237868
N	0.8287677980110857 0.8261063345228326 0.5653771597960613	-0.231613
N	0.6737861461571990 0.8290062078271784 0.5654869968853743	-0.234360
N	0.8263675830214373 0.6711426974748165 0.5651338852838027	-0.234179
	  	
