#======================================================================

# CRYSTAL DATA

#----------------------------------------------------------------------

data_VESTA_phase_1


_pd_phase_name                         InFFIVE_1_Co
_cell_length_a                         11.01528
_cell_length_b                         11.01528
_cell_length_c                         8.50421
_cell_angle_alpha                      90.19685
_cell_angle_beta                       89.80079
_cell_angle_gamma                      89.99416
_symmetry_space_group_name_H-M         P 1
_symmetry_Int_Tables_number            1

loop_
_symmetry_equiv_pos_as_xyz
   x, y, z

loop_
   _atom_site_label
   _atom_site_fract_x
   _atom_site_fract_y
   _atom_site_fract_z
   _atom_site_charge
C	0.2594154306133613 0.4579834446338650 0.3733862108091652	0.095270
C	0.1332782114797270 0.4580084951109061 0.3693874770585029	-0.168674
C	0.7415214647318887 0.5406707374360296 0.3746521750363532	0.097879
C	0.8675449602010645 0.5414621685694896 0.3699712833331815	-0.169778
C	0.5415786382465896 0.2590584860710776 0.3752410343380982	0.093099
C	0.5419879362838661 0.1329898771458018 0.3702457832115948	-0.169868
C	0.4591106421003107 0.7411754475741453 0.3737444541305401	0.095131
C	0.4586318080043663 0.8672521893563683 0.3698403328204731	-0.169758
C	0.7411740301216732 0.4591108194946636 0.6262543518215228	0.095075
C	0.8672510975351618 0.4586319797629081 0.6301568743282278	-0.169723
C	0.2590567973169423 0.5415762373264291 0.6247484412709923	0.093236
C	0.1329884297731067 0.5419878453612366 0.6297470022603726	-0.170042
C	0.4579843392415121 0.2594112249534141 0.6266033419358392	0.095258
C	0.4580058756556630 0.1332745028185374 0.6306083796091695	-0.168709
C	0.5406701830517138 0.7415190169217866 0.6253422050653314	0.097872
C	0.5414602541745970 0.8675413492217016 0.6300225578711814	-0.169709
C	0.0672664395719859 0.5000992919426014 0.4996731519701805	0.100954
C	0.9332883210028026 0.5001133756060926 0.4999543484175183	0.099613
C	0.5000981542768965 0.0672647161159239 0.5003191831174141	0.100785
C	0.5001129009056406 0.9332878762725465 0.5000392906800093	0.099623
H	0.3131224809137902 0.4252416330703936 0.2739883801279999	0.102941
H	0.0874282224120484 0.4232346952525686 0.2653203211608900	0.127495
H	0.6875496802423735 0.5704925387786337 0.2751930444049168	0.099823
H	0.9133632258015588 0.5755399273884119 0.2653862086096825	0.123225
H	0.5737713096658908 0.3135397955947333 0.2769893253256840	0.101298
H	0.5764014352267817 0.0868628884704380 0.2657482647709530	0.124043
H	0.4292042582973988 0.6880187497317217 0.2728892496157703	0.103557
H	0.4243294923919514 0.9126151314205254 0.2654494083132385	0.126626
H	0.6880174581263701 0.4292003540165194 0.7271097369258755	0.103492
H	0.9126125950072658 0.4243282626638670 0.7345471085706767	0.126621
H	0.3135348040926064 0.5737670276225532 0.7229994393375699	0.101229
H	0.0868602253083822 0.5763995223362922 0.7342441214351739	0.124033
H	0.4252391437049706 0.3131184780704483 0.7259985751458459	0.102973
H	0.4232326441327631 0.0874217324578713 0.7346750050307714	0.127584
H	0.5704922286497934 0.6875473170968186 0.7248033813644830	0.099759
H	0.5755393024286789 0.9133588374855461 0.7346037629771688	0.123301
Co	0.5000970266043493 0.5000951611533875 0.4999924356591726	0.569044
In	0.4994760444686431 0.4994618428485645 0.0000075085190286	1.539979
F	0.5004352551486183 0.5001960258464649 0.7529287582174303	-0.563985
F	0.5002018324719970 0.5004275429221030 0.2470932818493100	-0.563871
F	0.3686647952893340 0.3687752705307534 0.0000576028527300	-0.622187
F	0.6779525522490890 0.4501567056208380 0.0007369823507531	-0.622718
F	0.4502277486580280 0.6779660595796414 0.9993117699982231	-0.622778
N	0.3215621752355377 0.4998069909946629 0.4989900957537619	-0.181573
N	0.6789601799061352 0.4998980425275421 0.5005356572078525	-0.187971
N	0.4998095601591743 0.3215624171416340 0.5010005440190610	-0.181512
N	0.4998984271175833 0.6789580286815318 0.4994623113703066	-0.187962
	  	
