#======================================================================

# CRYSTAL DATA

#----------------------------------------------------------------------

data_VESTA_phase_1


_pd_phase_name                         InFFIVE_14_Cu_i
_cell_length_a                         13.10717
_cell_length_b                         13.09295
_cell_length_c                         8.67024
_cell_angle_alpha                      89.76813
_cell_angle_beta                       89.68401
_cell_angle_gamma                      88.98850
_symmetry_space_group_name_H-M         P 1
_symmetry_Int_Tables_number            1

loop_
_symmetry_equiv_pos_as_xyz
   x, y, z

loop_
   _atom_site_label
   _atom_site_fract_x
   _atom_site_fract_y
   _atom_site_fract_z
   _atom_site_charge
C	0.5701487148386671 0.2627809614914158 0.3580147427678673	-0.175562
C	0.4643825495755728 0.2674577460597112 0.3623563188802356	0.107128
C	0.9434585071519733 0.2866437165472090 0.4094903733835304	-0.164962
C	0.0489324177368702 0.2796572472921359 0.3944891972415127	0.113060
C	0.2606784984040806 0.5701149213173569 0.3604669429430135	-0.174538
C	0.2652190462266707 0.4642092267373992 0.3649301329442415	0.106739
C	0.2948674283920828 0.9436543278710222 0.4057326131748271	-0.166504
C	0.2869160125004962 0.0492104834974845 0.3914890898307536	0.113144
C	0.9310441024810137 0.2384007378712946 0.1416075247504826	-0.180077
C	0.0368334054581047 0.2335571461210566 0.1361739264751923	0.106492
C	0.5586596460111317 0.2091750201956840 0.0925336006155831	-0.159227
C	0.4531021885140457 0.2173208435305981 0.1056088467065010	0.103131
C	0.2104963256816385 0.5585047387094919 0.0935609663051552	-0.161327
C	0.2188463964576169 0.4529281303097987 0.1066186813856759	0.106144
C	0.2351902918765027 0.9309960329804500 0.1433800583644133	-0.179503
C	0.2297592877717607 0.0368702034882937 0.1384699166075333	0.106879
C	0.4312715443203651 0.7365995402071249 0.6439964510530990	-0.179232
C	0.5369584683116880 0.7340285706928499 0.6374761857408754	0.106840
C	0.0581073728764246 0.7304334896598462 0.5846551509726552	-0.155971
C	0.9525354997740306 0.7328472338088278 0.6001748101454550	0.104126
C	0.7378513920536159 0.4311346530133726 0.6430457533932992	-0.178554
C	0.7348818128441450 0.5369601579693063 0.6369460097041210	0.106603
C	0.7184158188854586 0.0578593637447905 0.5878117515242233	-0.155037
C	0.7236909930182384 0.9521692489307183 0.6022369286757316	0.102281
C	0.0698429823570931 0.7596980600627573 0.8587858085124614	-0.173559
C	0.9641264167879576 0.7606261670062737 0.8647732909989280	0.105032
C	0.4440737193009333 0.7757205694573258 0.9153219313103841	-0.159569
C	0.5495624522945924 0.7727960259576355 0.8985251710080312	0.115733
C	0.7766959330369009 0.4437999891696492 0.9144270283953712	-0.161523
C	0.7726715702687015 0.5493768686028297 0.8983012178468383	0.114868
C	0.7632482465416210 0.0695991208509786 0.8569751901552195	-0.170953
C	0.7662706409299854 0.9637778669662250 0.8621110354548956	0.105370
C	0.6185074316542761 0.2343277401543723 0.2194572351222118	0.193828
C	0.8831985713867488 0.2642178090463875 0.2817491232904384	0.193175
C	0.2340266294119674 0.6184520746105243 0.2212769919210303	0.194504
C	0.2670442084007652 0.8832285096721036 0.2805878920805679	0.194113
C	0.3836284506899833 0.7576108188599323 0.7862443981402811	0.194308
C	0.1180831094515170 0.7446462576999618 0.7153860024885647	0.194876
C	0.7587134506145489 0.3833862751026787 0.7850913753401781	0.193690
C	0.7394189129159640 0.1178558001262103 0.7164290073205686	0.192502
H	0.6143920057971877 0.2777869218333924 0.4610877258597784	0.108722
H	0.4227444902810324 0.2861003174041220 0.4678600423061991	0.102195
H	0.9084554449169512 0.3081622775880991 0.5189475954902423	0.128315
H	0.0997876238259909 0.2952027985372871 0.4898966810600304	0.097507
H	0.2742732410891868 0.6146182668033923 0.4638746951583548	0.110515
H	0.2822991334334571 0.4227096806566465 0.4710759696705207	0.103331
H	0.3212681293037216 0.9086112633575215 0.5126152762917390	0.129092
H	0.3066870123352703 0.1002038365805001 0.4850580757471471	0.097912
H	0.8861172691377508 0.2249945597668648 0.0386340100046559	0.109297
H	0.0780409281714449 0.2143454404632755 0.0302795951051717	0.102837
H	0.5931990894287387 0.1843354960595331 0.9843395311929382	0.130315
H	0.4043964961355231 0.2006799694986722 0.0078525147506266	0.103534
H	0.1873533635727819 0.5930129222281709 0.9846309769387875	0.130025
H	0.2040505605859742 0.4041960438944114 0.0080867389815213	0.101769
H	0.2178010206039454 0.8858411120196926 0.0420612531970660	0.111182
H	0.2063782809005128 0.0780363668928804 0.0345648861288783	0.103196
H	0.3865529162764783 0.7243346454200156 0.5404041792186367	0.105958
H	0.5782811942189819 0.7179863089019707 0.5305797873715058	0.102955
H	0.0924489587909109 0.7174889511305410 0.4717513654177203	0.130117
H	0.9040124955617466 0.7217225491049614 0.5003611944416581	0.100622
H	0.7264994034627182 0.3862692900975784 0.5392284361088117	0.106136
H	0.7191269692901310 0.5784187307528018 0.5301531197391478	0.103815
H	0.6982893204295985 0.0922426788873349 0.4774471297273955	0.130413
H	0.7086981971695572 0.9035208945397125 0.5036906030156680	0.100863
H	0.1138912152301705 0.7681477172377787 0.9640139457816901	0.106145
H	0.9227873294529004 0.7695203256955140 0.9734032249717955	0.105093
H	0.4092318431929888 0.7916760347957730 0.0270266685809730	0.128853
H	0.6005116442023412 0.7868919894260951 -0.0057002638329695	0.095269
H	0.7930629463021623 0.4088940040405122 0.0258273393382020	0.128979
H	0.7857980181920445 0.6003136882402853 -0.0054431520309977	0.094858
H	0.7763494250425083 0.1137856201350450 0.9609166260160121	0.106542
H	0.7817294333103759 0.9221471119901150 0.9686805317059353	0.104977
N	0.7760238842652754 0.2727856256432623 0.3012932864893380	-0.108576
N	0.2767462762390434 0.7758823602212302 0.2988886853948335	-0.109876
N	0.7257017131524579 0.2257939453704349 0.2006420804960161	-0.097145
N	0.2251965052296475 0.7256828091316754 0.2034146075114732	-0.098265
N	0.2250680357105568 0.7394589503156548 0.6928292559551552	-0.096618
N	0.7318767480799281 0.2250107469366567 0.6956196075904201	-0.096636
N	0.2765983907278944 0.7638841410715060 0.8094368748501879	-0.107493
N	0.7661254031859395 0.2762512707971547 0.8066712200148669	-0.106558
N	0.4069800614253834 0.2465208652886751 0.2378417673547365	-0.215101
N	0.0946382082755400 0.2532160807703990 0.2607274638535085	-0.213548
N	0.2461725195948358 0.4067628780718312 0.2396155069994213	-0.219191
N	0.2544606282942918 0.0947852115329079 0.2607683932233207	-0.214264
N	0.5949866984806840 0.7521632837391204 0.7624617529820861	-0.211705
N	0.9065400337122617 0.7480750615422981 0.7375061117618695	-0.214383
N	0.7521638216413254 0.5949355461023277 0.7623626814156733	-0.212037
N	0.7475212497032458 0.9061867822963924 0.7367080189603233	-0.211664
F	0.3964523379652980 0.1961755012371598 0.7525942051489529	-0.615935
F	0.2054912634498853 0.3983479322617333 0.7535084577695359	-0.615637
F	0.1368922709008314 0.1429055548574519 0.7371581627028245	-0.628990
F	0.6996003914329672 0.8972890537738231 0.2545610068124917	-0.611226
F	0.8969800762935065 0.7021438052726111 0.2533407493404251	-0.609642
F	0.6401011626090067 0.6399266597636150 0.2283267302943879	-0.624161
F	0.2609399228769020 0.2599086172039058 0.5071428508609336	-0.595148
F	0.2423161407968292 0.2414788674223455 -0.0079977439270977	-0.596197
F	0.7399496766695848 0.7401742761006429 0.4909426782824280	-0.593195
F	0.7615738749394055 0.7620395464841790 0.0070424358515940	-0.591154
In	0.2487297827344142 0.2478851468439402 0.7492743940964950	1.548732
In	0.7477897966482796 0.7485679441167231 0.2487288499212993	1.544547
Cu	0.2508538177495264 0.2507750234222664 0.2494434332502680	0.713119
Cu	0.7507938613644209 0.7506048540344646 0.7496614253154511	0.708140
	  	
