#======================================================================

# CRYSTAL DATA

#----------------------------------------------------------------------

data_VESTA_phase_1


_pd_phase_name                         InFFIVE_7_Co
_cell_length_a                         18.72636
_cell_length_b                         18.72567
_cell_length_c                         8.49520
_cell_angle_alpha                      89.84715
_cell_angle_beta                       90.13987
_cell_angle_gamma                      90.03131
_symmetry_space_group_name_H-M         P 1
_symmetry_Int_Tables_number            1

loop_
_symmetry_equiv_pos_as_xyz
   x, y, z

loop_
   _atom_site_label
   _atom_site_fract_x
   _atom_site_fract_y
   _atom_site_fract_z
   _atom_site_charge
C	0.6677513389871885 0.8678164570184631 0.6929129750073002	0.090207
C	0.6153840270503594 0.9202177379914265 0.6959086781134604	-0.175297
C	0.5823089701224874 0.8866407954076544 0.4337759506940267	-0.170285
C	0.6347055949272709 0.8346128040630233 0.4395245618253039	0.091167
C	0.8325648241938866 0.6321944510778469 0.6912999651139110	0.092723
C	0.8847927324832355 0.5796382431985966 0.6957560127999853	-0.174152
C	0.9176738145815480 0.6133944839416786 0.4336641354505025	-0.169612
C	0.8654696933305482 0.6656478214339666 0.4380221089856219	0.085926
C	0.6321617269420154 0.6673399444513576 0.6920907301524698	0.089963
C	0.5796353917206775 0.6150520100699874 0.6957829289952721	-0.172569
C	0.6131686364359858 0.5822539825470440 0.4338994750220780	-0.168074
C	0.6652825550540296 0.6346089092461252 0.4389553503266549	0.087222
C	0.8680845377877501 0.8316531281771993 0.6918764638052979	0.093025
C	0.9203268168016180 0.8842695621487913 0.6958784326906647	-0.175830
C	0.8862165294869346 0.9177031664531062 0.4338221957440365	-0.170957
C	0.8337779776794222 0.8656338716428629 0.4391936111823497	0.088271
C	0.3316909429624541 0.3681122661249946 0.3081128710898304	0.092714
C	0.3842954403536674 0.4203691068162863 0.3041205859761646	-0.175682
C	0.4177056876941868 0.3862259815315447 0.5661704846235609	-0.170992
C	0.3656462825550675 0.3337722682301962 0.5607858622028964	0.088001
C	0.1673521444215622 0.1321536700702060 0.3079283938655806	0.089839
C	0.1150580255459471 0.0796339009821649 0.3042425330562460	-0.172172
C	0.0822374104455993 0.1131537120202066 0.5661159231277291	-0.168390
C	0.1345978515049502 0.1652631611198298 0.5610639954002352	0.087445
C	0.3678667059893226 0.1677081513810039 0.3070543330020115	0.091139
C	0.4202743225359722 0.1153442025579669 0.3040865021404750	-0.176003
C	0.3866856266167555 0.0822671473516844 0.5662439077917830	-0.170138
C	0.3346557617438337 0.1346629732607383 0.5604784997886330	0.090950
C	0.1321557943006262 0.3326107348143988 0.3087282114561156	0.092751
C	0.0795942135353538 0.3848383339486328 0.3042815315104602	-0.173768
C	0.1133536196525259 0.4177136829814427 0.5663366683619681	-0.170181
C	0.1656068711548918 0.3655099439875427 0.5619693357898132	0.085786
C	0.4317013357004571 0.0713391571338650 0.4361175789216888	0.140983
C	0.4873066688930896 0.0169188263478342 0.4350376970790556	-0.122383
C	0.0681404049343801 0.4287262506756660 0.4359850780299558	0.140721
C	0.0123993482280410 0.4831169313969763 0.4349557718675253	-0.122643
C	0.4284696815331491 0.4315825168285359 0.4359766678769823	0.142738
C	0.4829144374152449 0.4872643437015588 0.4350200208045754	-0.125561
C	0.0711725477337279 0.0681185326249849 0.4360037393748882	0.137250
C	0.0167544894244516 0.0124013329582151 0.4349743856473329	-0.119461
C	0.5681150216049597 0.5711804017392891 0.5640135911905998	0.137203
C	0.5123873741504879 0.5167664616146882 0.5650537896016856	-0.119314
C	0.9315527400952324 0.9284636744474970 0.5640293457074431	0.142954
C	0.9872293584467020 0.9829113202460090 0.5649977719957374	-0.125217
C	0.5713735181996452 0.9316531461490699 0.5638976563219835	0.140432
C	0.5169643150911630 0.9872654921025183 0.5649730248696495	-0.121923
C	0.9286865760692441 0.5681792381407913 0.5640287788049602	0.140585
C	0.9830758242403639 0.5124445423312347 0.5650592887171942	-0.122365
H	0.7023126726023041 0.8585548661202962 0.7943239878297625	0.102435
H	0.6098140329470574 0.9523289343209496 0.8019468160636457	0.122648
H	0.5493578207547578 0.8909529549475714 0.3284721069724726	0.118642
H	0.6445136601813184 0.7990375635023775 0.3410171879191813	0.098207
H	0.7974088514934978 0.6422349255593781 0.7905060558264958	0.098664
H	0.8906909191155195 0.5474786072156677 0.8021021956331521	0.119958
H	0.9504845837721663 0.6095159482181477 0.3285040883993054	0.120999
H	0.8565515480111511 0.7008668921983301 0.3376012895624270	0.102652
H	0.6422929987429596 0.7013859870443628 0.7931553450513485	0.101470
H	0.5477734913895211 0.6092867605544403 0.8022085666342470	0.121847
H	0.6090628843557442 0.5497151693608011 0.3283286412169745	0.120618
H	0.6998519981545458 0.6444775411040132 0.3386406786804971	0.101353
H	0.8591942031899957 0.7955893997750505 0.7908417696593536	0.100377
H	0.9526959877837990 0.8901050337073456 0.8018598238455780	0.120484
H	0.8904366602894966 0.9508295872154755 0.3287860140926735	0.119501
H	0.7972098199765192 0.8569884014151671 0.3411283537148625	0.100571
H	0.2956435545854884 0.3592295637851318 0.2091490877904391	0.100511
H	0.3901376947862834 0.4527571318315665 0.1981607662226040	0.120504
H	0.4508074576576065 0.3904301822345488 0.6712198767202657	0.119590
H	0.3570017788470892 0.2971836613075907 0.6588438061001172	0.100562
H	0.2014166610196602 0.1422833165538355 0.2068713439896654	0.101576
H	0.1092988722875126 0.0477894662216204 0.1978154980763049	0.121697
H	0.0496831230558601 0.1090461870987453 0.6716817251380176	0.120808
H	0.1444659120195972 0.1998150805170209 0.6613866472044252	0.101330
H	0.3586072923149581 0.2022627410740908 0.2056021449778658	0.102258
H	0.4523895612318302 0.1097801490309847 0.1980570391560945	0.122666
H	0.3909927900208066 0.0493257928418997 0.6715654192212291	0.118676
H	0.2990688931571883 0.1444553182603120 0.6590007386042133	0.098425
H	0.1421810485882016 0.2974480447839706 0.2095168963872249	0.098673
H	0.0474444157983759 0.3907374037418762 0.1979563679116829	0.119772
H	0.1094762293513590 0.4505165084180326 0.6714791281659555	0.121205
H	0.2008128117340170 0.3565960250376401 0.6623995331180456	0.102810
H	0.5071898027156720 0.0013645437508514 0.3191384280951368	0.105022
H	0.9923937498231148 0.4992580709408733 0.3191255731817919	0.105023
H	0.4988764559518173 0.5072699052667126 0.3192089307583761	0.106382
H	0.0009784982239567 0.9924649392442030 0.3190427971232733	0.103906
H	0.4924421841845709 0.5009840819143911 0.6809795433027225	0.103994
H	0.0072110838820896 0.9988526436072968 0.6808171377584135	0.106159
H	0.5014210725175677 0.0071339723597380 0.6808993435569495	0.104940
H	0.9991998675826189 0.4924438063306373 0.6809197278547262	0.104981
Co	0.2499359897581879 0.2499323855462915 0.4337466121659819	0.578402
Co	0.7499319434771843 0.7499280598852026 0.5662359886224919	0.578585
In	0.2505444049112027 0.2505638186158879 0.9346371997681736	1.541095
In	0.7505308761741838 0.7505357066311177 0.0652808306157655	1.540642
F	0.2500398626840414 0.2492947021485057 0.1810461349636896	-0.561912
F	0.2491490375001402 0.2499334990383082 0.6880306168184591	-0.561428
F	0.7492949223538948 0.7500146914687877 0.8188885457010665	-0.561569
F	0.7499389326392287 0.7491342258764787 0.3119039832171883	-0.561416
F	0.1727318449323184 0.1742105908126265 0.9351788559862827	-0.622784
F	0.2246345359459757 0.3562359854947482 0.9375417767969598	-0.623326
F	0.3557816759140611 0.2227948928558623 0.9317152387925662	-0.623056
F	0.7227484974928780 0.8557862194871491 0.0681902276864315	-0.622942
F	0.8562320499973415 0.7246657023185885 0.0623878965519379	-0.623309
F	0.6741921402477947 0.6726868168308477 0.0647610365007424	-0.622658
N	0.3252632413324256 0.1772194085307165 0.4333356677635871	-0.183584
N	0.1748446519526306 0.3229500820183003 0.4352128630556908	-0.182023
N	0.3226420871916708 0.3249943698403219 0.4341679303161847	-0.181218
N	0.1770563015277766 0.1746892583919182 0.4342157563820986	-0.184719
N	0.6747023488117282 0.6770531847740460 0.5658008191879335	-0.184527
N	0.8249888346101361 0.8226167283662911 0.5658116815732801	-0.181781
N	0.6772647531638477 0.8252247945965470 0.5666366638510154	-0.183124
N	0.8229123459257622 0.6748786935718333 0.5647954562612579	-0.182264
	  	
