#======================================================================

# CRYSTAL DATA

#----------------------------------------------------------------------

data_VESTA_phase_1


_pd_phase_name                         InFFIVE_2_Co
_cell_length_a                         13.57032
_cell_length_b                         13.57029
_cell_length_c                         8.54028
_cell_angle_alpha                      90.15399
_cell_angle_beta                       89.84473
_cell_angle_gamma                      90.06241
_symmetry_space_group_name_H-M         P 1
_symmetry_Int_Tables_number            1

loop_
_symmetry_equiv_pos_as_xyz
   x, y, z

loop_
   _atom_site_label
   _atom_site_fract_x
   _atom_site_fract_y
   _atom_site_fract_z
   _atom_site_charge
C	0.5289728067956480 0.6955426564248258 0.1276989338081742	0.090109
C	0.5296038553157041 0.7976157449817991 0.1330550457619860	-0.162321
C	0.4691041557279841 0.3052915463303691 0.1282668069766356	0.088454
C	0.4691705738131827 0.2031768063312834 0.1327877568697509	-0.163514
C	0.3051787818479311 0.5301596786845660 0.1267175756485805	0.089855
C	0.2031120222607624 0.5304158665364609 0.1322466762260983	-0.162879
C	0.6953678825713190 0.4706360292097390 0.1282986443498312	0.087184
C	0.7974805827208203 0.4702341219848492 0.1325519789697597	-0.162832
C	0.4706413109540079 0.6953659146128502 0.8717024760038795	0.087161
C	0.4702406042276625 0.7974790452385877 0.8674443499615908	-0.162810
C	0.5301647239162057 0.3051739432403089 0.8732842920973084	0.089611
C	0.5304202828857971 0.2031073435109216 0.8677541821087815	-0.162633
C	0.6955469538032638 0.5289659244936136 0.8722994105356469	0.090218
C	0.7976202934056945 0.5295953482422807 0.8669413809164582	-0.162293
C	0.3052998653804381 0.4690993915300650 0.8717360995641014	0.088370
C	0.2031849879689423 0.4691660967051449 0.8672142233969549	-0.163542
C	0.4999528008981285 0.1493272109951823 0.0001831161961202	0.169766
C	0.5001247992113934 0.0452434334944785 0.0001500935064621	-0.094895
C	0.5000331315069486 0.8512999663759334 0.0003970696434549	0.166515
C	0.5001348495592856 0.9554021572017282 0.0005182563838132	-0.088523
C	0.8513051033298418 0.5000255939326518 -0.0004019139694268	0.166514
C	0.9554056746030231 0.5001297233258839 -0.0005222525360329	-0.088784
C	0.1493340411006509 0.4999476391557045 -0.0001830640438256	0.169809
C	0.0452520395437308 0.5001189697645924 -0.0001518554106214	-0.094633
H	0.5501495243568424 0.6517988673602088 0.2285794168650120	0.099999
H	0.5530319152820377 0.8351367055184988 0.2394212091192919	0.131316
H	0.4446105454379592 0.3487442111405842 0.2285913296446321	0.103664
H	0.4445663719709388 0.1655135458137820 0.2383197910695566	0.132530
H	0.3493516832642456 0.5540881197092391 0.2260880110334960	0.100393
H	0.1654655518803966 0.5547597260356386 0.2381592492055020	0.130831
H	0.6523243441565255 0.4489021329306135 0.2302741147908796	0.103813
H	0.8348851879891650 0.4464330272670585 0.2385048016140579	0.133453
H	0.4489035154682307 0.6523237855543940 0.7697302497601684	0.103833
H	0.4464385571818344 0.8348776001711442 0.7614892733194851	0.133457
H	0.5540933851750952 0.3493462012268462 0.7739117457577767	0.100414
H	0.5547642597866466 0.1654639154454000 0.7618408371702832	0.130769
H	0.6518049705401002 0.5501420959613262 0.7714166033146631	0.100042
H	0.8351431605828115 0.5530262079917677 0.7605746128020396	0.131245
H	0.3487522064283184 0.4446063862349678 0.7714104458807621	0.103742
H	0.1655224041968680 0.4445635897541829 0.7616808866677527	0.132598
Co	0.5001538164123168 0.5001480486809282 -0.0000016947187440	0.585140
In	0.4998225037485604 0.4998641986437667 0.5000033370365966	1.536896
F	0.4998623069373569 0.5011361834737484 0.7463346945154676	-0.561955
F	0.5011199611763196 0.4998627030529636 0.2536733185240870	-0.561879
F	0.4586661685557863 0.6442395683219461 0.4986016559508132	-0.616892
F	0.3936440189639948 0.3937141697443329 0.4999968151289257	-0.619639
F	0.6442128873720716 0.4587489903332715 0.5014081363910490	-0.616872
N	0.4997564252888437 0.3560075109416914 0.0008914844304031	-0.181417
N	0.4999446612234039 0.6446704156209768 -0.0004836069589355	-0.183896
N	0.6446739119002679 0.4999406957871421 0.0004844571620396	-0.183952
N	0.3560136973746788 0.4997512759797400 -0.0008903684425275	-0.181543
	  	
