#======================================================================

# CRYSTAL DATA

#----------------------------------------------------------------------

data_VESTA_phase_1


_pd_phase_name                         InFFIVE_4_Cu_i
_cell_length_a                         23.41979
_cell_length_b                         20.32298
_cell_length_c                         9.75137
_cell_angle_alpha                      89.99957
_cell_angle_beta                       90.00210
_cell_angle_gamma                      89.99999
_symmetry_space_group_name_H-M         P 1
_symmetry_Int_Tables_number            1

loop_
_symmetry_equiv_pos_as_xyz
   x, y, z

loop_
   _atom_site_label
   _atom_site_fract_x
   _atom_site_fract_y
   _atom_site_fract_z
   _atom_site_charge
C	0.4178643266854129 0.5970212745511123 0.6319063315214817	0.102784
C	0.3741249837887565 0.5510675399591417 0.6299599111898896	-0.161174
C	0.2784120618223682 0.4489405049428000 0.6293822848601388	-0.114030
C	0.2320042680284920 0.4065258244455581 0.6282990088670124	-0.113083
C	0.1303260315243462 0.3197155951396395 0.6272933925652486	-0.165869
C	0.0835481934206858 0.2778198738166093 0.6305387306146272	0.095402
C	0.9178978441124200 0.0969772794542776 0.6319127757370181	0.102867
C	0.8741475673927536 0.0510326276887639 0.6299528284164698	-0.161562
C	0.7783960595702103 0.9489484920551812 0.6293760896355997	-0.114016
C	0.7319869315487896 0.9065329110125321 0.6283033769359080	-0.113182
C	0.6302933873192326 0.8197586413541442 0.6272991702256550	-0.166103
C	0.5835144401503504 0.7778623874201778 0.6305425065483492	0.095614
C	0.5825524571974089 0.4024925175372113 0.1319465897446088	0.100456
C	0.6261676754609411 0.4486379188705841 0.1299187994044030	-0.168346
C	0.7219913585828703 0.5506365251825016 0.1294246006245686	-0.111872
C	0.7682554097153035 0.5932377225946088 0.1282963642707231	-0.111244
C	0.8695488647881885 0.6804601333948948 0.1272682091987554	-0.163594
C	0.9163383199895420 0.7223431087391491 0.1304026721533455	0.093118
C	0.0825074167227971 0.9025556440416542 0.1319522026154571	0.100238
C	0.1261393940068460 0.9486804683212524 0.1299264958156161	-0.169206
C	0.2220052476077806 0.0506282646164106 0.1294268418855683	-0.111992
C	0.2682718683109123 0.0932233094140556 0.1282934113028126	-0.111218
C	0.3695853974020081 0.1804216487693409 0.1272695893467968	-0.163856
C	0.4163778839462295 0.2223007041048703 0.1304021055489709	0.093097
C	0.5826702553094681 0.5973696928513113 0.8680728506030114	0.103168
C	0.6262798058035147 0.5512072868123891 0.8700814383192919	-0.169410
C	0.7219718666455037 0.4489845337839182 0.8705963482562014	-0.114642
C	0.7683055617557616 0.4064895806168095 0.8716896723875845	-0.108781
C	0.8702051291794093 0.3201622186429899 0.8727301208592244	-0.164871
C	0.9170345493752939 0.2783321447461537 0.8695705377506442	0.093631
C	0.0826719480726310 0.0973974790431985 0.8680838934442923	0.104072
C	0.1262886894577173 0.0512415427444585 0.8700900469486444	-0.169485
C	0.2219502125750042 0.9489687250648772 0.8705969941533860	-0.114495
C	0.2682845097234223 0.9064739203504880 0.8716866473471102	-0.109023
C	0.3702263043945414 0.8201908078386400 0.8727308834162979	-0.164738
C	0.4170626781298322 0.7783640095513077 0.8695752396367791	0.094364
C	0.4181850504056799 0.4031431658464849 0.3680995704333656	0.099326
C	0.3743892044481344 0.4490264640351594 0.3700167104039350	-0.163609
C	0.2782426799194737 0.5505078215390362 0.3705849152584274	-0.113959
C	0.2319692981954398 0.5931179426977790 0.3716962638559314	-0.114075
C	0.1309494414042244 0.6808978589666571 0.3727300628938902	-0.164084
C	0.0841181490958712 0.7227263713174081 0.3695461787598883	0.093607
C	0.9181618265702710 0.9031110976647188 0.3681006952345689	0.099256
C	0.8743674294673917 0.9489942375205576 0.3700149426036405	-0.163257
C	0.7782500801575412 0.0505053044456064 0.3705840501441766	-0.113926
C	0.7319812906531746 0.0931211995021939 0.3716942100257563	-0.114249
C	0.6309547139328240 0.1808890808699448 0.3727265755889728	-0.164192
C	0.5841203803012293 0.2227140917907955 0.3695401374854923	0.093562
C	0.5825538752459677 0.4024971180217048 0.3680335653225308	0.100308
C	0.6261680801241413 0.4486436137078827 0.3700617437087681	-0.168344
C	0.7219925537904053 0.5506366292825107 0.3705634898518038	-0.111800
C	0.7682567575599998 0.5932374000883441 0.3716972834386061	-0.111143
C	0.8695510606960759 0.6804602933894289 0.3727359906302296	-0.163634
C	0.9163401485738772 0.7223451410812336 0.3696010150824623	0.093085
C	0.0825069458792438 0.9025590061101273 0.3680370054510548	0.099968
C	0.1261387592274236 0.9486835907890210 0.3700664153917719	-0.169096
C	0.2220053489989793 0.0506318851285482 0.3705722137743893	-0.112080
C	0.2682727172570863 0.0932267156776690 0.3717045990160410	-0.111209
C	0.3695850632803061 0.1804214635948516 0.3727358212000149	-0.163977
C	0.4163770901879058 0.2223005677004661 0.3696092917722740	0.093131
C	0.4178649051004343 0.5970249174296299 0.8680982713590620	0.102854
C	0.3741259520290086 0.5510717483878271 0.8700470846328620	-0.161241
C	0.2784105515288929 0.4489432518253493 0.8706262606719635	-0.114017
C	0.2320033011223787 0.4065277963347355 0.8717018162535133	-0.113053
C	0.1303278170220757 0.3197156041266233 0.8727017164611629	-0.165690
C	0.0835495820719897 0.2778206930616512 0.8694528367386664	0.095195
C	0.9178981129266628 0.0969795711356938 0.8680934633238332	0.103019
C	0.8741478834493562 0.0510358028242553 0.8700474971719717	-0.161649
C	0.7783974544817016 0.9489518951975270 0.8706257047640793	-0.114077
C	0.7319886272047627 0.9065362499291220 0.8716989278049351	-0.113072
C	0.6302941815820715 0.8197610036277575 0.8727071037403098	-0.166026
C	0.5835142570377867 0.7778653482278747 0.8694629178374723	0.095731
C	0.4181845565245875 0.4031422474087888 0.1319041251386595	0.099362
C	0.3743875910443086 0.4490256768902958 0.1299840660071173	-0.163645
C	0.2782409078248831 0.5505108494174181 0.1294159822038426	-0.113868
C	0.2319671005330425 0.5931203992592863 0.1283028119257247	-0.114169
C	0.1309479945690537 0.6808997002095483 0.1272681056178067	-0.164072
C	0.0841169524790599 0.7227284880571035 0.1304461866267676	0.093538
C	0.9181617454931210 0.9031139797217089 0.1319031319739599	0.099217
C	0.8743676242415146 0.9489978681426169 0.1299851842641792	-0.163225
C	0.7782491769463220 0.0505090918706230 0.1294138410759205	-0.113857
C	0.7319805585336224 0.0931240092054317 0.1283002842117906	-0.114182
C	0.6309520836591822 0.1808933003285028 0.1272694218626953	-0.164228
C	0.5841175300576992 0.2227183411492967 0.1304524981352632	0.093606
C	0.5826738510180400 0.5973775055228391 0.6318965229828988	0.103268
C	0.6262819051724760 0.5512150104985645 0.6298945196385144	-0.169172
C	0.7219694723037808 0.4489832064422733 0.6293911573557106	-0.114745
C	0.7683039496883356 0.4064903449475494 0.6283042011550495	-0.108735
C	0.8702030451956827 0.3201635134180656 0.6272655472279314	-0.164947
C	0.9170327524685592 0.2783336307342488 0.6304295668627037	0.093651
C	0.0826696500143587 0.0973997049904501 0.6319076209402134	0.104210
C	0.1262873107580861 0.0512439081848734 0.6299054143329182	-0.169694
C	0.2219504539896293 0.9489711435283049 0.6293998748789087	-0.114587
C	0.2682842141196313 0.9064760948509669 0.6283183919207280	-0.108942
C	0.3702246489138708 0.8201923708321364 0.6272833940291956	-0.164888
C	0.4170599286919018 0.7783665754762289 0.6304449004866810	0.094663
C	0.3501178922091743 0.5244274586276965 0.7500031784874874	0.116829
C	0.3030063581311807 0.4744248447898606 0.7500046752840018	0.069604
C	0.2062241728802308 0.3849031937916059 0.7499989987218595	0.062752
C	0.1556534504589637 0.3414546047960268 0.7499990139915641	0.105268
C	0.8501193987699233 0.0244154997520396 0.7499999535017426	0.116084
C	0.8029930214699791 0.9744320122868504 0.7499998245327446	0.069230
C	0.7062060453652533 0.8849189016549132 0.7500018806717910	0.063108
C	0.6556277805034059 0.8414817035014025 0.7500034431694665	0.105554
C	0.6502209151034152 0.4753770226398928 0.2499903838272625	0.119320
C	0.6973532913722984 0.5252420184741383 0.2499927707228505	0.071823
C	0.7938658626424450 0.6150339492062237 0.2499985860485967	0.067123
C	0.8443053572665343 0.6586480239134879 0.2500015768537680	0.100732
C	0.1502204777225340 0.9753920749246932 0.2499977688244565	0.119319
C	0.1973635292486768 0.0252400380975192 0.2499990373367587	0.071705
C	0.2938850026828125 0.1150165814782731 0.2499985310662097	0.067252
C	0.3443318898308718 0.1586249926993558 0.2500012932107646	0.100909
C	0.6502661619044591 0.5244397880520361 0.7499869611847555	0.114215
C	0.6973447020769374 0.4744056027547520 0.7499934200262001	0.066953
C	0.7940287501465662 0.3848470948956762 0.7499956253713386	0.065241
C	0.8447384878269814 0.3416184536148654 0.7499983132535610	0.105318
C	0.1502630764899716 0.0244584158611214 0.7499967597167954	0.114313
C	0.1973306876769925 0.9744066667367519 0.7499978716042092	0.066483
C	0.2940190618698195 0.8848445724635863 0.7500036614579944	0.065414
C	0.3447417678321692 0.8416375940303666 0.7500085494271188	0.105264
C	0.3501979784675758 0.4754982335329186 0.2499991436207183	0.123853
C	0.3029206883788274 0.5251765134444317 0.2499992480643344	0.074225
C	0.2063852715511385 0.6150119504570435 0.2500000610056659	0.063785
C	0.1560909979386684 0.6588757303384444 0.2499990939073105	0.103538
C	0.8501839540385021 0.9754789556435427 0.2499994922206517	0.123776
C	0.8029191584649450 0.0251704544542090 0.2499984459930106	0.074254
C	0.7063955379409672 0.1150127040053727 0.2499959789066538	0.063824
C	0.6561013556516110 0.1588713665305587 0.2499959234664709	0.103726
H	0.4361297507709483 0.6165223519878118 0.5369836355549518	0.105885
H	0.3604530723175687 0.5380759668822407 0.5283768756769598	0.104723
H	0.2949504829774938 0.4611328683600451 0.5297362845326276	0.085921
H	0.2161130596797448 0.3904527881696175 0.5288188828941004	0.103830
H	0.1467597576889918 0.3345492480605569 0.5276341730050456	0.119622
H	0.0630427144374119 0.2589077753234321 0.5376171975121653	0.107692
H	0.9361769116690161 0.1164605327656503 0.5369912881483380	0.106054
H	0.8604742567991857 0.0380488186000704 0.5283660657175940	0.104824
H	0.7949274116420784 0.9611411017169685 0.5297220227018519	0.085940
H	0.7160978830217251 0.8904513329909814 0.5288307362301099	0.103902
H	0.6467167362882991 0.8346039358328166 0.5276450118195999	0.119643
H	0.5629933666195105 0.7589719494313425 0.5376186267098233	0.107680
H	0.5641686309222809 0.3823469752743298 0.0377148552719435	0.108871
H	0.6400192295529861 0.4619075726078474 0.0286205509895161	0.102657
H	0.7056342704558617 0.5383052160266715 0.0297187682746299	0.084746
H	0.7842221001935450 0.6092297903394430 0.0288739612839717	0.104931
H	0.8533163143823337 0.6658830234148023 0.0272375144714467	0.122160
H	0.9363095482834526 0.7410361856905132 0.0366311785471084	0.107872
H	0.0640617271592774 0.8824580387847901 0.0377430550447403	0.109202
H	0.1399697717030866 0.9619874956668730 0.0286279941441646	0.102808
H	0.2056623562249160 0.0382784607489889 0.0297133069281209	0.084833
H	0.2842420615241732 0.1092199005376185 0.0288767258305103	0.104982
H	0.3533638073467520 0.1658315955733859 0.0272335457997058	0.122216
H	0.4363757178039009 0.2409587112572687 0.0366284866127331	0.107895
H	0.5646685926434157 0.6175106249665590 -0.0372327560565087	0.109179
H	0.6401575974752225 0.5382928307703454 -0.0284273397045269	0.105085
H	0.7056801050127749 0.4614142645602005 -0.0296798534242632	0.085382
H	0.7842450872496465 0.3904859199593795 -0.0288681978332213	0.104674
H	0.8541293109864104 0.3351891870191689 -0.0274032563345328	0.121224
H	0.9375976762417421 0.2601467976793687 -0.0369329559966362	0.109742
H	0.0646801810442081 0.1175579906448823 -0.0372191877482994	0.109184
H	0.1401839649180074 0.0383440928254923 -0.0284316991035545	0.104990
H	0.2056479742445656 0.9613855299947789 -0.0296820348645352	0.085272
H	0.2842190099910421 0.8904662542450549 -0.0288657213876587	0.104644
H	0.3541417464468357 0.8352304701420311 -0.0274112128610749	0.120941
H	0.4376460622525437 0.7601842700862815 -0.0369433919741672	0.109523
H	0.4368995111317203 0.3837864161368199 0.4626641145239330	0.107800
H	0.3608810733320106 0.4624875046135432 0.4714508487656575	0.103200
H	0.2946901738036265 0.5381890024166838 0.4702377419450641	0.085715
H	0.2160458428026164 0.6091223623315031 0.4711826469509081	0.103854
H	0.1475049662335743 0.6665009418672465 0.4725694603176197	0.119838
H	0.0641630817501937 0.7418677399551057 0.4629573095720435	0.108363
H	0.9368989375782520 0.8837306746624866 0.4626269076319133	0.107945
H	0.8608443318501361 0.9624544992019598 0.4714324101894426	0.102816
H	0.7947014862953611 0.0381926283928386 0.4702392292566078	0.085755
H	0.7160628462583706 0.1091340958918850 0.4711819900433719	0.103835
H	0.6475273096552875 0.1664828998265818 0.4725463769819626	0.119676
H	0.5641404068894114 0.2418847569820034 0.4628988893701932	0.108434
H	0.5641712724601673 0.3823522924189344 0.4622638532481952	0.108995
H	0.6400173094976961 0.4619185407818631 0.4713625298753676	0.102663
H	0.7056372715955465 0.5383045303418605 0.4702693994689103	0.084887
H	0.7842243580966577 0.6092290647791363 0.4711210779045280	0.104854
H	0.8533188526179266 0.6658848883124955 0.4727661473895469	0.122210
H	0.9363110365200239 0.7410374582025516 0.4633776998165968	0.107886
H	0.0640598489093574 0.8824624202347096 0.4622440190626161	0.109297
H	0.1399687775913167 0.9619921327304860 0.4713669161497268	0.102784
H	0.2056623615524958 0.0382851765777867 0.4702839620402426	0.084892
H	0.2842436419493152 0.1092266947880051 0.4711223069143098	0.104978
H	0.3533643536483581 0.1658325635925486 0.4727682411810548	0.122318
H	0.4363708453196231 0.2409550891110971 0.4633972712273084	0.107982
H	0.4361373885342101 0.6165316829930794 -0.0369964299229033	0.105836
H	0.3604540622265522 0.5380815287194267 -0.0283695068658662	0.104636
H	0.2949469598852245 0.4611372489150360 -0.0297239716089248	0.085921
H	0.2161117423634048 0.3904558443672471 -0.0288210272457728	0.103827
H	0.1467620312379523 0.3345510524196131 -0.0276373525163460	0.119608
H	0.0630446286735029 0.2589092596897806 -0.0376283261879221	0.107747
H	0.9361782559517208 0.1164631071448351 -0.0369856933237864	0.106031
H	0.8604739221348000 0.0380534117849636 -0.0283656868634471	0.104862
H	0.7949297872823732 0.9611465785853337 -0.0297235036883479	0.085885
H	0.7161011420271909 0.8904570537055841 -0.0288292056485748	0.103905
H	0.6467175626311048 0.8346067934769255 -0.0276333024459357	0.119561
H	0.5629940242835157 0.7589789155375884 -0.0376114750934465	0.107614
H	0.4368975290809455 0.3837861349439161 0.0373386814301551	0.107819
H	0.3608777330490869 0.4624844729214023 0.0285486409557561	0.103168
H	0.2946876820775402 0.5381937608239661 0.0297637524456917	0.085663
H	0.2160418640100980 0.6091259531695636 0.0288169700662104	0.103864
H	0.1475024707678554 0.6665040601858613 0.0274297057194199	0.119856
H	0.0641617425978306 0.7418707309405544 0.0370325597180117	0.108411
H	0.9368976682908962 0.8837347436944843 0.0373774952474302	0.107929
H	0.8608456826147910 0.9624605383526752 0.0285664310531118	0.102864
H	0.7947005727719521 0.0381983089244922 0.0297584685516527	0.085759
H	0.7160608029436006 0.1091385729431548 0.0288104261285780	0.103781
H	0.6475233679739874 0.1664903123979448 0.0274491104659085	0.119762
H	0.5641353117510581 0.2418904869223426 0.0370940447421599	0.108378
H	0.5646847292970671 0.6175242304862821 0.5371899887840100	0.109143
H	0.6401639784438110 0.5383056715554468 0.5284030100461674	0.104990
H	0.7056771813098615 0.4614133877741016 0.5296664357817705	0.085337
H	0.7842430266006009 0.3904877139515336 0.5288619138986201	0.104658
H	0.8541263772974702 0.3351915066802089 0.5273977695655787	0.121332
H	0.9375950281255869 0.2601494957877634 0.5369344571498198	0.109647
H	0.0646778012378253 0.1175609345046565 0.5372114606392220	0.109201
H	0.1401824904661640 0.0383490291232707 0.5284250723475513	0.105017
H	0.2056488041517093 0.9613899578877254 0.5296768178080613	0.085334
H	0.2842188055631960 0.8904694248155478 0.5288719175559762	0.104622
H	0.3541384111885125 0.8352320932228389 0.5274225442357726	0.120914
H	0.4376450140600666 0.7601789074252980 0.5369801533257381	0.109330
Cu	0.5000264656170824 0.6885555448374876 0.7499955132416827	0.666219
Cu	0.0000173513336793 0.1885665586772556 0.7500023383274963	0.666194
Cu	0.4999912606864481 0.3111449805925377 0.2500064578089618	0.667158
Cu	-0.0000021293701753 0.8111345805801400 0.2499936955444340	0.667381
F	0.5000350905819908 0.6861303731065794 0.4714015937993867	-0.622155
F	-0.0000149242320940 0.1862522359099587 0.4713403735538898	-0.622698
F	0.4992948211393369 0.3134030647684528 -0.0283998515101533	-0.622378
F	-0.0006011191278819 0.8136242407584878 -0.0283430126165217	-0.622238
F	0.5000768471581577 0.6859548455221778 0.0286225588566856	-0.622182
F	-0.0000154050571195 0.1862447579078721 0.0286306834949619	-0.622663
F	0.4993513133435358 0.3134618980072805 0.5283636839790622	-0.622449
F	-0.0005634738112520 0.8136489081756207 0.5283712242079340	-0.622299
F	0.4722730403809233 0.7777583389562237 0.2495977003922568	-0.641981
F	0.5806265473849147 0.6508024777468464 0.2503736977494353	-0.634075
F	0.9701888014004106 0.2772616574552299 0.2499622038535226	-0.641549
F	0.0805810017872164 0.1522531363060095 0.2499903238047438	-0.635398
F	0.5820346575105745 0.2953945434694056 0.7501174943563793	-0.641477
F	0.4708495589983497 0.4117929996440048 0.7501928103040797	-0.629914
F	0.0814306486028919 0.7912605043739106 0.7500934857029860	-0.640891
F	0.9737675358026692 0.9125332215000586 0.7500526523503036	-0.629849
F	0.4365645806646293 0.6111879934698233 0.2503277984654509	-0.626539
F	0.9369020171637865 0.1105370501903907 0.2499273716684293	-0.626812
F	0.4334573214279067 0.2476694412070284 0.7496959130767542	-0.640216
F	0.9322322728038965 0.7493633925525960 0.7499094739152434	-0.640394
N	0.4397797723848639 0.6197573580869559 0.7499995667619892	-0.213533
N	0.5610087562041556 0.7570215019490528 0.7500022877745807	-0.220194
N	0.9398124652884983 0.1197137342884950 0.7500018894184575	-0.213161
N	0.0610288420517403 0.2569962018304534 0.7499942862682772	-0.220062
N	0.5606396423235642 0.3797616261719847 0.2499914833360490	-0.212098
N	0.4389222015683386 0.2430482437590997 0.2500063817510606	-0.222530
N	0.0606091931999748 0.8798131969707299 0.2499940833530016	-0.211311
N	0.9388907432376701 0.7430759990973532 0.2500034980513364	-0.222869
N	0.5607081210104994 0.6200454682542071 0.7499848223121318	-0.213427
N	0.4394053567292601 0.7573135023113622 0.7500109786687342	-0.221944
N	0.0607048017055141 0.1200584359546472 0.7499955229402552	-0.213810
N	0.9393853942110222 0.2572795061984993 0.7500006883688886	-0.221689
N	0.4399972518113105 0.3803052536030425 0.2500025030564427	-0.214530
N	0.5613697329688326 0.2431839851912143 0.2499973939321307	-0.222128
N	0.9399777923631166 0.8802868955827551 0.2500018564965586	-0.214184
N	0.0613685646678070 0.7432004948850166 0.2499960678826953	-0.222544
In	0.4980066002155557 0.6822410664420577 0.2500419138650406	1.556157
In	-0.0024022472141118 0.1824181207016604 0.2499860496202219	1.557874
In	0.4969480680451894 0.3163303966947301 0.7500079172166365	1.560116
In	-0.0027945637769492 0.8161461125632004 0.7500070165344597	1.559204
	  	
