#======================================================================

# CRYSTAL DATA

#----------------------------------------------------------------------

data_VESTA_phase_1


_pd_phase_name                         InFFIVE_1_Zn
_cell_length_a                         11.38417
_cell_length_b                         11.38419
_cell_length_c                         8.31506
_cell_angle_alpha                      90.12109
_cell_angle_beta                       89.87870
_cell_angle_gamma                      89.98683
_symmetry_space_group_name_H-M         P 1
_symmetry_Int_Tables_number            1

loop_
_symmetry_equiv_pos_as_xyz
   x, y, z

loop_
   _atom_site_label
   _atom_site_fract_x
   _atom_site_fract_y
   _atom_site_fract_z
   _atom_site_charge
C	0.2509730096784858 0.4583646583473470 0.3718990005330998	0.101820
C	0.1288268316540543 0.4581550436142772 0.3670257592134692	-0.175068
C	0.7495979345869974 0.5409207288907106 0.3725630243919860	0.107138
C	0.8716820901060489 0.5417574068354691 0.3672398700033266	-0.173216
C	0.5411577523830589 0.2507371714415000 0.3729041335943145	0.103597
C	0.5418189397484263 0.1286420362427758 0.3673118313803241	-0.174301
C	0.4586466270650156 0.7493038895388535 0.3724463599123158	0.101754
C	0.4582547976155381 0.8714275042110947 0.3675116235342576	-0.172949
C	0.7493049754847606 0.4586457863167549 0.6275533941642737	0.101783
C	0.8714287923543302 0.4582535591008579 0.6324874776235704	-0.172937
C	0.2507376516488716 0.5411562604308993 0.6270933691593794	0.103652
C	0.1286423816385807 0.5418183937078102 0.6326870199377052	-0.174406
C	0.4583653822371540 0.2509721404131151 0.6280985871000273	0.101757
C	0.4581560794815582 0.1288261899486273 0.6329738767975027	-0.175051
C	0.5409210034623739 0.7495965450259430 0.6274359946383076	0.107161
C	0.5417565525738807 0.8716805008825508 0.6327589611664411	-0.173219
C	0.0650993202440813 0.5000825898295687 0.4998793843622345	0.104336
C	0.9351685248618700 0.5000730741585908 0.4998759593950177	0.098372
C	0.5000828198961202 0.0650987633709318 0.5001189482971442	0.104261
C	0.5000737403319090 0.9351672592308445 0.5001228908427715	0.098454
H	0.3030162967326950 0.4251875766193826 0.2710071978426936	0.097086
H	0.0840547582935486 0.4230866762882271 0.2615039114992712	0.124548
H	0.6974336307122841 0.5723758973209685 0.2717905874737180	0.092826
H	0.9163353971650112 0.5764560575240132 0.2613985173165046	0.121256
H	0.5741729180869884 0.3034487722417960 0.2731186123064028	0.092320
H	0.5767118355362172 0.0836360178977522 0.2616052029568698	0.121797
H	0.4275213171453724 0.6978571222876095 0.2702775792371744	0.098201
H	0.4235473240373695 0.9156487405904820 0.2615558601585256	0.124279
H	0.6978581317948108 0.4275200822174633 0.7297217028186977	0.098188
H	0.9156496891623567 0.4235457483576480 0.7384437095425394	0.124286
H	0.3034482393706759 0.5741708625619070 0.7268800243846896	0.092318
H	0.0836358895564231 0.5767111706399214 0.7383933891646601	0.121825
H	0.4251871392327942 0.3030168362642822 0.7289877087159196	0.097112
H	0.4230872300358139 0.0840531627642769 0.7384939879306178	0.124552
H	0.5723764016862045 0.6974317686888214 0.7282080422281693	0.092774
H	0.5764566286926092 0.9163335415248147 0.7385994795202585	0.121279
Zn	0.5004512171418902 0.5004506261553012 0.5000013602252573	0.732977
In	0.4997230742761973 0.4997248414804988 0.0000027745596083	1.557537
F	0.5005947389451496 0.4999590032280088 0.7464364281185200	-0.560131
F	0.4999659702027460 0.5005920412501372 0.2535767929796252	-0.560097
F	0.3736184009876124 0.3736610315982207 0.0000094043700131	-0.618854
F	0.6719298606402849 0.4531036646448411 0.0018105160616669	-0.618210
F	0.4531104350926768 0.6719346220439099 0.9981920074148439	-0.618200
N	0.3108260751633738 0.4997601036828929 0.4995148782209422	-0.222958
N	0.6895008557723364 0.4997399546502678 0.4999838152747735	-0.228355
N	0.4997611525260037 0.3108248000492823 0.5004834141274858	-0.222940
N	0.4997402029574207 0.6894998368887409 0.5000157895030819	-0.228354
	  	
