#======================================================================

# CRYSTAL DATA

#----------------------------------------------------------------------

data_VESTA_phase_1


_pd_phase_name                         InFFIVE_6_Zn_i
_cell_length_a                         17.84303
_cell_length_b                         17.84305
_cell_length_c                         16.24438
_cell_angle_alpha                      90.00002
_cell_angle_beta                       89.99990
_cell_angle_gamma                      89.97330
_symmetry_space_group_name_H-M         P 1
_symmetry_Int_Tables_number            1

loop_
_symmetry_equiv_pos_as_xyz
   x, y, z

loop_
   _atom_site_label
   _atom_site_fract_x
   _atom_site_fract_y
   _atom_site_fract_z
   _atom_site_charge
N	0.2440213911849096 0.1288984865568180 0.1279482225928572	-0.231856
N	0.2561629561295290 0.3711452911764594 0.1284718034095249	-0.233625
N	0.3710915815531021 0.2438800814740514 0.1282870209897733	-0.232427
N	0.1288633371533010 0.2559274122512115 0.1276403548053563	-0.232939
N	0.7561195046591082 0.6289078044509896 0.3717125418692062	-0.232450
N	0.7440731450822968 0.8711367778531717 0.3723586926602996	-0.232897
N	0.6288551556708359 0.7438377220155423 0.3715278535125225	-0.233689
N	0.8711012247883108 0.7559775119015838 0.3720511741225399	-0.231807
N	0.7561625667330301 0.8711448233408240 0.8715278236352257	-0.233689
N	0.7440225531112394 0.6288980530046155 0.8720511082371802	-0.231800
N	0.6288632339088134 0.7559272957507320 0.8723595861265702	-0.232917
N	0.8710922775885933 0.7438806799675196 0.8717126773802167	-0.232422
N	0.2440725280260534 0.3711361821971234 0.6276402855121244	-0.232849
N	0.2561197580671767 0.1289078699141600 0.6282863802131543	-0.232535
N	0.3711006377767879 0.2559777213736349 0.6279476490546683	-0.231790
N	0.1288553112681519 0.2438369059106147 0.6284713444272083	-0.233684
C	0.2016353212706065 0.0928202950414115 0.1837063481512606	0.109706
C	0.1933735108518640 0.0153728312360436 0.1833840092624972	-0.180131
C	0.2323459624177759 0.9726839448324500 0.1248994218467646	0.111897
C	0.2775899091882906 0.0109049567158058 0.0681189971158292	-0.180820
C	0.2810158022159379 0.0886539765267642 0.0709517480719665	0.103445
C	0.2264847935944211 0.8903412627878937 0.1237303883398463	0.060770
C	0.2905131072593036 0.8465430602473141 0.1208346255586072	-0.173707
C	0.2861776443755430 0.7674976144532262 0.1220016261158283	0.084950
C	0.1487731161409075 0.7784204129589635 0.1245238433494270	-0.124408
C	0.1550031545329590 0.8552573484990442 0.1267290536723297	-0.134678
C	0.2985126942239216 0.4071650148885559 0.1845028097169654	0.098103
C	0.3066677330028144 0.4846420378242623 0.1840612255933620	-0.183569
C	0.2675925002143346 0.5273337898236423 0.1255586464937460	0.109697
C	0.2225864425178131 0.4891074723900765 0.0686050362731036	-0.182280
C	0.2193405503992852 0.4112625764796360 0.0711165533328344	0.102163
C	0.2735012745321294 0.6096823453360607 0.1241351193259452	0.061310
C	0.2094786850651784 0.6534734735224063 0.1210105901394935	-0.173103
C	0.2137792946769164 0.7325232014849848 0.1220086456631784	0.085575
C	0.3511538643979847 0.7215799151940974 0.1245765590191816	-0.123951
C	0.3449978835741411 0.6447542295876569 0.1269416177927300	-0.136881
C	0.4071797831516141 0.2013368025714997 0.1839940646554769	0.101622
C	0.4846148900692201 0.1932853316073878 0.1838760563343225	-0.184182
C	0.5273243842488290 0.2324792581355544 0.1255229917358895	0.112894
C	0.4891021893063165 0.2775513749530941 0.0686382578459519	-0.178034
C	0.4112973181025698 0.2808326185014647 0.0712817130495144	0.110496
C	0.6096656845575203 0.2265401751386003 0.1241447678242128	0.060655
C	0.6534290651532176 0.2905494289769295 0.1210438507439067	-0.173114
C	0.7324733112161973 0.2861772823942909 0.1220261242478774	0.085074
C	0.7216021628217174 0.1488145033637605 0.1245843678026345	-0.124156
C	0.6447729145921511 0.1550280214697113 0.1269368125931933	-0.135402
C	0.0928303816972725 0.2981928088118169 0.1836953787935565	0.102886
C	0.0153337727754147 0.3064966428953266 0.1832402052251335	-0.181045
C	0.9726715123117968 0.2676025422484407 0.1246976677956307	0.109138
C	0.0109149820543571 0.2224071711138036 0.0678076319442948	-0.182561
C	0.0887173007921280 0.2190088015243102 0.0703951899913034	0.097967
C	0.8903110549846135 0.2734377375965138 0.1236271145525038	0.061073
C	0.8465464621609682 0.2094311245214730 0.1207777848654408	-0.174147
C	0.7674876042292537 0.2137709027673998 0.1220095396450221	0.085722
C	0.7783423660429691 0.3511526702430809 0.1245420449570282	-0.123706
C	0.8551804480476757 0.3449248632287690 0.1267008727715088	-0.136480
C	0.7986629921076732 0.5928195767285750 0.3160054064973904	0.101585
C	0.8067144295236034 0.5153846042409083 0.3161244942599800	-0.184178
C	0.7675206267900718 0.4726750068897314 0.3744775100811160	0.112860
C	0.7224492159661881 0.5108978862022197 0.4313619368792308	-0.178028
C	0.7191674933429603 0.5887026995856236 0.4287186797722430	0.110501
C	0.7734598197159852 0.3903340516000955 0.3758559583536669	0.060701
C	0.7094509276186378 0.3465704027135292 0.3789567685013829	-0.173200
C	0.7138229364701859 0.2675266184992696 0.3779740823897284	0.085142
C	0.8511846010325878 0.2783975847985835 0.3754159934866961	-0.124188
C	0.8449716247108914 0.3552265702025151 0.3730637944702329	-0.135407
C	0.7018072611890207 0.9071701023690846 0.3163046007734174	0.102883
C	0.6935033174165522 0.9846666710763842 0.3167604084826401	-0.181171
C	0.7323971058312040 0.0273284839355893 0.3753030806283081	0.109268
C	0.7775923060152148 0.9890847823302561 0.4321924632294000	-0.182703
C	0.7809913881036361 0.9112824556933714 0.4296043146677656	0.097925
C	0.7265619695731899 0.1096889714387372 0.3763736426404418	0.061072
C	0.7905681995772746 0.1534538021814799 0.3792225458529773	-0.174175
C	0.7862284805233722 0.2325121588288103 0.3779905776817117	0.085667
C	0.6488478446434328 0.2216575730148516 0.3754583790781658	-0.123741
C	0.6550751679079009 0.1448197019537610 0.3732998381937873	-0.136436
C	0.5928351981746043 0.7014876394952400 0.3154973932248476	0.098072
C	0.5153582465140589 0.6933323173554212 0.3159395751039484	-0.183619
C	0.4726663467688947 0.7324070398763025 0.3744422570311701	0.109731
C	0.5108929395444073 0.7774130468677651 0.4313954671434920	-0.182234
C	0.5887376879669385 0.7806599844772001 0.4288831271774552	0.102102
C	0.3903178112947183 0.7264984323863041 0.3758657541985067	0.061293
C	0.3465262381906363 0.7905205713856390 0.3789898975603190	-0.173204
C	0.2674767235306952 0.7862200178804934 0.3779915584964377	0.085610
C	0.2784199790581856 0.6488465889721255 0.3754239065854295	-0.123907
C	0.3552455325600589 0.6550023797284333 0.3730591226886578	-0.136866
C	0.9071799511886772 0.7983643533420369 0.3162938959999900	0.109679
C	0.9846272006431570 0.8066266345009734 0.3166170637808687	-0.180141
C	0.0273164015597941 0.7676539919128578 0.3751010866032737	0.111843
C	0.9890949642054394 0.7224104727540742 0.4318810853699646	-0.180789
C	0.9113457667882154 0.7189841989265439 0.4290476847997304	0.103364
C	0.1096586507274783 0.7735148631746703 0.3762694824138388	0.060771
C	0.1534568295042277 0.7094871192377601 0.3791652915494524	-0.173791
C	0.2325028017917654 0.7138223604260350 0.3779988609519618	0.085035
C	0.2215793748191880 0.8512258735904000 0.3754764759985913	-0.124424
C	0.1447425869613493 0.8449962680545784 0.3732710314483541	-0.134651
C	0.7985129856733439 0.9071650896144237 0.8154973320474748	0.098135
C	0.8066683532240042 0.9846420559984869 0.8159391344317409	-0.183658
C	0.7675926922123384 0.0273335422956355 0.8744419988965181	0.109737
C	0.7225863570016697 0.9891070706708261 0.9313956126155490	-0.182238
C	0.7193399777903527 0.9112620874475680 0.9288835491556868	0.102037
C	0.7735013538456200 0.1096822636812200 0.8758655297446966	0.061339
C	0.7094785748910154 0.1534731689434914 0.8789900299786948	-0.173145
C	0.7137793089821148 0.2325230633586567 0.8779920715401638	0.085573
C	0.8511542747237244 0.2215797269806532 0.8754241961833341	-0.123854
C	0.8449981027797925 0.1447541477763560 0.8730590850237575	-0.136917
C	0.7016360008828149 0.5928198002932693 0.8162931931912272	0.109668
C	0.6933735304534394 0.5153725796332607 0.8166165301190322	-0.180162
C	0.7323459025381200 0.4726833775833591 0.8751011065734950	0.111914
C	0.7775901112328182 0.5109048348701128 0.9318811864314285	-0.180850
C	0.7810160178073179 0.5886536711703213 0.9290479250954761	0.103442
C	0.7264848332135968 0.3903409624882366 0.8762700665890670	0.060816
C	0.7905131587762777 0.3465430561707070 0.8791658678389922	-0.173785
C	0.7861777200957177 0.2674974718433871 0.8779990405486913	0.085006
C	0.6487729565363702 0.2784203443236845 0.8754768161567706	-0.124352
C	0.6550029606642492 0.3552572554277216 0.8732713841193627	-0.134709
C	0.5928301071547858 0.7981932755640651 0.8163047420422584	0.102797
C	0.5153332335343669 0.8064964816532003 0.8167602536886600	-0.181091
C	0.4726716863068121 0.7676025114510231 0.8753031014137089	0.109198
C	0.5109149656852514 0.7224069298589537 0.9321932479922469	-0.182588
C	0.5887174770494740 0.7190083474397347 0.9296052972668472	0.097978
C	0.3903110528509092 0.7734375577416902 0.8763737968335445	0.061115
C	0.3465467874594595 0.7094307819141199 0.8792229868529916	-0.174127
C	0.2674877681847097 0.7137707002009009 0.8779910187371474	0.085655
C	0.2783426027228060 0.8511529041137561 0.8754582529770915	-0.123771
C	0.3551810278479833 0.8449248146748406 0.8732997914434788	-0.136429
C	0.9071806277445562 0.7013366291167659 0.8160062087083894	0.101515
C	0.9846156516195851 0.6932847279894377 0.8161244537867088	-0.184146
C	0.0273245560044786 0.7324790502845083 0.8744777221098942	0.112838
C	0.9891023363349513 0.7775510459050200 0.9313627843886688	-0.178013
C	0.9112974948360179 0.7808328579526721 0.9287189846473558	0.110522
C	0.1096659820798447 0.7265400573284092 0.8758558172587780	0.060778
C	0.1534291134356136 0.7905494876513390 0.8789567446925481	-0.173184
C	0.2324734219681318 0.7861771016529281 0.8779743818350758	0.085107
C	0.2216023026567264 0.6488138646891737 0.8754161441599245	-0.124197
C	0.1447730427295789 0.6550277818883598 0.8730636361085329	-0.135402
C	0.2018068862712996 0.4071699029211490 0.6836956706769172	0.102793
C	0.1935033003789226 0.4846666066680012 0.6832407799081971	-0.181034
C	0.2323972881205000 0.5273283346170440 0.6246978476902035	0.109159
C	0.2775928173396398 0.4890853566251839 0.5678076747624615	-0.182587
C	0.2809914119092330 0.4112830728669640 0.5703949886549162	0.097931
C	0.2265621263501857 0.6096890395215208 0.6236275465406355	0.061079
C	0.2905688966200599 0.6534535341841633 0.6207782971983686	-0.174161
C	0.2862288562009812 0.7325121357812890 0.6220099285083576	0.085748
C	0.1488471912179588 0.7216573615817884 0.6245421651195279	-0.123750
C	0.1550748009868971 0.6448195590895742 0.6267012228661085	-0.136414
C	0.2986634625558217 0.0928191459922603 0.6839937142469001	0.101602
C	0.3067147175451270 0.0153839591751098 0.6838759254053125	-0.184059
C	0.2675207193911602 0.9726746116671277 0.6255228880240592	0.112791
C	0.2224485901429762 0.0108966624633393 0.5686379685706056	-0.177995
C	0.2191672336259186 0.0887012975075105 0.5712811274801700	0.110520
C	0.2734597789257850 0.8903334297887229 0.6241449213690420	0.060659
C	0.2094503322988731 0.8465703575720207 0.6210440279503074	-0.173123
C	0.2138226880190329 0.7675263224554121 0.6220264053073338	0.085076
C	0.3511853166848669 0.7783974826110363 0.6245847874742778	-0.124162
C	0.3449718757291552 0.8552263486393534 0.6269370032880491	-0.135400
C	0.4071795620646871 0.2983644579154500 0.6837056636612606	0.109678
C	0.4846268236141815 0.3066264735067640 0.6833832132448941	-0.180137
C	0.5273158016358732 0.2676535387819923 0.6248986660468363	0.111895
C	0.4890955698934860 0.2224094986050758 0.5681179277132299	-0.180814
C	0.4113465239773967 0.2189837414149884 0.5709510316806808	0.103386
C	0.6096585871237331 0.2735146726683657 0.6237309814449113	0.060787
C	0.6534565706170754 0.2094865780003019 0.6208352828587482	-0.173785
C	0.7325029308264673 0.2138221075547100 0.6220019863998558	0.085068
C	0.7215792406774877 0.3512266111208758 0.6245242808388201	-0.124476
C	0.6447424126956980 0.3449965043311570 0.6267295575074764	-0.134599
C	0.0928347726529315 0.2014868062823112 0.6845027675519458	0.098072
C	0.0153576479379886 0.1933319501271219 0.6840615926424821	-0.183579
C	0.9726659217036516 0.2324072225960264 0.6255589920986412	0.109697
C	0.0108920301027006 0.2774134600135872 0.5686052367877300	-0.182266
C	0.0887368348738597 0.2806595896701210 0.5711163836853398	0.102178
C	0.8903172891364204 0.2264984272621542 0.6241356892511930	0.061281
C	0.8465263512567870 0.2905212921722832 0.6210111894927930	-0.173143
C	0.7674764812657637 0.2862204195955151 0.6220093208140254	0.085572
C	0.7784198596977312 0.1488457935914143 0.6245770602282069	-0.123859
C	0.8552454349850305 0.1550017622012722 0.6269420582504932	-0.136880
H	0.1750551639535759 0.1277855084982298 0.2303419166140742	0.094210
H	0.1589147610608319 0.9880880416862169 0.2299743433894883	0.114785
H	0.3081042544528292 0.9800900065102904 0.0208255750624398	0.114046
H	0.3134689959338482 0.1208719472957746 0.0263688071911064	0.093535
H	0.3455988566175821 0.8729913335912175 0.1202301558719973	0.107491
H	0.0936798800587605 0.7517872319990807 0.1252086223922636	0.111495
H	0.1049664349846297 0.8903422651363263 0.1288946629995071	0.100750
H	0.3256163756986388 0.3721918226243203 0.2310798927213507	0.098490
H	0.3416732764935658 0.5119342921477275 0.2302065718284013	0.114693
H	0.1922459848687400 0.5197436851022529 0.0210388307349548	0.117070
H	0.1882847109372552 0.3794593785570374 0.0249100229707831	0.099589
H	0.1544161247048991 0.6269739755962903 0.1202672706844479	0.108507
H	0.4062231372612075 0.7482712597458892 0.1251513027192773	0.106573
H	0.3950430537662253 0.6096589143445157 0.1290665284385333	0.102210
H	0.3718826129445232 0.1736922081157570 0.2297093173546309	0.093337
H	0.5119819202244292 0.1583648725271038 0.2300474595559417	0.113323
H	0.5197544496568168 0.3076926431847674 0.0209931025237802	0.116637
H	0.3793106748367515 0.3122513709043520 0.0257185602205203	0.095258
H	0.6269412347339629 0.3456378424637310 0.1203454046010695	0.109303
H	0.7482371351460628 0.0936983425408299 0.1251175594090692	0.108357
H	0.6097584401566248 0.1049633613067576 0.1289671298814574	0.103168
H	0.1274406447313403 0.3242425463447166 0.2311490670385256	0.099828
H	0.9881298100358148 0.3410137276096807 0.2298803162970559	0.115986
H	0.9801085351453900 0.1916773430657842 0.0206656681959253	0.114406
H	0.1207896423489613 0.1867979394346798 0.0252684145566700	0.097217
H	0.8730559367702753 0.1543463100758368 0.1201339588850538	0.106721
H	0.7515925201637450 0.4062131088595491 0.1252547579167026	0.108738
H	0.8902928488064119 0.3949140931096308 0.1289560087051752	0.100484
H	0.8263074371406414 0.6281164469060689 0.2702911863314235	0.093325
H	0.8416355389359177 0.4880177136322641 0.2699526167625012	0.113318
H	0.6923075668433303 0.4802463785138954 0.4790083609174884	0.116639
H	0.6877500954759804 0.6206893023371768 0.4742819619447932	0.095278
H	0.6543630503480381 0.3730585185579351 0.3796550435103860	0.109329
H	0.9063004555132751 0.2517633467509561 0.3748827765492240	0.108373
H	0.8950360356827091 0.3902405059754511 0.3710334493332232	0.103198
H	0.6757569169043321 0.8725601591569049 0.2688515605253379	0.099826
H	0.6589855526271223 0.0118701122430889 0.2701202790886853	0.116022
H	0.8083224124302901 0.0198907210915020 0.4793349663524422	0.114437
H	0.8132015959212249 0.8792105257425717 0.4747314177409830	0.097235
H	0.8456525676061996 0.1269441449850958 0.3798664916302383	0.106750
H	0.5937876103627000 0.2484066598171037 0.3747457978688264	0.108756
H	0.6050862204156178 0.1097077891371022 0.3710448456841054	0.100448
H	0.6278081409342954 0.6743838840622957 0.2689205411255959	0.098474
H	0.4880665281336933 0.6583273650132293 0.2697937607805201	0.114712
H	0.4802572195057851 0.8077537425428656 0.4789616405354658	0.117057
H	0.6205403104712910 0.8117169113270301 0.4750889225754259	0.099666
H	0.3730258881624461 0.8455826304006623 0.3797333785433898	0.108543
H	0.2517289219794331 0.5937779463213294 0.3748490327723066	0.106534
H	0.3903403107434416 0.6049574096526309 0.3709339973543819	0.102222
H	0.8722150931773311 0.8249439728736526 0.2696586445181257	0.094213
H	0.0119118499318206 0.8410850748081834 0.2700266615751415	0.114818
H	0.0199093375866937 0.6918957512720466 0.4791742520060798	0.114048
H	0.8791276012665539 0.6865315794762045 0.4736300368495719	0.093551
H	0.1270079127928794 0.6544018250362741 0.3797702375355699	0.107499
H	0.2482122132529141 0.9063186967360191 0.3747918545868139	0.111482
H	0.1096580405111532 0.8950326900282137 0.3711057928537347	0.100755
H	0.8256172380835601 0.8721930425360247 0.7689193462681108	0.098466
H	0.8416739576251513 0.0119346253131462 0.7697936787377236	0.114704
H	0.6922457138654250 0.0197437036763271 0.9789618049662198	0.117081
H	0.6882834953262197 0.8794594140907993 0.9750906537982561	0.099722
H	0.6544158401585863 0.1269737536768447 0.8797332268373037	0.108518
H	0.9062235098556289 0.2482714504421200 0.8748495123866284	0.106514
H	0.8950433333211480 0.1096586968843822 0.8709341729246399	0.102199
H	0.6750566712386056 0.6277843415018259 0.7696565987980780	0.094218
H	0.6589148331856054 0.4880878443415201 0.7700264079273373	0.114787
H	0.8081045640456926 0.4800896318238287 0.9791742650566198	0.114029
H	0.8134686419929668 0.6208717794006003 0.9736313064675590	0.093537
H	0.8455992259332326 0.3729911358634730 0.8797703535922438	0.107493
H	0.5936797537378335 0.2517867677116812 0.8747922377208093	0.111455
H	0.6049661181820978 0.3903421784176656 0.8711059688288001	0.100755
H	0.6274394367483189 0.8242441226430972 0.7688501896911508	0.099865
H	0.4881293419920337 0.8410142239003194 0.7701203127991114	0.115995
H	0.4801080697900347 0.6916771062817298 0.9793353683006069	0.114405
H	0.6207896247934487 0.6867970786326492 0.9747324142139689	0.097213
H	0.3730559376010741 0.6543456249312131 0.8798667953775859	0.106726
H	0.2515922552685884 0.9062131852281585 0.8747458019449544	0.108748
H	0.3902929895205647 0.8949143299958918 0.8710447326414399	0.100479
H	0.8718834865649939 0.6736914278577829 0.7702910961495479	0.093344
H	0.0119832406854829 0.6583641137638235 0.7699532279137801	0.113304
H	0.0197550469597214 0.8076922577904286 0.9790078084665098	0.116629
H	0.8793109962041603 0.8122518099246480 0.9742828815220156	0.095263
H	0.1269414070882133 0.8456381426718139 0.8796548093959673	0.109309
H	0.2482377770453890 0.5936977373418582 0.8748832232998305	0.108370
H	0.1097584271922910 0.6049630788812369 0.8710335887497591	0.103170
H	0.1757573112303453 0.3725599584061130 0.7311494887120999	0.099886
H	0.1589858984554174 0.5118700051898681 0.7298807353260106	0.115979
H	0.3083226209642752 0.5198919120356945 0.5206657825475789	0.114407
H	0.3132027940945245 0.3792109417639145 0.5252686095274339	0.097216
H	0.3456535079893351 0.6269441067648520 0.6201343803547013	0.106727
H	0.0937869637780031 0.7484073249691372 0.6252547872985127	0.108737
H	0.1050857319079420 0.6097074008758382 0.6289561639781158	0.100460
H	0.3263082150712309 0.1281161721133088 0.7297079722356087	0.093342
H	0.3416350891450279 0.9880173238794222 0.7300474390007632	0.113271
H	0.1923073888368969 0.9802443699454293 0.5209928335055233	0.116626
H	0.1877484441105380 0.1206877128702720 0.5257181525676785	0.095292
H	0.1543620920497729 0.8730581348388203 0.6203449652667122	0.109310
H	0.4063013188411499 0.7517627118264735 0.6251180293640775	0.108357
H	0.3950365541276358 0.8902408855141952 0.6289674141594788	0.103177
H	0.3722144660386643 0.3249443941850850 0.7303414669111811	0.094226
H	0.5119111679715940 0.3410845899605126 0.7299729805788346	0.114809
H	0.5199101532814094 0.1918949240626033 0.5208252421659353	0.114062
H	0.3791281618260913 0.1865307073409009 0.5263683160829753	0.093523
H	0.6270081828806241 0.1544008290710322 0.6202303013622498	0.107489
H	0.7482126881915894 0.4063195159902530 0.6252087889800607	0.111500
H	0.6096575877782291 0.3950331648876180 0.6288947029300476	0.100753
H	0.1278075372572986 0.1743833503574971 0.7310795664158087	0.098502
H	0.9880657621154819 0.1583267200726376 0.7302069663250313	0.114693
H	0.9802557625877610 0.3077538106508097 0.5210393386860724	0.117069
H	0.1205397476070387 0.3117158208693444 0.5249101328919538	0.099644
H	0.8730259842500767 0.3455836139695027 0.6202675498534315	0.108499
H	0.7517283524542745 0.0937769031651257 0.6251514658858188	0.106512
H	0.8903408571354002 0.1049567085075401 0.6290666726720118	0.102196
F	0.2566585419399101 0.1369265776222083 0.3779265687756577	-0.637616
F	0.1482452354458810 0.3037601761357490 0.3785077341488852	-0.632009
F	0.3443915390941937 0.3154250686241415 0.3782189727653150	-0.635713
F	0.6845582835830830 0.6556180376343921 0.1217788397021801	-0.635735
F	0.6962465150056060 0.8517564290225397 0.1214842592060010	-0.632084
F	0.8630775187347133 0.7433510695566193 0.1220792226944826	-0.637651
F	0.6482408367392625 0.8037896897856848 0.6214945631839317	-0.632070
F	0.7566191252080919 0.6369407149765832 0.6220645273223318	-0.637737
F	0.8443669871183075 0.8154633893604230 0.6217596823830945	-0.635747
F	0.1845550986207438 0.1556220909538875 0.8782148895291096	-0.635739
F	0.3630686876440291 0.2433466011139529 0.8779263402231604	-0.637711
F	0.1962413574613106 0.3517578686321311 0.8785043818370811	-0.632043
F	0.2489174993500645 0.2494792585077148 0.2509939373617993	-0.558368
F	0.2492608667151514 0.2488932292622967 0.5057137417762840	-0.558957
F	0.7505263904029750 0.7510843122656362 0.2490025944344819	-0.557807
F	0.7511134587957135 0.7507318568350484 -0.0057161042124636	-0.558990
F	0.7489187109358126 0.7494717032064881 0.7489993888155414	-0.557760
F	0.7492581429540037 0.7488995324303853 0.4942817980715536	-0.559026
F	0.2505193032597269 0.2510845184807695 0.7509931829555725	-0.558368
F	0.2511062273592386 0.2507418172292872 0.0057154464018473	-0.559008
Zn	0.2499021479791046 0.2501601179243750 0.1284047364411903	0.739127
Zn	0.7498396160119750 0.7500954767673584 0.3715932422202494	0.739023
Zn	0.7499023719257591 0.7501576811794619 0.8715923701754724	0.738886
Zn	0.2498407208140047 0.2500967752445197 0.6284044038158548	0.739101
In	0.2499442370336227 0.2510943568912300 0.3783281195229035	1.579405
In	0.7489072447876373 0.7500540665560901 0.1216704310401834	1.579316
In	0.7499357822184152 0.7511155022852916 0.6216720374514922	1.579427
In	0.2488982238218241 0.2500560766878046 0.8783250387119589	1.579607
	  	
