#======================================================================

# CRYSTAL DATA

#----------------------------------------------------------------------

data_VESTA_phase_1


_pd_phase_name                         InFFIVE_2_Cd_i
_cell_length_a                         14.35736
_cell_length_b                         14.35737
_cell_length_c                         8.60733
_cell_angle_alpha                      89.99983
_cell_angle_beta                       90.00025
_cell_angle_gamma                      89.77478
_symmetry_space_group_name_H-M         P 1
_symmetry_Int_Tables_number            1

loop_
_symmetry_equiv_pos_as_xyz
   x, y, z

loop_
   _atom_site_label
   _atom_site_fract_x
   _atom_site_fract_y
   _atom_site_fract_z
   _atom_site_charge
C	0.0000439958299772 0.3091257458686399 0.3593520064309129	-0.156647
C	-0.0004234392802896 0.2124116745327075 0.3646505689271953	0.100332
C	0.5000440499171098 0.8091242142336127 0.8593412635166212	-0.156764
C	0.4995788543121973 0.7124104105729530 0.8646443114974054	0.100387
C	-0.0001853780626962 0.6914826940054387 0.3593782883000565	-0.162680
C	-0.0007402800469030 0.7881781783982550 0.3649797656060466	0.103522
C	0.4998093541331661 0.1914859333712699 0.8593655426088831	-0.162304
C	0.4992548949281017 0.2881792193604563 0.8649762033420234	0.103250
C	0.6914820445014250 -0.0001869842795214 0.3593778067940903	-0.162600
C	0.7881778369347061 -0.0007407640715313 0.3649798278726208	0.103479
C	0.1914847260348084 0.4998099727613338 0.8593667973794136	-0.162290
C	0.2881780234663823 0.4992546573568294 0.8649776264179911	0.103288
C	0.3091246126716166 0.0000440368935771 0.3593524777901751	-0.156611
C	0.2124105094770072 -0.0004233791688865 0.3646506456057244	0.100305
C	0.8091228908850144 0.5000446363182321 0.8593427917579509	-0.156717
C	0.7124097993891249 0.4995792118916239 0.8646440875277082	0.100370
C	0.0000439483369928 0.3091258227999230 0.6406456768663196	-0.156587
C	-0.0004234763208057 0.2124117801189543 0.6353487542075622	0.100357
C	0.5000439608988918 0.8091241501905247 0.1406562443165055	-0.156713
C	0.4995790080941559 0.7124103181282699 0.1353541041994328	0.100369
C	-0.0001875997830507 0.6914821521893314 0.6406203976910174	-0.162663
C	-0.0007407814505423 0.7881778786267499 0.6350188457767149	0.103509
C	0.4998090438438427 0.1914855141976798 0.1406328477458511	-0.162277
C	0.4992544524110366 0.2881788018282908 0.1350217552997903	0.103258
C	0.3091255819886318 0.0000440515028299 0.6406463493114799	-0.156628
C	0.2124114687806511 -0.0004233728124219 0.6353485773030788	0.100317
C	0.8091234548007207 0.5000443926590531 0.1406579199813971	-0.156781
C	0.7124100722776207 0.4995787944572052 0.1353553847556379	0.100451
C	0.6914822253244469 -0.0001871159626954 0.6406201458140094	-0.162666
C	0.7881779569640055 -0.0007409885664285 0.6350190874165562	0.103488
C	0.1914854169258569 0.4998098433395801 0.1406339136984021	-0.162283
C	0.2881785175236528 0.4992543924631297 0.1350231690303167	0.103228
C	0.0005934643174424 0.4577985830838104 0.4999983340779007	-0.088295
C	0.0003924035808592 0.3592731110109296 0.4999985587595223	0.159265
C	0.5005894818334466 0.9577997433122403 -0.0000013940462728	-0.088486
C	0.5003875700240071 0.8592681797181358 -0.0000015151454163	0.159471
C	0.0006043690397604 0.5427401955518316 0.4999989765700227	-0.101276
C	0.0002817097037203 0.6412550235801751 0.4999996280905338	0.166811
C	0.5006012947795416 0.0427453845634703 -0.0000008513831321	-0.101236
C	0.5002778000776591 0.1412650612758858 -0.0000007704845046	0.166490
C	0.5427401058750232 0.0006053065790516 0.4999982399941383	-0.101574
C	0.6412549686775343 0.0002819857739063 0.4999987656950621	0.166877
C	0.0427443841881131 0.5006030123555330 -0.0000001170771780	-0.101511
C	0.1412643708234879 0.5002793202786020 0.0000000878960541	0.166542
C	0.4577979531338980 0.0005942750141987 0.4999990623032761	-0.087951
C	0.3592725976240569 0.0003926787924923 0.4999993429896867	0.159185
C	0.9577986949164869 0.5005907542472736 0.0000002307422183	-0.088170
C	0.8592669792348371 0.5003886595493778 0.0000004991109674	0.159452
H	-0.0002610892788555 0.3450993077132492 0.2479272644518015	0.121192
H	-0.0017510042505652 0.1713987392133137 0.2577744986335404	0.098046
H	0.4997381896451746 0.8450978934443009 0.7479107898251375	0.121244
H	0.4982566539205953 0.6714038627836465 0.7577653299782899	0.097967
H	-0.0004244132687126 0.6553197318794600 0.2481174098337337	0.121239
H	-0.0021362144667234 0.8300328281070697 0.2592102665001552	0.094536
H	0.4995719769513320 0.1553200056292533 0.7481056889669403	0.121146
H	0.4978561574152927 0.3300305528279136 0.7592113199841010	0.094562
H	0.6553185825660686 -0.0004239711733428 0.2481164696340452	0.121220
H	0.8300319973797713 -0.0021364367789413 0.2592106358574753	0.094512
H	0.1553185508219145 0.4995720346290944 0.7481062374739696	0.121139
H	0.3300290775102062 0.4978534064577222 0.7592127135905296	0.094539
H	0.3450982068109300 -0.0002613280516061 0.2479278410789549	0.121186
H	0.1713973345870723 -0.0017510416562389 0.2577743686969955	0.098037
H	0.8450962754719583 0.4997383574289744 0.7479128241410108	0.121231
H	0.6714016717375260 0.4982540243198192 0.7577659505908885	0.097936
H	-0.0002612246171182 0.3450993278740502 0.7520700511925772	0.121180
H	-0.0017510690132506 0.1713988150458479 0.7422252889648066	0.098040
H	0.4997381463413940 0.8450975573550471 0.2520866704479123	0.121208
H	0.4982572147335003 0.6714037695650475 0.2422337103092583	0.097948
H	-0.0004248010140725 0.6553188237340138 0.7518810931041341	0.121225
H	-0.0021360494836783 0.8300317059368931 0.7407884125736497	0.094519
H	0.4995715513008735 0.1553193793343488 0.2518928341842067	0.121144
H	0.4978555685667827 0.3300300364434090 0.2407863389093738	0.094574
H	0.3450996370719360 -0.0002613256501458 0.7520710583299864	0.121187
H	0.1713987472584711 -0.0017508946151898 0.7422247216961234	0.098064
H	0.8450974583153469 0.4997379635629203 0.2520878495698595	0.121228
H	0.6714019928531629 0.4982542060785200 0.2422324668394194	0.097922
H	0.6553189129050944 -0.0004240783941925 0.7518805058337684	0.121230
H	0.8300320645907260 -0.0021364102143928 0.7407889180029024	0.094518
H	0.1553195735625804 0.4995718444327253 0.2518936290313757	0.121149
H	0.3300293140339365 0.4978525695665107 0.2407891203418137	0.094559
Cd	0.0008727711315599 0.0008738072740020 0.5000024774704932	0.823697
Cd	0.5008739389518799 0.5008762347137129 -0.0000012753214450	0.824185
In	0.0001564405684683 0.0001550476817293 0.0000006352818866	1.557386
In	0.5001735974874844 0.5001732361564967 0.4999997690526697	1.555844
N	-0.0004378641160701 0.1651565340730235 0.4999999487688150	-0.237724
N	0.4995630299736110 0.6651627108055694 -0.0000005181246617	-0.237796
N	-0.0006713120008869 0.8355766191303610 0.4999992571505719	-0.234177
N	0.4993223612489024 0.3355715536023527 -0.0000010604077685	-0.234226
N	0.8355764837776061 -0.0006712946122536 0.4999999084307800	-0.234165
N	0.3355709755719096 0.4993222954725414 0.0000009640529392	-0.234241
N	0.1651554696118530 -0.0004375859199545 0.4999996729419966	-0.237685
N	0.6651617507049439 0.4995630263124020 -0.0000001751878228	-0.237780
F	-0.0001840909563455 -0.0001837405059480 0.7570645134130660	-0.568573
F	0.4998149208978392 0.4997905585012631 0.2568516410582103	-0.568207
F	-0.0001838633701213 -0.0001858492480260 0.2429361797669685	-0.568575
F	0.4997786295207410 0.4997991316233593 0.7431484240135696	-0.568167
F	0.6377212987717031 0.4647117254000028 0.5000272493030836	-0.613454
F	0.4648047227613696 0.6377556317110205 0.4999954336990618	-0.613443
F	0.4002152494841032 0.4002534711386558 0.5000064912393866	-0.623224
F	0.9002961329707411 0.9002962934301942 0.0000158115070623	-0.623590
F	0.9646340663238702 0.1375814467406569 -0.0000000306647333	-0.613892
F	0.1375824031894526 0.9646307047978683 0.0000022161053859	-0.613912
	  	
