#======================================================================

# CRYSTAL DATA

#----------------------------------------------------------------------

data_VESTA_phase_1


_pd_phase_name                         InFFIVE_5_Ni_i
_cell_length_a                         19.88806
_cell_length_b                         19.88743
_cell_length_c                         16.21753
_cell_angle_alpha                      89.99959
_cell_angle_beta                       89.99975
_cell_angle_gamma                      89.96983
_symmetry_space_group_name_H-M         P 1
_symmetry_Int_Tables_number            1

loop_
_symmetry_equiv_pos_as_xyz
   x, y, z

loop_
   _atom_site_label
   _atom_site_fract_x
   _atom_site_fract_y
   _atom_site_fract_z
   _atom_site_charge
F	0.2914810956001723 0.1561661934546811 0.3519758219832298	-0.612587
F	0.1501586401954632 0.2642961018069206 0.3512586991757040	-0.622115
F	0.3154414890876355 0.3298291442675285 0.3515008327521345	-0.618099
F	0.6701665510609072 0.6845708763431614 0.1484868778220371	-0.618096
F	0.7357177124918612 0.8498467725375485 0.1487214090012049	-0.621993
F	0.8437952243526387 0.7085110593347133 0.1480214540641777	-0.612615
F	0.6501492676632907 0.7643259468254403 0.6487208545004303	-0.621973
F	0.7914312168305930 0.6561608189775429 0.6480365831687788	-0.612581
F	0.8154583453293830 0.8297786980329542 0.6484851789716698	-0.618129
F	0.1701997596300917 0.1845083892676933 0.8515232327896904	-0.618036
F	0.3438296058293267 0.2085519438363618 0.8520067770177081	-0.612547
F	0.2356829459885690 0.3498417415675896 0.8512902717528300	-0.621975
F	0.2492870888182089 0.2495318187393080 0.4797360704460257	-0.564073
F	0.2494573728084854 0.2489920788276596 0.2224736944386429	-0.564262
F	0.7504563668464207 0.7507045015389165 0.0202002604010633	-0.564207
F	0.7509925208360576 0.7505499024734107 0.2775190147856882	-0.564323
F	0.7492900068744992 0.7495236022872149 0.5202060232252943	-0.564268
F	0.7494457182482613 0.7490017565770545 0.7775206281407753	-0.564323
F	0.2504527723805627 0.2507141691419437 0.9798137925812985	-0.564224
F	0.2509758817080471 0.2505264865884489 0.7225600964174211	-0.564242
N	0.3557816587859745 0.2476156083295011 0.6004865285361617	-0.239386
N	0.1443469038011118 0.2523955299659498 0.6018849279093899	-0.237245
N	0.2524716533914463 0.3556539056592370 0.6010784083383467	-0.237097
N	0.2475213776495719 0.1442759625422202 0.6022392072246382	-0.239540
N	0.6441783361409636 0.7475274428726456 0.8989240748546808	-0.238413
N	0.8558966389637810 0.7524905760406331 0.8977521607873113	-0.240686
N	0.7475921722268766 0.8557904964779858 0.8981109404773950	-0.237881
N	0.7523832463928688 0.6440745337591745 0.8995217593529966	-0.240074
N	0.6442026263184113 0.7524093254911256 0.3981121433634651	-0.238009
N	0.8559330777882828 0.7476189067761223 0.3995203587942046	-0.240005
N	0.7475096976180664 0.6441079710862578 0.3977523672814566	-0.240742
N	0.7524730047425695 0.8558190230226065 0.3989233378464814	-0.238336
N	0.3558975545805291 0.2524905532350410 0.1022473733969825	-0.240693
N	0.1441763262295216 0.2475278756162452 0.1010785925297450	-0.238387
N	0.2523817632682786 0.1440726683776998 0.1004804398788969	-0.240022
N	0.2475920086372849 0.3557911958337402 0.1018871638122328	-0.237878
C	0.3891770131071234 0.2186664156446344 0.6634226381539448	0.101525
C	0.4589708864322180 0.2171813996762076 0.6673112231057396	-0.179215
C	0.4970472514739432 0.2470082143415393 0.6043665625431405	0.104492
C	0.4615005422927336 0.2769212926380284 0.5391012938396029	-0.182290
C	0.3915814286894055 0.2761364642143099 0.5392270490780560	0.098365
C	0.5710931598401284 0.2477988574137764 0.6077344420738022	0.055572
C	0.6071194552650893 0.1919311654173480 0.6372647219421452	-0.130284
C	0.6769739007900345 0.1927319672520053 0.6399894253441334	-0.125448
C	0.7130483310126736 0.2498202542994486 0.6147583430011034	0.067840
C	0.6770336665074671 0.3060791216012744 0.5866800500465662	-0.119499
C	0.6072356627741472 0.3048416966400998 0.5824407742870225	-0.127463
C	0.1108587707675284 0.2814067825671976 0.6646388258121921	0.103595
C	0.0411005318030074 0.2827904224372975 0.6686054734991453	-0.180432
C	0.0030611565869405 0.2527349717549593 0.6056924519367037	0.107533
C	0.0386516565082331 0.2231148385575935 0.5403732869692665	-0.178394
C	0.1085337235748857 0.2241645287598469 0.5405719775516056	0.109121
C	0.9289838413285346 0.2521663540374734 0.6084879293708111	0.054541
C	0.8928803497583753 0.3081232959072672 0.6375770736994504	-0.129221
C	0.8230171518586231 0.3073649907616444 0.6399875137069930	-0.124885
C	0.7869774170235799 0.2502585602285015 0.6147484816389180	0.067460
C	0.8230408940189331 0.1940311561110805 0.5866987250055548	-0.117848
C	0.8928516576485112 0.1952112427014276 0.5828060802379932	-0.127183
C	0.2813363947634328 0.3891275131234078 0.6638769577174013	0.108510
C	0.2828569234347805 0.4588919122130120 0.6677481982920260	-0.177016
C	0.2530442694185039 0.4969424569316721 0.6047333251437815	0.107045
C	0.2231754538561422 0.4613599810452369 0.5395114079092113	-0.181127
C	0.2240311768711930 0.3914928834857524 0.5398891667292895	0.102980
C	0.2522606642771941 0.5710136377069991 0.6079180935495631	0.055893
C	0.3081227360024684 0.6070520249330879 0.6373234672796034	-0.130150
C	0.3073003905043251 0.6769143791273577 0.6399558399377101	-0.125053
C	0.2502028390499627 0.7130233916243611 0.6147029722485076	0.068532
C	0.1939767047129789 0.6770161062950522 0.5866546938179009	-0.118320
C	0.1952289928746438 0.6072059211697892 0.5825385737806832	-0.127918
C	0.2184934180184357 0.1108348595811597 0.6651081144609969	0.098053
C	0.2171315337794388 0.0410205874530231 0.6688190045299547	-0.179835
C	0.2471930088088339 0.0030088269891408 0.6058496950090441	0.102929
C	0.2768331224894332 0.0386266116312869 0.5405908476234310	-0.180064
C	0.2758070207574006 0.1085429529971605 0.5407522512046586	0.100254
C	0.2477739382505496 0.9289394282187102 0.6085477085857987	0.055302
C	0.1918235182070503 0.8928915342331158 0.6376170787722168	-0.130236
C	0.1926074100377532 0.8230239503335747 0.6399654224330000	-0.125155
C	0.2497353251384877 0.7869592820362533 0.6146982315507243	0.066562
C	0.3059632088392241 0.8229766933848316 0.5866696591995352	-0.118125
C	0.3047426712713215 0.8927936752041539 0.5828134674221873	-0.127031
C	0.6107020380197845 0.7186534611207306 0.8361350148681010	0.110102
C	0.5409508770078783 0.7171305923554809 0.8322480684770357	-0.178574
C	0.5029334614497069 0.7469532948225860 0.8952704954679754	0.108263
C	0.5384818613972314 0.7768281047414463 0.9605047639803772	-0.181930
C	0.6083355055255912 0.7759724209603788 0.9601059791118478	0.104066
C	0.4288953379483661 0.7477400635142597 0.8920845324744479	0.055686
C	0.3928948893377778 0.6918649077150345 0.8626699028891904	-0.130060
C	0.3230459449910993 0.6926898411115252 0.8600332602893850	-0.125412
C	0.2869655490325796 0.7498003351370918 0.8852896425665013	0.068201
C	0.3229406144577850 0.8060375953249396 0.9133451116224247	-0.118543
C	0.3927361342048271 0.8047868026614921 0.9174672872450269	-0.127569
C	0.8893465003330436 0.7815230108930167 0.8348873958752587	0.099418
C	0.9591418034700575 0.7828908780973536 0.8311643625330996	-0.181274
C	0.9971181748722108 0.7528161604759481 0.8941471087025329	0.103590
C	0.9615325015313594 0.7231673370219809 0.9594146510024527	-0.180798
C	0.8916308598586421 0.7241966097834748 0.9592382750154788	0.100811
C	0.0711565932688561 0.7522291933594077 0.8914466522015168	0.055916
C	0.1071700476314357 0.8081924418772678 0.8623739924066571	-0.130227
C	0.1770227763544533 0.8074086094606063 0.8600240742047314	-0.125233
C	0.2130576597586758 0.7502651988023005 0.8852945603905672	0.066675
C	0.1770694483342709 0.6940246995990754 0.9133306966097098	-0.118106
C	0.1072676595250841 0.6952469311548761 0.9171922432495893	-0.127690
C	0.7185770321655892 0.8892831128107580 0.8353627910315156	0.103700
C	0.7171953761560187 0.9590260108379771 0.8313810358888792	-0.181075
C	0.7472588580093118 0.9970365830952734 0.8943081301285974	0.107477
C	0.7768855742255840 0.9614751904204876 0.9596345579280469	-0.179860
C	0.7758315720050687 0.8916053241308980 0.9594191543923584	0.110213
C	0.7478327714591775 0.0710896383789023 0.8915101942771165	0.054841
C	0.6918680880626440 0.1071621634221295 0.8624171018544023	-0.129323
C	0.6926272066412968 0.1770190801338351 0.8600035388284574	-0.125063
C	0.7497433104348882 0.2130310139310384 0.8852445182945167	0.067538
C	0.8059806059803276 0.1769952734836177 0.9133014905639080	-0.117863
C	0.8047999290932881 0.1071904055159565 0.9171980150397194	-0.127077
C	0.7813471469215594 0.6106813184641748 0.8365930435152212	0.102652
C	0.7828370286700602 0.5408995435463008 0.8326907784211937	-0.179992
C	0.7529988980903802 0.5028512351428388 0.8956394424347544	0.105340
C	0.7230751027548913 0.5383642738245283 0.9609157481172397	-0.183618
C	0.7238571642659626 0.6082687416404825 0.9607715673796848	0.099236
C	0.7522042126910655 0.4288312409785158 0.8922680649180891	0.054975
C	0.8080812505238284 0.3928367719788057 0.8627308381286046	-0.129417
C	0.8072787986080686 0.3229887620593827 0.8600004844143765	-0.125660
C	0.7501813977741734 0.2869417025889277 0.8852338688291697	0.067612
C	0.6939116997947941 0.3229293455956165 0.9133172231901521	-0.119352
C	0.6951514409838052 0.3927182415306300 0.9175611303034577	-0.127476
C	0.6107116903387225 0.7814245728743654 0.3353630990785096	0.103729
C	0.5409717060603999 0.7828060620287132 0.3313813394979797	-0.180995
C	0.5029608157305225 0.7527424062683714 0.3943088901437856	0.107460
C	0.5385214079943650 0.7231143311207898 0.4596349256670292	-0.179817
C	0.6083899859151130 0.7241695844618060 0.4594195118027526	0.110276
C	0.4289093343818308 0.7521684234662396 0.3915123060757545	0.054776
C	0.3928367799501739 0.8081342479561809 0.3624184365319512	-0.129400
C	0.3229819002901603 0.8073751624725414 0.3600055915887966	-0.124976
C	0.2869697101801010 0.7502578270270527 0.3852478744371223	0.067408
C	0.3230056805167829 0.6940187696298283 0.4133035104248381	-0.117634
C	0.3928082147753832 0.6952001346405572 0.4171995530485173	-0.127128
C	0.8893252183026416 0.7186548804342388 0.3365915342763757	0.102499
C	0.9591055709021995 0.7171648312448581 0.3326911915681628	-0.179970
C	0.9971526721137974 0.7470024318580166 0.3956393231342979	0.105360
C	0.9616385188303833 0.7769256843627429 0.4609158270385187	-0.183581
C	0.8917362876085613 0.7761441492130089 0.4607720074925942	0.099270
C	0.0711715408831060 0.7477963042456710 0.3922692513639393	0.054835
C	0.1071670463073881 0.6919192682461490 0.3627320092778458	-0.129412
C	0.1770129920680771 0.6927216237393874 0.3600027872096964	-0.125522
C	0.2130600554337103 0.7498196920577599 0.3852370622849290	0.067612
C	0.1770714701500530 0.8060899357624076 0.4133185500064575	-0.119419
C	0.1072845017434146 0.8048503072039753 0.4175622336894959	-0.127318
C	0.7184770510466510 0.6106595796016505 0.3348883260184023	0.099572
C	0.7171101384944949 0.5408626866842887 0.3311648857038011	-0.181242
C	0.7471841994417519 0.5028847510263752 0.3941469024417626	0.103597
C	0.7768335706703722 0.5384703753033743 0.4594133740706076	-0.180869
C	0.7758039382546573 0.6083730899925921 0.4592360853640080	0.100887
C	0.7477709466061568 0.4288455356385972 0.3914473908443132	0.055841
C	0.6918091122986035 0.3928329535877947 0.3623749747331328	-0.130246
C	0.6925944219801818 0.3229783922916344 0.3600244762648915	-0.125172
C	0.7497361125364921 0.2869441258972327 0.3852947012998636	0.066675
C	0.8059749112598381 0.3229317259834038 0.4133297608175562	-0.118296
C	0.8047524772210274 0.3927355503284872 0.4171915804924977	-0.127635
C	0.7813479095669236 0.8892954360946130 0.3361340897918184	0.110166
C	0.7828711877985636 0.9590476013738112 0.3322476172545601	-0.178666
C	0.7530482648799340 0.9970645408151687 0.3952712553725545	0.108303
C	0.7231728366279403 0.9615152467121257 0.4605051327806527	-0.181808
C	0.7240279842541814 0.8916602975955377 0.4601054856663154	0.103890
C	0.7522615394473865 0.0711040325301362 0.3920856173864394	0.055651
C	0.8081356993518005 0.1071043052595819 0.3626705368683885	-0.130133
C	0.8073108871744976 0.1769547829011853 0.3600329840045485	-0.125370
C	0.7502015044392014 0.2130347066792877 0.3852894620574140	0.068217
C	0.6939648561569263 0.1770596505410010 0.4133442613628730	-0.118568
C	0.6952152798321817 0.1072623329947203 0.4174670745465789	-0.127570
C	0.3893453051534614 0.2815216341119440 0.1651128461217935	0.099408
C	0.4591391016566317 0.2828898863985285 0.1688355212399199	-0.181303
C	0.4971172135604074 0.2528162641127170 0.1058539918737875	0.103542
C	0.4615323105799183 0.2231680559729893 0.0405858447198978	-0.180762
C	0.3916323349811849 0.2241989395529333 0.0407609207278280	0.100844
C	0.5711548912569702 0.2522294448256459 0.1085535670044854	0.055868
C	0.6071690682837891 0.3081918019516344 0.1376254005851451	-0.130252
C	0.6770215045358883 0.3074078752737189 0.1399756118663349	-0.125218
C	0.7130570526833875 0.2502650712758571 0.1147051948787697	0.066650
C	0.6770682871275044 0.1940251438745510 0.0866698662712304	-0.118129
C	0.6072668244501152 0.1952478697251536 0.0828087161451128	-0.127671
C	0.1107010299857394 0.2186553674640213 0.1638691924894501	0.110063
C	0.0409509454794351 0.2171307311577390 0.1677539520569316	-0.178570
C	0.0029344149116122 0.2469525219619488 0.1047298168503672	0.108241
C	0.0384835508618885 0.2768274764124719 0.0394951248949558	-0.181834
C	0.1083362842569957 0.2759707694629674 0.0398941185981924	0.104084
C	0.9288964797645165 0.2477392369436124 0.1079151066959427	0.055708
C	0.8928949367970744 0.1918649489540191 0.1373290529477997	-0.130086
C	0.8230458481025397 0.1926892909122748 0.1399667650451673	-0.125421
C	0.7869657466598442 0.2497997928821481 0.1147102049505673	0.068245
C	0.8229414735383159 0.3060372878551869 0.0866553374435523	-0.118462
C	0.8927371469418559 0.3047860299060167 0.0825333631369755	-0.127627
C	0.2813446722716729 0.1106801271738490 0.1634095141075712	0.102644
C	0.2828363926667083 0.0408993911048597 0.1673104045785105	-0.180030
C	0.2529988191530218 0.0028521206910299 0.1043610583921253	0.105395
C	0.2230764280347297 0.0383657860356099 0.0390851022893218	-0.183564
C	0.2238587266864857 0.1082699155383213 0.0392277697929830	0.099244
C	0.2522045718565355 0.9288317613984318 0.1077326477630437	0.054906
C	0.3080809230437583 0.8928371775270698 0.1372683455136498	-0.129414
C	0.3072787365875305 0.8229891939504740 0.1399988918443005	-0.125595
C	0.2501818401781402 0.7869419047155833 0.1147657870358092	0.067608
C	0.1939124211056034 0.8229305798290883 0.0866833862537637	-0.119447
C	0.1951518467879134 0.8927193728897368 0.0824397108657257	-0.127317
C	0.2185788935926032 0.3892810562807959 0.1646371970075275	0.103599
C	0.2171963213472931 0.4590231622602016 0.1686179872976739	-0.180978
C	0.2472587076068358 0.4970346624805939 0.1056906813113450	0.107535
C	0.2768853430440949 0.4614742057997114 0.0403630701727453	-0.179893
C	0.2758296272048138 0.3916052386519764 0.0405773248638275	0.110132
C	0.2478328079470628 0.5710876384630036 0.1084888903574078	0.054783
C	0.1918683102762729 0.6071608977583594 0.1375816646577867	-0.129286
C	0.1926276588078536 0.6770175795259298 0.1399957207052560	-0.125066
C	0.2497435631767066 0.7130306022244397 0.1147549717524478	0.067464
C	0.3059811025562297 0.6769943562728062 0.0866989515169267	-0.117723
C	0.3047996528867138 0.6071896459220628 0.0828027175785855	-0.127118
H	0.3588714023745893 0.1981191902727287 0.7134665279694846	0.097406
H	0.4832051304157409 0.1948810858497848 0.7210205864940202	0.116432
H	0.4880564793949183 0.3000514806477932 0.4875939764928610	0.113735
H	0.3627404096753064 0.2986447994913374 0.4889547894837014	0.095111
H	0.5798119407668643 0.1471343536582027 0.6569037577546469	0.100460
H	0.7043252240664483 0.1490273802605664 0.6630055854193524	0.101512
H	0.7044368570310977 0.3503599708643936 0.5656131477511093	0.101809
H	0.5801147860833316 0.3489735522537095 0.5603061096721976	0.103574
H	0.1418327346905376 0.3034884483924439 0.7130467774344371	0.090137
H	0.0164638236278733 0.3056944064255090 0.7216484679790877	0.112916
H	0.0122009713276326 0.2009173077848512 0.4882125256146375	0.116045
H	0.1373943356116616 0.2034397818834236 0.4894578978202204	0.094133
H	0.9200610754108515 0.3530582935490930 0.6570131235490257	0.099956
H	0.7956214255165864 0.3510765732765983 0.6628733757843041	0.102243
H	0.7956908055682663 0.1497372211852151 0.5655479751044565	0.101690
H	0.9199835871090842 0.1511083314447872 0.5606398870248787	0.104236
H	0.3019223830224720 0.3584260096993938 0.7133879070548008	0.093891
H	0.3049839891021843 0.4833074482330694 0.7213981562074313	0.115723
H	0.2002869986721706 0.4879603408310642 0.4878797642165716	0.113557
H	0.2016676078599749 0.3622914884145031 0.4900302982544791	0.091212
H	0.3529788508208153 0.5797741259630513 0.6569121267334704	0.099869
H	0.3509900480674615 0.7042533761763284 0.6629311268301010	0.102244
H	0.1496830570140022 0.7044390506805082 0.5655725461771914	0.101369
H	0.1510732131787610 0.5801471243227182 0.5604756951134653	0.103526
H	0.1965164079592911 0.1413845139519549 0.7141747171671132	0.094722
H	0.1940588401043593 0.0164816838156273 0.7218251397167328	0.113835
H	0.2992602027388869 0.0123128772135419 0.4884230148928898	0.116053
H	0.2966491393907950 0.1370892919791669 0.4892683004673260	0.098572
H	0.1469250094400881 0.9201543935248132 0.6571318273950010	0.100941
H	0.1489195828009231 0.7956578047471236 0.6628869931983737	0.101407
H	0.3502875510442193 0.7956136066313223 0.5655445336700361	0.101717
H	0.3487948399235521 0.9199408012325093 0.5606087346914673	0.104506
H	0.6414047114030252 0.6980577892269545 0.7866262228469639	0.093516
H	0.5165122639102721 0.6950138315614762 0.7786068049637159	0.115931
H	0.5118565743129773 0.7997111286932489 0.0121168546992496	0.113724
H	0.6375344544203216 0.7983499989133539 0.0099657031947221	0.090692
H	0.4201961154070681 0.6470197254012637 0.8430919322953330	0.099767
H	0.2956940034470504 0.6490074935145754 0.8370647603405382	0.102476
H	0.2955060670680074 0.8503259740884915 0.9344278752253539	0.101491
H	0.4198206666723389 0.8489289583368502 0.9395229561860939	0.103580
H	0.8587915469598844 0.8035073285228921 0.7858231721223519	0.094497
H	0.9837101659582621 0.8059424840746323 0.7781668580693919	0.114244
H	0.9878725228378094 0.7007443106745621 0.0115637195435285	0.116270
H	0.8630798037856260 0.7033337786271068 0.0107095895240155	0.098345
H	0.0798806449009832 0.8530790986825719 0.8428711529506744	0.100797
H	0.2044012017755107 0.8510881906119014 0.8371093544110599	0.101565
H	0.2044451596813516 0.6497072773121177 0.9344554805881132	0.101737
H	0.0800959904034040 0.6512066848476776 0.9393865783130585	0.104740
H	0.6964906597337452 0.8583036298911355 0.7869558080009070	0.090226
H	0.6943058071777106 0.9836889200793942 0.7783483362239378	0.113589
H	0.7990834688975422 0.9879412621877903 0.0117833789081613	0.116441
H	0.7965744385643255 0.8627300946574855 0.0105161805607724	0.094100
H	0.6469467233595119 0.0799571076362600 0.8429939903266379	0.100019
H	0.6489229380626923 0.2044255078815881 0.8371230059989766	0.102283
H	0.8502656401441621 0.2043554865193220 0.9344489980270941	0.101632
H	0.8488875002072941 0.0800330481304273 0.9393570911310966	0.104358
H	0.8019050278903606 0.6409981769457712 0.7865596191056807	0.097191
H	0.8051249646563337 0.5166445082872867 0.7789873153773291	0.116525
H	0.6999525298227784 0.5117858544562517 0.0124077648088109	0.114015
H	0.7013356625197316 0.6371241758474263 0.0110336983845823	0.094927
H	0.8528630349554014 0.4201700255632213 0.8431020485061110	0.100148
H	0.8509754774870886 0.2956252713307685 0.8369896007571647	0.101484
H	0.6496389300733947 0.2955153596189051 0.9343836867690195	0.101826
H	0.6510349313876960 0.4198676202861727 0.9396887138305203	0.103528
H	0.6416897395096197 0.8035106517649324 0.2869542226387565	0.090279
H	0.5163108412437966 0.8056950861604278 0.2783474408463657	0.113561
H	0.5120578099169059 0.7009158146862412 0.5117848989913075	0.116419
H	0.6372622096059554 0.7034252434439531 0.5105154979852847	0.094015
H	0.4200390464449031 0.8530566839106867 0.3429920007532268	0.100030
H	0.2955780772181565 0.8510802888628464 0.3371214021847853	0.102276
H	0.2956477466835500 0.6497305870854115 0.4344488356243737	0.101539
H	0.4199636319964693 0.6511101614525020 0.4393569161452047	0.104363
H	0.8590111674673381 0.6980960467583388 0.2865592127065169	0.097165
H	0.9833593676057756 0.6948749931103866 0.2789881636303006	0.116562
H	0.9882148292700605 0.8000476762334278 0.5124080839108629	0.113976
H	0.8628830196501892 0.7986640272489175 0.5110360730427238	0.094939
H	0.0798369442089393 0.6471361380823327 0.3431000692068528	0.100166
H	0.2043739911381895 0.6490235679588098 0.3369891288936653	0.101402
H	0.2044830032472226 0.8503658886683078 0.4343832038444598	0.101838
H	0.0801373255526986 0.8489683826340415 0.4396880461517931	0.103500
H	0.6964917518848800 0.6412166182310792 0.2858276615894204	0.094418
H	0.6940585333940040 0.5162928925993389 0.2781685507691349	0.114243
H	0.7992554335267469 0.5121288495578088 0.5115617891261318	0.116281
H	0.7966659882405329 0.6369258428919742 0.5107057370041520	0.098324
H	0.6469247163458829 0.4201240342403507 0.3428715926523201	0.100838
H	0.6489184286987114 0.2955972609505431 0.3371078200904589	0.101590
H	0.8502907405892285 0.2955534282205614 0.4344525508346263	0.101796
H	0.8487901544957954 0.4199091022775002 0.4393846215147997	0.104780
H	0.8019418844651057 0.8585916363323635 0.2866255010661314	0.093495
H	0.8049873973778195 0.9834896415921883 0.2786073027305537	0.115957
H	0.7002902210356482 0.9881419869760169 0.5121162721311315	0.113716
H	0.7016495397418074 0.8624583279777609 0.5099631295114112	0.090743
H	0.8529787208402216 0.0798006885669143 0.3430921456674902	0.099835
H	0.8509907418255745 0.2043093525733880 0.3370632450863761	0.102466
H	0.6496782564228755 0.2044969928910871 0.4344242051739289	0.101445
H	0.6510741481287017 0.0801756600552195 0.4395205022364356	0.103564
H	0.3587892375332185 0.3035055378750641 0.2141752776998163	0.094496
H	0.4837064998267119 0.3059423281163579 0.2218317840205266	0.114241
H	0.4878713165813596 0.2007454751932334 0.9884372069814656	0.116237
H	0.3630815494299957 0.2033404037911197 0.9892872556464383	0.098384
H	0.5798802771871174 0.3530784162097607 0.1571287777897919	0.100823
H	0.7044001364382635 0.3510865395266718 0.1628912489682203	0.101567
H	0.7044444984274700 0.1497078068498411 0.0655461220056404	0.101759
H	0.5800958867779662 0.1512074815029134 0.0606149817750721	0.104768
H	0.1414037578137454 0.1980652601578200 0.2133802685232401	0.093515
H	0.0165125881604444 0.1950139660653039 0.2213947047972980	0.115921
H	0.0118593568848426 0.2997110335691644 0.9878838058750855	0.113688
H	0.1375370404618194 0.2983474894842133 0.9900344752447210	0.090686
H	0.9201953229163793 0.1470192023969616 0.1569084583925252	0.099776
H	0.7956937591501358 0.1490070654750349 0.1629363532105150	0.102478
H	0.7955069964187432 0.3503260355552801 0.0655738365011424	0.101448
H	0.9198211099014426 0.3489289413475653 0.0604786574484715	0.103565
H	0.3019003769521607 0.1409974144255678 0.2134429711700640	0.097136
H	0.3051257902032684 0.0166454753201361 0.2210126948704605	0.116529
H	0.1999532836334456 0.0117891636331248 0.9875934974600853	0.113969
H	0.2013392291618909 0.1371255594824612 0.9889646087323817	0.094923
H	0.3528626700038823 0.9201695425362038 0.1568973813354201	0.100157
H	0.3509749668334962 0.7956256119548893 0.1630104198245654	0.101481
H	0.1496397179252487 0.7955166010794642 0.0656179838934054	0.101840
H	0.1510351476671727 0.9198680962419924 0.0603130028610223	0.103488
H	0.1964955803123871 0.3583004638287450 0.2130449758906258	0.090237
H	0.1943067492772199 0.4836846835119584 0.2216508568140357	0.113556
H	0.2990838488690529 0.4879405396496039 0.9882154592632612	0.116433
H	0.2965698687707886 0.3627302822396092 0.9894798426541569	0.094216
H	0.1469466188377407 0.5799568691342804 0.1570055222223931	0.100011
H	0.1489238088080863 0.7044239934924578 0.1628772548638007	0.102281
H	0.3502662462605643 0.7043549364961406 0.0655524311713736	0.101597
H	0.3488879945586520 0.5800332929500966 0.0606442782118112	0.104356
Ni	0.2501619440062774 0.2498367178641786 0.6009278961510803	0.761854
Ni	0.7501585307159695 0.7498381367058623 0.8990723680502888	0.763108
Ni	0.7501617697476235 0.7498444312767016 0.3990711756060510	0.763105
Ni	0.2501565411416677 0.2498357676161030 0.1009367133435802	0.763038
In	0.2514162998925653 0.2503707418346066 0.3513197550967356	1.574402
In	0.7496077452938786 0.7485935708409606 0.1486682228081694	1.574384
In	0.7513909349137877 0.7503666270787647 0.6486724080266548	1.574370
In	0.2496067714673235 0.2485850143041022 0.8513554230223100	1.574007
	  	
