#======================================================================

# CRYSTAL DATA

#----------------------------------------------------------------------

data_VESTA_phase_1


_pd_phase_name                         InFFIVE_3_Zn
_cell_length_a                         14.38739
_cell_length_b                         14.38789
_cell_length_c                         8.30680
_cell_angle_alpha                      90.00344
_cell_angle_beta                       90.00109
_cell_angle_gamma                      90.76633
_symmetry_space_group_name_H-M         P 1
_symmetry_Int_Tables_number            1

loop_
_symmetry_equiv_pos_as_xyz
   x, y, z

loop_
   _atom_site_label
   _atom_site_fract_x
   _atom_site_fract_y
   _atom_site_fract_z
   _atom_site_charge
C	0.2657122142964254 0.4526055287687663 0.6330347160005539	0.060097
C	0.2305127294471083 0.0497088268977613 0.6366686174128608	0.064690
C	0.2321856708842971 0.4527446231901772 0.3620202610963811	0.055904
C	0.2664083486219944 0.0493521105252840 0.3670077558360914	0.063569
C	0.0493568904637848 0.2664059153403271 0.3670079485329136	0.063443
C	0.4527451388034944 0.2321806376225796 0.3620239569057993	0.055753
C	0.4526031734785995 0.2657137135184474 0.6330411471286731	0.060197
C	0.0497140717202213 0.2305120904638950 0.6366628834648151	0.064619
C	0.9527494239073787 0.2321783947270588 0.6379642581649575	0.055897
C	0.5493598951800459 0.2664056712215720 0.6329886375176181	0.063378
C	0.5497110694179475 0.2305156588401567 0.3633251002867541	0.064735
C	0.9526021360776294 0.2657145426188307 0.3669570087211322	0.060240
C	0.7305182489837748 0.0497055324427255 0.3633324553853210	0.064630
C	0.7657164443628750 0.4525972254444204 0.3669576949562012	0.060234
C	0.7664104760222946 0.0493599835714577 0.6329937668378600	0.063236
C	0.7321833166099150 0.4527434489756903 0.6379697108854629	0.055751
C	0.4527468146855013 0.7321793532379760 0.6379722983528443	0.055751
C	0.0493603949369230 0.7664049166774899 0.6329993220717564	0.063402
C	0.0497080278207927 0.7305171258392762 0.3633358032319418	0.064671
C	0.4526047549049056 0.7657151777583104 0.3669589630289677	0.060241
C	0.2305193163873105 0.5497073537606908 0.3633253415632430	0.064597
C	0.2657154495203706 0.9525980843375813 0.3669509249733456	0.060170
C	0.2664030946048947 0.5493591432237542 0.6329882004851428	0.063416
C	0.2321792079629037 0.9527447575869030 0.6379624584650925	0.055734
C	0.7657180415247647 0.9526051682212284 0.6330427944144517	0.060413
C	0.7305174830986654 0.5497060106610904 0.6366763736767156	0.064734
C	0.7321838995852509 0.9527425788247406 0.3620305831785347	0.055776
C	0.7664095676631579 0.5493512708486761 0.3670177916927830	0.063645
C	0.5493611623966490 0.7664095020271869 0.3670133290865582	0.063403
C	0.9527421392212817 0.7321812945220936 0.3620369717243793	0.055792
C	0.9526041344141316 0.7657118484578120 0.6330528402123586	0.060254
C	0.5497125967257331 0.7305146228282552 0.6366740935804974	0.064738
H	0.2761033547607808 0.4136562012010798 0.7437172551017469	0.108418
H	0.2137003224157654 0.0882855782733860 0.7457214463710380	0.108231
H	0.2200544503886757 0.4147874288304395 0.2499895133385010	0.111925
H	0.2805201266428408 0.0886243244035349 0.2576144741650971	0.103859
H	0.0886278109120373 0.2805187411179692 0.2576080142320754	0.103901
H	0.4147884795804283 0.2200487230114027 0.2499923794988605	0.111954
H	0.4136543388159135 0.2761066273584027 0.7437354412531785	0.108397
H	0.0882922373801922 0.2137012494403277 0.7457090728946709	0.108194
H	0.9147944538803737 0.2200517982889670 0.7499982217725951	0.111897
H	0.5886326578604161 0.2805182211805344 0.7423894706697756	0.103947
H	0.5882867065987004 0.2137038695849385 0.2542751732092108	0.108179
H	0.9136542238729678 0.2761078109494737 0.2562666430083278	0.108379
H	0.7137055773224796 0.0882774824083313 0.2542845489024310	0.108285
H	0.7761060361665925 0.4136479285045647 0.2562597471897297	0.108344
H	0.7805220166726293 0.0886338821284988 0.7423953121351653	0.104031
H	0.7200545453885917 0.4147858377994139 0.7499973933248462	0.111937
H	0.4147908485765890 0.7200508788025793 0.7499972524959347	0.111988
H	0.0886336021063879 0.7805153060586282 0.7423993275788834	0.103957
H	0.0882805858637471 0.7137081081516203 0.2542821916644868	0.108212
H	0.4136564367682894 0.7761078275621772 0.2562703323121275	0.108376
H	0.2137106298158209 0.5882794618355418 0.2542769177090883	0.108269
H	0.2761080066254809 0.9136512136108150 0.2562544604122837	0.108406
H	0.2805130491747593 0.5886311293140550 0.7423923245117044	0.103938
H	0.2200545963622567 0.9147900768769774 0.7499911189468088	0.111948
H	0.7761109343210710 0.9136604196871679 0.7437295414370180	0.108333
H	0.7137040416893047 0.5882811906055002 0.7457304073924418	0.108232
H	0.7200524284634684 0.9147843475442161 0.2500000711179352	0.111945
H	0.7805198072224691 0.5886251574069603 0.2576234595782725	0.103834
H	0.5886350057389704 0.7805213702108169 0.2576192322899157	0.103950
H	0.9147850244368526 0.7200517031927494 0.2500077191948470	0.111921
H	0.9136564934375109 0.7761037294338474 0.7437471478419151	0.108366
H	0.5882897315853218 0.7137019928557103 0.7457158041047212	0.108235
Zn	0.2508172696974384 0.2508203092935499 0.4983394708673014	0.733141
Zn	0.7508205023621402 0.2508164943230754 0.5016397299919583	0.733246
Zn	0.2508323063362610 0.7508251627686847 0.5016560280998612	0.733228
Zn	0.7508151232687860 0.7508189216954770 0.4983493826587897	0.733169
In	0.2493192993377368 0.2493756358467029 -0.0024469428670851	1.542106
In	0.7493282159036075 0.2493652028940110 0.0024476795660463	1.542099
In	0.2493520134135646 0.7493417077759597 0.0024426513098686	1.542123
In	0.7493312527555979 0.7493644788474196 -0.0024456474199347	1.542212
F	0.2563280052795868 0.2563255207464825 0.7417551637844222	-0.558631
F	0.2466706095805145 0.2466519846481220 0.2537994099581622	-0.560194
F	0.1502771035192517 0.1502676138015366 -0.0288925041220939	-0.581182
F	0.2160153375485997 0.3852742306013518 0.0050065515268420	-0.587408
F	0.3851893819568876 0.2161088662464708 0.0050300146469659	-0.587377
F	0.7466720788025383 0.2466713161281843 0.7461908610309625	-0.560349
F	0.7562942811847143 0.2563079214279201 0.2582296531898751	-0.558630
F	0.6503070970615810 0.1502272499898272 0.0288701079947205	-0.581171
F	0.7160755549626423 0.3852350090754645 -0.0049636223748431	-0.587407
F	0.8852357192345801 0.2161438313026802 -0.0049385481719199	-0.587433
F	0.2466943668077128 0.7466977443640448 0.7462134933721147	-0.560343
F	0.2562904197171508 0.7562997755174768 0.2582322078362295	-0.558621
F	0.1503030788761914 0.6502230242320489 0.0287917491182580	-0.581215
F	0.2161552186075991 0.8852234277458533 -0.0050126385317564	-0.587404
F	0.3852537258095200 0.7161030721514644 -0.0050219499477611	-0.587481
F	0.7563150042793451 0.7563396671568011 0.7417681423388174	-0.558640
F	0.7466514045944593 0.7466521951431689 0.2538065075546543	-0.560280
F	0.6502782123605286 0.6502711427328800 -0.0288892843603349	-0.581146
F	0.7160717984542695 0.8852560948832112 0.0050303431813111	-0.587450
F	0.8852191092676233 0.7161109943633025 0.0050125154416617	-0.587444
N	0.4042647024451824 0.2496942953344344 0.4969028127837382	-0.188022
N	0.0979872358526333 0.2487242637246726 0.5014822883051958	-0.188664
N	0.2496946166938548 0.4042687668741886 0.4968935886171231	-0.188115
N	0.2487253599871213 0.0979816594238594 0.5014904460916381	-0.188797
N	0.9042680079644404 0.2496937198238678 0.5030936416664495	-0.188060
N	0.5979884034620971 0.2487267375677434 0.4985061309440977	-0.188721
N	0.7496976216745792 0.4042622060357433 0.5030872879307668	-0.188060
N	0.7487311263068092 0.0979829735484212 0.4985148041437478	-0.188656
N	0.4042690350436484 0.7496914436412028 0.5030961460191465	-0.188094
N	0.0979875928442295 0.7487268217156956 0.4985141575891381	-0.188684
N	0.2496958832568634 0.9042653385623892 0.5030834518717888	-0.188007
N	0.2487272535595289 0.5979822592145148 0.4985099545361301	-0.188672
N	0.9042639576721720 0.7496930315139896 0.4969172355597575	-0.188070
N	0.5979875951338003 0.7487286268834662 0.5014955258467301	-0.188699
N	0.7496968960456245 0.9042677700547601 0.4969057388688037	-0.188182
N	0.7487277194983416 0.5979801017650882 0.5015009670251045	-0.188914
	  	
