#======================================================================

# CRYSTAL DATA

#----------------------------------------------------------------------

data_VESTA_phase_1


_pd_phase_name                         InFFIVE_18_Co
_cell_length_a                         14.02847
_cell_length_b                         14.03422
_cell_length_c                         8.18750
_cell_angle_alpha                      90.20351
_cell_angle_beta                       96.03912
_cell_angle_gamma                      90.05560
_symmetry_space_group_name_H-M         P 1
_symmetry_Int_Tables_number            1

loop_
_symmetry_equiv_pos_as_xyz
   x, y, z

loop_
   _atom_site_label
   _atom_site_fract_x
   _atom_site_fract_y
   _atom_site_fract_z
   _atom_site_charge
F	0.4979687548188932 0.3321571645743800 0.4871273669005859	-0.592642
F	0.5224535515067804 0.4922190061884849 0.7537265147099965	-0.561194
F	0.3610082077291388 0.5252881217644465 0.5178079357252003	-0.560401
F	0.9996265451126962 0.8309529610660505 0.4968761067314369	-0.595346
F	0.0236045364928650 0.9918769390956532 0.7549566175016633	-0.560914
F	0.8618943822674513 0.0256557157167731 0.5175707404405196	-0.559222
F	0.6325576064046288 0.5306232486868872 0.4857408061867888	-0.561532
F	0.4740902056760323 0.4982631513955992 0.2473294979768111	-0.558145
F	0.1314117647831965 0.0322580049204442 0.4846990224340971	-0.560412
F	0.9738566750891772 0.9914712908468117 0.2463950269709010	-0.558737
C	0.6784424400201193 0.1637158132641606 0.6645948330103874	-0.421567
C	0.7515886912795336 0.1554691426193876 0.8091843444972893	0.202722
C	0.7572237027740268 0.1980296680481168 0.9646821364577040	-0.150276
C	0.6882661799166037 0.2626270229668642 0.0279318871783619	-0.143554
C	0.6729686614269270 0.3603612608344783 0.9904150446651085	0.213342
C	0.7273263515760303 0.4214133417755003 0.8835042732361087	-0.429031
C	0.8849307548512927 0.1902709168866425 0.2191142519839904	-0.432293
C	0.8444107069740749 0.1651162836892281 0.0488786123185647	0.218971
C	0.6234767462642015 0.2402271240021642 0.1410713573040964	0.206727
C	0.6040267362780873 0.1483756243429064 0.2221085772103779	-0.427184
C	0.1788146656421627 0.6636970738153963 0.6646307385621774	-0.423277
C	0.2523054285158047 0.6556511137235187 0.8087591364132554	0.203682
C	0.2586428432495478 0.6994446937275345 0.9634631131392344	-0.151044
C	0.1898494964067008 0.7646273368263048 0.0256540868714268	-0.142328
C	0.1749242108064606 0.8622451870678894 0.9870085567500506	0.215534
C	0.2300059499616250 0.9231200156183429 0.8809588227185401	-0.427729
C	0.3867178683562140 0.6933798298828029 0.2168359582537339	-0.431290
C	0.3457739196279880 0.6667398296317946 0.0476003039373542	0.220725
C	0.1243141433561645 0.7425940751846113 0.1377197419797988	0.208652
C	0.1043592370314295 0.6510766163574165 0.2192311760689436	-0.428423
C	0.3233528189614134 0.1638704507137077 0.3317515337370752	-0.423873
C	0.2482933032197801 0.1559960114430923 0.1899120238071617	0.206370
C	0.2426034459386155 0.1968039124912302 0.0333523333432632	-0.151662
C	0.3127371358653502 0.2601903519257396 0.9711424263175670	-0.140508
C	0.3285653103796843 0.3572664505279248 0.0148562898981320	0.216334
C	0.2724225788672539 0.4171861715244203 0.1210589746411429	-0.429499
C	0.1122033135126179 0.1938306329575989 0.7840665469654373	-0.433345
C	0.1533834984394238 0.1669159610973517 0.9526214926120323	0.223404
C	0.3793325626503666 0.2387926363505369 0.8602926489158097	0.206989
C	0.3996158293283811 0.1491466006727316 0.7721720088634334	-0.427789
C	0.8214611226098718 0.6645826821240722 0.3329068855455453	-0.423234
C	0.7465459191815379 0.6566822292493132 0.1906441608781589	0.205012
C	0.7411883568475558 0.6975846739983459 0.0342141653788792	-0.149965
C	0.8113587540510971 0.7610626474416603 0.9721951493357811	-0.142178
C	0.8267187394629817 0.8583369082967699 0.0148864977050295	0.216079
C	0.7700837319362490 0.9183808433879236 0.1201518351867412	-0.429230
C	0.6116036018400680 0.6942636981073859 0.7838311656106213	-0.430534
C	0.6523605675242042 0.6673688639023417 0.9526176137205822	0.221267
C	0.8775349418715452 0.7396990555966184 0.8607854297885799	0.207766
C	0.8978810890222251 0.6499950375227724 0.7728884325518556	-0.427693
H	0.7117324244981954 0.1832321553642902 0.5538627001148112	0.145967
H	0.6256821168814090 0.2186340148967083 0.6860735100765302	0.137000
H	0.6400771921834975 0.0960548713212446 0.6378608375862337	0.135056
H	0.6802792551511984 0.4543085981044991 0.7839815697629288	0.140865
H	0.7814492204525508 0.3782915514323081 0.8300192479016667	0.134193
H	0.7642157770157275 0.4794930725396830 0.9554598773011678	0.133493
H	0.8500599616095849 0.0625022655124054 0.7076179094320477	0.272823
H	0.8608689755372350 0.1401938933480008 0.3094629601838034	0.134508
H	0.8610868527973553 0.2620217493465968 0.2500207227931250	0.134045
H	0.9635011165507656 0.1886633608548557 0.2304390259207807	0.137072
H	0.5712916670853897 0.1602331246947281 0.3363225000748639	0.143653
H	0.6705873505337173 0.1080377197882047 0.2505027209104975	0.151311
H	0.5550219504205448 0.1035740592702216 0.1406214287571791	0.132999
H	0.5262747677516967 0.3317234838993327 0.2475099504261623	0.264384
H	0.2119777096613296 0.6823272784845434 0.5534098811765159	0.146179
H	0.1265614729321374 0.7191294727584466 0.6859688557504814	0.138786
H	0.1400776746101298 0.5961538362574846 0.6392261515940114	0.135468
H	0.1832621167628136 0.9564692885173874 0.7816376482413838	0.141137
H	0.2840243082100429 0.8798443274698620 0.8276639147906738	0.134144
H	0.2668623871089140 0.9808649651687986 0.9537099874692587	0.132668
H	0.3500414389897384 0.5616152275435832 0.7080343707542464	0.272977
H	0.3617408624857305 0.6448975105702295 0.3087673776933544	0.134460
H	0.3639048393866111 0.7659130898002235 0.2452985701896672	0.132787
H	0.4652150626930496 0.6902117222199197 0.2285579798820959	0.138277
H	0.0717959528784288 0.6633765990332965 0.3335357175088321	0.145254
H	0.1707161089214686 0.6103528966688611 0.2476413294313900	0.151404
H	0.0548850733596351 0.6064184936895131 0.1382114352227893	0.133459
H	0.0249189250197262 0.8346398569961473 0.2381146181141949	0.264877
H	0.2911341861278758 0.1750898074991210 0.4468026844232446	0.145836
H	0.3716642349498218 0.2237746533375460 0.3154357044332104	0.141494
H	0.3668429279526788 0.0985599613017242 0.3463387587196585	0.133961
H	0.3192613021111592 0.4586760407268723 0.2101520910557841	0.142163
H	0.2256105497784491 0.3718913591891178 0.1869477419540914	0.135422
H	0.2268877510448325 0.4677842965731818 0.0459611184555946	0.133756
H	0.1472289870770360 0.0683014191783303 0.2962145357064452	0.274610
H	0.1314051086744326 0.1419881493043188 0.6920380864198415	0.137106
H	0.1410275169921976 0.2635454352953380 0.7530088334425149	0.133131
H	0.0337494199272004 0.1978225693987929 0.7754714946498793	0.139022
H	0.4322306612812826 0.1648094585210923 0.6591904305463702	0.144496
H	0.3334783404797722 0.1084681962709711 0.7397927457776301	0.152627
H	0.4493470106008954 0.1032170788565280 0.8492613264565959	0.133807
H	0.4819207377144338 0.3318671929355897 0.7701419217275244	0.264403
H	0.7893155761191794 0.6764922137780253 0.4477426031243348	0.145618
H	0.8700254708296894 0.7241166774593152 0.3158890201985651	0.140646
H	0.8646619467552435 0.5991615287672672 0.3480210785673574	0.134648
H	0.8166671994523109 0.9600696513669894 0.2092948473156928	0.142484
H	0.7230089137546751 0.8731743275775133 0.1855953269861920	0.134947
H	0.7248693366542689 0.9686555912507745 0.0438728388726910	0.133267
H	0.6457513804161505 0.5679834206440113 0.2955541138946501	0.273464
H	0.6296307632979752 0.6415481151775670 0.6923066259543872	0.135802
H	0.6418183266732905 0.7632279642695907 0.7518883922368585	0.132404
H	0.5332630963884941 0.6999550820502175 0.7755079863994639	0.138646
H	0.9306391647163919 0.6656150758936232 0.6599849650903458	0.144369
H	0.8318577826699040 0.6091519206181443 0.7401408238690919	0.152585
H	0.9476216381538008 0.6040099036821370 0.8500139341842138	0.133444
H	0.9784819316022751 0.8328035423519088 0.7668320559278508	0.264408
N	0.8307987776627704 0.1010728422269570 0.8073226073842531	-0.149421
N	0.6021656816569884 0.3947603920569427 0.0729921331772811	-0.276239
N	0.8882767002114337 0.1058672772347666 0.9509575455365190	-0.270175
N	0.5740336524086916 0.3209108920378757 0.1632308421164845	-0.143174
N	0.3310110309210222 0.6005876949917096 0.8075207687332216	-0.150302
N	0.1035016390752592 0.8969189439791110 0.0677958944596011	-0.272894
N	0.3890656145291429 0.6062519859862713 0.9506945011211724	-0.269632
N	0.0749015657461526 0.8233896970498652 0.1582365962814512	-0.145034
N	0.1675586738034238 0.1044242099432588 0.1950308651497683	-0.150951
N	0.4013376872422414 0.3921710678406347 0.9384211559201147	-0.268960
N	0.1086586650421004 0.1097511240203485 0.0526426078603619	-0.275479
N	0.4301269940526318 0.3196599865098065 0.8457353526573990	-0.146654
N	0.6659042589579356 0.6047870007429402 0.1949347942150438	-0.150069
N	0.8989540857763959 0.8934944107598769 0.9374067771473915	-0.269328
N	0.6074243090517796 0.6099308347653672 0.0519357140589832	-0.273911
N	0.9278555080396063 0.8207520080139943 0.8449517763383051	-0.148339
In	0.4974553952303761 0.4777797110240239 0.4996754170024598	1.556931
In	-0.0022708034232989 0.9765358383645641 0.5005641961800756	1.556414
Co	0.4994927827926510 0.5076478130469626 0.0024881898027932	0.861360
Co	0.0004766948323150 0.0076339857256207 0.0024937484692094	0.860522
	  	
