#======================================================================

# CRYSTAL DATA

#----------------------------------------------------------------------

data_VESTA_phase_1


_pd_phase_name                         InFFIVE_2_Fe
_cell_length_a                         14.04792
_cell_length_b                         14.04798
_cell_length_c                         8.26419
_cell_angle_alpha                      90.13007
_cell_angle_beta                       89.87002
_cell_angle_gamma                      89.99493
_symmetry_space_group_name_H-M         P 1
_symmetry_Int_Tables_number            1

loop_
_symmetry_equiv_pos_as_xyz
   x, y, z

loop_
   _atom_site_label
   _atom_site_fract_x
   _atom_site_fract_y
   _atom_site_fract_z
   _atom_site_charge
C	0.5299533221970913 0.7057915954239571 0.1306134436426692	0.102844
C	0.5307227274268393 0.8045181463100609 0.1364910017313140	-0.166756
C	0.4690912317645155 0.2949134223478962 0.1309618708891567	0.100804
C	0.4689363820464922 0.1961240688160004 0.1363429945824335	-0.169023
C	0.2947750032850235 0.5303881448025665 0.1296891501815832	0.102939
C	0.1960409182728274 0.5308385867677282 0.1360921150359156	-0.168900
C	0.7055417801334168 0.4698590142889246 0.1303993339680110	0.097292
C	0.8043029546566315 0.4693198720973032 0.1357785197063203	-0.166782
C	0.4698571903891398 0.7055421690938659 0.8696073143549797	0.097246
C	0.4693192932147686 0.8043029130712220 0.8642268635051378	-0.166770
C	0.5303853487819871 0.2947737888786993 0.8703101768547877	0.102921
C	0.5308393925781011 0.1960402360137366 0.8639108708827173	-0.168927
C	0.7057899085302510 0.5299543382577625 0.8693949719081694	0.102867
C	0.8045190451671395 0.5307222035633897 0.8635121363684310	-0.166720
C	0.2949126322258300 0.4690928055754199 0.8690354029882672	0.100871
C	0.1961246253508785 0.4689345464025917 0.8636570520053366	-0.169023
C	0.4999749148880810 0.1442429981069932 0.0000303313287172	0.170999
C	0.5000866076449620 0.0436235380574929 -0.0000007212791720	-0.098887
C	0.5000411940114385 0.8562033776619962 0.0004116063924217	0.165860
C	0.5000825785842886 0.9568313191331044 0.0003426303882741	-0.091397
C	0.8562039234744344 0.5000420553511652 -0.0004088442720796	0.165799
C	0.9568312098860261 0.5000863965119643 -0.0003405379591507	-0.091536
C	0.1442429823877454 0.4999745345671062 -0.0000273282047990	0.170908
C	0.0436220417817106 0.5000902578074438 0.0000053834988683	-0.098670
H	0.5526360270466276 0.6640066887048475 0.2344644282239376	0.090176
H	0.5550597972021329 0.8411915905073675 0.2449647983985515	0.126596
H	0.4438943895374328 0.3367744115583335 0.2341309283904670	0.092913
H	0.4440587534990774 0.1593575440465110 0.2442566391710073	0.127846
H	0.3370559968855795 0.5552447607662458 0.2319670583296806	0.088489
H	0.1592663192914008 0.5555928005747501 0.2443862469707413	0.126460
H	0.6641084943059117 0.4469927067300112 0.2351717450677180	0.095505
H	0.8407781750657337 0.4448800273137022 0.2441049180922834	0.128406
H	0.4469929713418647 0.6641076027964090 0.7648371773828001	0.095542
H	0.4448789308160612 0.8407765796608485 0.7559009425270199	0.128376
H	0.5552437834697486 0.3370547955134225 0.7680320391699808	0.088499
H	0.5555933607992199 0.1592635973319062 0.7556160153129926	0.126450
H	0.6640047599818626 0.5526369204128595 0.7655431570073770	0.090127
H	0.8411903240502174 0.5550610391764939 0.7550401768993145	0.126609
H	0.3367737644298227 0.4438935073786879 0.7658700881062981	0.092923
H	0.1593560803031440 0.4440587267946744 0.7557405092743983	0.127800
Fe	0.5003169192208053 0.5003285148687360 0.0000032552362315	0.810948
In	0.4994200512494942 0.4994155420507839 0.4999987552600420	1.557074
F	0.4996019609662405 0.5008366444563691 0.7575368453227483	-0.537015
F	0.5008513417645859 0.4996344183207502 0.2424586240763726	-0.536981
F	0.4608869111572222 0.6380459411876308 0.4968218066780080	-0.603654
F	0.3978184542886113 0.3977176374016705 0.4999858461787953	-0.605747
F	0.6380721090402491 0.4609613578381753 0.5031285342417080	-0.603633
N	0.4998033761469206 0.3441068917327836 0.0006675684916075	-0.246489
N	0.4999282831971942 0.6564386591395536 0.0001636128216032	-0.249339
N	0.6564366901861092 0.4999316592544235 -0.0001533515707432	-0.249362
N	0.3441048320770925 0.4998091365736447 -0.0006740135592365	-0.246479
	  	
