#======================================================================

# CRYSTAL DATA

#----------------------------------------------------------------------

data_VESTA_phase_1


_pd_phase_name                         InFFIVE_3_Cu
_cell_length_a                         13.84470
_cell_length_b                         13.86355
_cell_length_c                         8.51354
_cell_angle_alpha                      90.03369
_cell_angle_beta                       90.10558
_cell_angle_gamma                      92.41666
_symmetry_space_group_name_H-M         P 1
_symmetry_Int_Tables_number            1

loop_
_symmetry_equiv_pos_as_xyz
   x, y, z

loop_
   _atom_site_label
   _atom_site_fract_x
   _atom_site_fract_y
   _atom_site_fract_z
   _atom_site_charge
C	0.2612528730469976 0.4507783223424209 0.6245835630841008	0.061684
C	0.2339454490769332 0.0513869710127006 0.6417890229595219	0.070416
C	0.2369479619604267 0.4504346232645196 0.3563007886012192	0.061709
C	0.2604887541651138 0.0506960929781364 0.3745613832037265	0.062920
C	0.0510204242025113 0.2632835850296325 0.3739484003833309	0.063829
C	0.4503576913326993 0.2350295948562878 0.3577926129583028	0.059830
C	0.4507771659667115 0.2630685182749420 0.6249753717379176	0.060328
C	0.0514277520688420 0.2319244169180575 0.6398160436357521	0.071916
C	0.9506233308972630 0.2346803926002062 0.6418383345094679	0.059903
C	0.5511814992760506 0.2621823077868310 0.6262234788243016	0.064112
C	0.5511658682299662 0.2322073841547714 0.3597340721912131	0.071098
C	0.9506405007362851 0.2643422145130808 0.3750958529928214	0.060775
C	0.7338033320149787 0.0515165530114447 0.3582879758617942	0.071468
C	0.7622842562816541 0.4497140813993331 0.3752590734734210	0.060369
C	0.7605292550673940 0.0515422127757856 0.6260069979150443	0.062600
C	0.7362845074948177 0.4499552092106696 0.6432028073149786	0.062145
C	0.4506008187287115 0.7351117549111558 0.6424823128512779	0.060017
C	0.0514502739352305 0.7629961355071267 0.6260727285123212	0.063252
C	0.0513976274925891 0.7321120913598032 0.3598920191673420	0.072523
C	0.4505894354277333 0.7638369680749888 0.3754157583567695	0.061856
C	0.2344851589888195 0.5511537590358813 0.3576854803200823	0.071407
C	0.2618996003426330 0.9504654032869372 0.3761754689277785	0.062026
C	0.2600640346825428 0.5510240969806209 0.6254018584787742	0.063191
C	0.2367683859195585 0.9506981462536568 0.6440639257243815	0.063063
C	0.7619598449998106 0.9513173442712096 0.6250244514120015	0.059891
C	0.7336249040692988 0.5506186765495696 0.6409395669569731	0.068986
C	0.7363398478643330 0.9508284872647337 0.3568312376924318	0.061283
C	0.7612451976683743 0.5499483499685852 0.3738364949919508	0.061248
C	0.5509305394029039 0.7625587068648820 0.3742115286608192	0.062854
C	0.9506108870033487 0.7348473075727637 0.3577366440483100	0.060296
C	0.9510894844568278 0.7638188080885847 0.6248131929217929	0.062066
C	0.5513557545680978 0.7320943280802116 0.6405378103067212	0.072206
H	0.2687870510900734 0.4103481419268337 0.7331483884103355	0.118731
H	0.2197373488856262 0.0913562402098543 0.7494071323573797	0.117624
H	0.2278591177054209 0.4112847950076172 0.2453588985110574	0.118722
H	0.2686465612112605 0.0915672731714138 0.2660204991384182	0.117100
H	0.0921595152226882 0.2737399226206781 0.2661652895623196	0.117159
H	0.4111147686649747 0.2254861623244607 0.2469218204783788	0.118537
H	0.4101232137344898 0.2720452980894095 0.7328610819990847	0.117842
H	0.0914553157547366 0.2163366661998381 0.7469490944617481	0.116234
H	0.9118484338849677 0.2245552872513880 0.7528616244877511	0.119554
H	0.5920158686988357 0.2723189839616066 0.7347403056643862	0.116835
H	0.5906303664616652 0.2168782212816634 0.2520220206614458	0.117843
H	0.9103425851431136 0.2738092313291602 0.2667623335361824	0.117565
H	0.7197370094990289 0.0913352587873751 0.2504526360963531	0.117611
H	0.7702376893839313 0.4088323278963205 0.2673092836871920	0.117065
H	0.7686086810752579 0.0928471817047981 0.7342336764410700	0.117509
H	0.7269871399521349 0.4110415311594400 0.7541739704459295	0.118375
H	0.4116787531351597 0.7252930469135456 0.7533072338894454	0.119705
H	0.0925585618082116 0.7734785789794830 0.7341203416688927	0.116998
H	0.0911200460509352 0.7165723745185107 0.2526957259620314	0.117347
H	0.4100460375764357 0.7731987504018291 0.2673535809874764	0.117766
H	0.2207947622415822 0.5907986626835061 0.2494930596972345	0.118340
H	0.2697997818571355 0.9097512560558143 0.2680303441148574	0.117577
H	0.2679491795657700 0.5922006703277259 0.7337672856983209	0.116769
H	0.2276954696829378 0.9119219455338253 0.7553013589468125	0.119329
H	0.7702169621958473 0.9109139944590193 0.7333169586170288	0.118072
H	0.7192274895534928 0.5906560998393363 0.7482830248291608	0.117707
H	0.7269943702425268 0.9115642390950228 0.2461145507383878	0.118697
H	0.7701133068313241 0.5907938018634489 0.2655403620706309	0.117539
H	0.5918698500529345 0.7726471204664768 0.2660731498339130	0.118739
H	0.9115454476310962 0.7249396125246087 0.2467371338741351	0.119705
H	0.9105783144203787 0.7730938468651902 0.7327813843740204	0.118653
H	0.5911110000541598 0.7164227871421062 0.7479357896431202	0.117640
Cu	0.2502558990810084 0.2502944948231171 0.4967152220388701	0.717799
Cu	0.7502815806524771 0.2503116853426585 0.5026166560340788	0.721296
Cu	0.2505231915164073 0.7503104088217765 0.5031082395863701	0.716906
Cu	0.7504539719878357 0.7501460818911266 0.4971071764572335	0.718742
In	0.2510235456222764 0.2512356461082954 -0.0046369073556367	1.535759
In	0.7514608970327871 0.2516233651315790 0.0046006943972999	1.536137
In	0.2515552084621354 0.7513678256337349 0.0047791852304392	1.535675
In	0.7509533087022959 0.7511368791631456 -0.0047018191844676	1.536075
F	0.2604273051175538 0.2595176277881674 0.7483573921980905	-0.597356
F	0.2412899658095186 0.2416191337302875 0.2421985079253808	-0.598769
F	0.1483096882726442 0.1456681662607844 -0.0442346001300368	-0.582979
F	0.2168546957699438 0.3918202605422571 0.0067939019262765	-0.592257
F	0.3930088005716543 0.2215809406037104 0.0094743605431276	-0.593289
F	0.7426222575683002 0.2424307098886540 0.7578845573937273	-0.599209
F	0.7587776925992366 0.2590811522605750 0.2517350059073455	-0.597543
F	0.6487138051166642 0.1458157522225768 0.0410270732113048	-0.584713
F	0.7185510004143500 0.3924775027367006 -0.0076176322076258	-0.592904
F	0.8936648324165049 0.2227459749442769 -0.0066075789698464	-0.594758
F	0.2427498211473468 0.7424075832955115 0.7579516382899075	-0.598584
F	0.2590067192569830 0.7590892696575936 0.2518613641081441	-0.597459
F	0.1497891031762563 0.6445336952994080 0.0406513462288632	-0.584306
F	0.2177034483936872 0.8920336465491788 -0.0061930169299934	-0.592641
F	0.3938815116725983 0.7224186859077767 -0.0063711194267068	-0.594521
F	0.7599864268478708 0.7590875418095355 0.7480346074565074	-0.597830
F	0.7416153719815863 0.7417981337126709 0.2422554192270905	-0.599622
F	0.6478957414788603 0.6457502451034128 -0.0429889657587301	-0.583107
F	0.7179522829918941 0.8920978829482158 0.0065609412613692	-0.593141
F	0.8929204901597282 0.7212112764107858 0.0087355267527113	-0.594158
N	0.4007005777139088 0.2505227755471158 0.4904230634902130	-0.187275
N	0.1010985836456130 0.2472595393674577 0.5060090076198324	-0.185386
N	0.2506246583349492 0.4008038034054004 0.4896521041287032	-0.188124
N	0.2468644994207497 0.1008593072824700 0.5071737787587823	-0.183720
N	0.9007332556251051 0.2509177903531709 0.5093327314335738	-0.186702
N	0.6010744072006744 0.2469921727225661 0.4938602427637984	-0.184737
N	0.7507106252566470 0.4000883419905881 0.5102147658457470	-0.187635
N	0.7469200582601154 0.1013009396606185 0.4928786536834759	-0.186488
N	0.4007388895967322 0.7509958139094722 0.5098527347350692	-0.185566
N	0.1013106670208982 0.7472964427876267 0.4938686227916858	-0.183011
N	0.2509102458429812 0.9007610812950810 0.5110968569164422	-0.189481
N	0.2471213533678162 0.6009329059047874 0.4922797402662224	-0.185376
N	0.9008640575966737 0.7506969389841189 0.4903261923346363	-0.185458
N	0.6011225915217799 0.7469414890595986 0.5065349177831244	-0.183677
N	0.7506794013547275 0.9012107297451736 0.4901961267318751	-0.188982
N	0.7471655407826924 0.6002065466064579 0.5064078126446715	-0.183781
	  	
