#======================================================================

# CRYSTAL DATA

#----------------------------------------------------------------------

data_VESTA_phase_1


_pd_phase_name                         InFFIVE_3_Ni
_cell_length_a                         14.11414
_cell_length_b                         14.11409
_cell_length_c                         8.25311
_cell_angle_alpha                      90.00575
_cell_angle_beta                       90.00543
_cell_angle_gamma                      90.84991
_symmetry_space_group_name_H-M         P 1
_symmetry_Int_Tables_number            1

loop_
_symmetry_equiv_pos_as_xyz
   x, y, z

loop_
   _atom_site_label
   _atom_site_fract_x
   _atom_site_fract_y
   _atom_site_fract_z
   _atom_site_charge
C	0.2666777418054542 0.4518075432168810 0.6333535265846245	0.061345
C	0.2304009700180411 0.0504511121138830 0.6375857739260822	0.065593
C	0.2319563723425396 0.4517534414968480 0.3613848406978843	0.056170
C	0.2671366631672016 0.0503406070051131 0.3667862643141205	0.063866
C	0.0503424367423638 0.2671373659480785 0.3667825371942448	0.063753
C	0.4517520882192397 0.2319571376943580 0.3613798152387080	0.056039
C	0.4518059655445341 0.2666771794492321 0.6333554943620621	0.061712
C	0.0504519444861887 0.2304035957136254 0.6375823589846438	0.065469
C	0.9517098975859616 0.2319548710078191 0.6386724743042803	0.056214
C	0.5504020910166681 0.2671424087215086 0.6333059409035930	0.063211
C	0.5504942170373679 0.2303924343143318 0.3624928767004957	0.065471
C	0.9517432675891939 0.2666815527414657 0.3667196792723831	0.060772
C	0.7304275097574691 0.0501774707270478 0.3623978790635538	0.066426
C	0.7666115107006255 0.4520199664074583 0.3667880300453630	0.061841
C	0.7670643938389001 0.0500884546621060 0.6331946946125437	0.063605
C	0.7319939483689801 0.4520370329722213 0.6387424683516526	0.055871
C	0.4520380284291845 0.7319958749732810 0.6387466092458735	0.055989
C	0.0500852732489761 0.7670689356345133 0.6331841736406140	0.063512
C	0.0501802893890926 0.7304285998987482 0.3623919017407549	0.066365
C	0.4520225643695562 0.7666147248235740 0.3667901351336997	0.061339
C	0.2303874718082153 0.5504963863972395 0.3624949516523863	0.065364
C	0.2666815938914667 0.9517403124543746 0.3667311047241187	0.060849
C	0.2671426474563395 0.5504056561411380 0.6333035731710742	0.063320
C	0.2319527391778479 0.9517142216431063 0.6386849738770788	0.056267
C	0.7666412964976578 0.9514313263154467 0.6332438911613023	0.061188
C	0.7304289292940133 0.5508503881899115 0.6376047611201385	0.065502
C	0.7319671563252783 0.9513788435687514 0.3612552826216376	0.055668
C	0.7670751080132703 0.5506915212354094 0.3667726152589505	0.063156
C	0.5506928021671549 0.7670756675670777 0.3667784165977694	0.063183
C	0.9513850479352096 0.7319675589320715 0.3612401970724293	0.055840
C	0.9514331660808997 0.7666430219326609 0.6332327334237211	0.061260
C	0.5508498708287334 0.7304286443919890 0.6376113220569657	0.065509
H	0.2774500236681178 0.4129863353562574 0.7455156746962294	0.105881
H	0.2133675318736276 0.0892944527040330 0.7478275893040414	0.107765
H	0.2193468906862982 0.4135165622008214 0.2484262822845671	0.109868
H	0.2811865593739069 0.0899750896092852 0.2560672033275873	0.103165
H	0.0899760573823244 0.2811868473565034 0.2560669294155417	0.103163
H	0.4135155930445796 0.2193467445999211 0.2484244798772046	0.109942
H	0.4129805503667861 0.2774524037713406 0.7455138589347403	0.105760
H	0.0892878654426229 0.2133725122778000 0.7478217248466168	0.107838
H	0.9134781001599326 0.2193168819829224 0.7516238099794634	0.109994
H	0.5900599081054362 0.2812108046718679 0.7440008470893085	0.103494
H	0.5893311627142388 0.2133512959549821 0.2522468388483795	0.107741
H	0.9129073717984496 0.2774706886901217 0.2546005007009654	0.106042
H	0.7134180222193873 0.0889615884762119 0.2520969944477547	0.107456
H	0.7773536077890898 0.4132158951215341 0.2546361352910292	0.105547
H	0.7810755678491036 0.0896736403410017 0.7439752816210237	0.103418
H	0.7193855844522841 0.4138493883467138 0.7517159707771286	0.110256
H	0.4138494720856104 0.7193899928436186 0.7517144661652885	0.110245
H	0.0896698315800257 0.7810871089650672 0.7439694590616056	0.103489
H	0.0889677181927539 0.7134183065215615 0.2520930307300186	0.107514
H	0.4132255486520612 0.7773615632974860 0.2546380016015657	0.105900
H	0.2133490940685340 0.5893335185811032 0.2522525477318081	0.107793
H	0.2774717937059068 0.9129048931204834 0.2546035379413758	0.106034
H	0.2812150275025301 0.5900632950334346 0.7439995231008092	0.103541
H	0.2193128416257310 0.9134830235756983 0.7516306640092558	0.109958
H	0.7774125142118380 0.9126322824104626 0.7453935445389945	0.106529
H	0.7134181211751506 0.5896491709546448 0.7478783793185598	0.107505
H	0.7193700849506355 0.9131631682331812 0.2482998307313932	0.109821
H	0.7811032608826625 0.5902791845402811 0.2560301273241546	0.103395
H	0.5902871641833258 0.7811007884612685 0.2560432594179712	0.103442
H	0.9131693411159955 0.7193710456960238 0.2483015385752132	0.109772
H	0.9126274317172438 0.7774120610995802 0.7453786580607582	0.106446
H	0.5896514253240287 0.7134136290361185 0.7478758324824220	0.107494
Ni	0.2505646414058073 0.2505458933593802 0.4979788384646972	0.752484
Ni	0.7505572922427830 0.2505302297700153 0.5020742346666275	0.753124
Ni	0.2505127410770743 0.7505534242307283 0.5020838997246343	0.753249
Ni	0.7505258136429178 0.7505358833437535 0.4977401846815019	0.751022
In	0.2496136977454554 0.2495810135693114 -0.0035424523204103	1.545741
In	0.7496276777334692 0.2495963169362049 0.0035654142794306	1.545882
In	0.2495833940469369 0.7496249189084960 0.0035855013848893	1.546005
In	0.7496578381694922 0.7496384593632265 -0.0037615220671907	1.544854
F	0.2544533277565327 0.2544564239976513 0.7381467665144683	-0.567084
F	0.2470257847332064 0.2470296254367669 0.2555699777633854	-0.569507
F	0.1486300683904656 0.1486360663427293 -0.0270137641183050	-0.574653
F	0.2140185028201642 0.3872165310237974 0.0027485222097871	-0.578150
F	0.3872411491399440 0.2140228910577107 0.0028173912180112	-0.577957
F	0.7470818175351650 0.2469654992072345 0.7443934926194878	-0.569589
F	0.7544942140983822 0.2545058678659557 0.2619350691760148	-0.567063
F	0.6486732820943377 0.1486481262997713 0.0270280148735353	-0.574551
F	0.7140011618077388 0.3872384524574842 -0.0027166338838908	-0.578223
F	0.8872811775243747 0.2140728081741346 -0.0028288958336520	-0.577958
F	0.2469497910813103 0.7470698737159071 0.7443956795059944	-0.569654
F	0.2545131498163971 0.7544954359359903 0.2619697316615009	-0.567204
F	0.1486667054907639 0.6486687625303372 0.0270258401136520	-0.574515
F	0.2139915695441378 0.8872685232071406 -0.0027591325975938	-0.577961
F	0.3872149556853681 0.7140118613849787 -0.0026501694675342	-0.578324
F	0.7545548319822203 0.7545104756160900 0.7380847221704068	-0.566717
F	0.7469239062445898 0.7469141790483268 0.2549895105607629	-0.568980
F	0.6486699942771780 0.6486530223607451 -0.0275592311548366	-0.573488
F	0.7141934594582771 0.8873696042242039 0.0025777340807704	-0.578219
F	0.8873872181088254 0.7142024557689469 0.0026306907246801	-0.578090
N	0.4021059880861882 0.2500339371313255 0.4968162391068908	-0.195399
N	0.1001213122933411 0.2489739612864123 0.5018202217207843	-0.193544
N	0.2500372215351622 0.4021002687996444 0.4968141094626938	-0.195218
N	0.2489729257783910 0.1001244001961075 0.5018313195880234	-0.193721
N	0.9020520018489430 0.2500286354539737 0.5032616772807940	-0.195151
N	0.6001734343746855 0.2489703181227174 0.4982469406645694	-0.193492
N	0.7500129765745650 0.4023595335177100 0.5033615108663270	-0.195514
N	0.7489491945603849 0.0998582123875749 0.4981326106218404	-0.194504
N	0.4023634136615741 0.7500168153368694 0.5033672449079222	-0.195549
N	0.0998566758359500 0.7489509461090450 0.4981231270809244	-0.194504
N	0.2500300123704360 0.9020505937027025 0.5032703895909307	-0.195237
N	0.2489676982785118 0.6001770935221159 0.4982519230378448	-0.193502
N	0.9017670922380689 0.7500309197454998 0.4966524241130395	-0.195300
N	0.6004453830567527 0.7489523471813533 0.5018048826279699	-0.193248
N	0.7500293630676403 0.9017644465173006 0.4966629832066929	-0.195220
N	0.7489504647523072 0.6004472657300811 0.5017992898844912	-0.193251
	  	
