#======================================================================

# CRYSTAL DATA

#----------------------------------------------------------------------

data_VESTA_phase_1


_pd_phase_name                         InFFIVE_6_Fe_i
_cell_length_a                         17.66824
_cell_length_b                         17.66952
_cell_length_c                         16.36709
_cell_angle_alpha                      90.01345
_cell_angle_beta                       90.01427
_cell_angle_gamma                      89.86823
_symmetry_space_group_name_H-M         P 1
_symmetry_Int_Tables_number            1

loop_
_symmetry_equiv_pos_as_xyz
   x, y, z

loop_
   _atom_site_label
   _atom_site_fract_x
   _atom_site_fract_y
   _atom_site_fract_z
   _atom_site_charge
N	0.2440013301108902 0.1318580179597439 0.1279249510132102	-0.253197
N	0.2563591026249772 0.3680713899702597 0.1284538456353276	-0.256943
N	0.3643212885819288 0.2436840216613568 0.1281047320679381	-0.253104
N	0.1356971066766297 0.2559818661558200 0.1272819547994615	-0.254485
N	0.7562566782814486 0.6292694468363771 0.3715368719348421	-0.249677
N	0.7442955617707937 0.8707763427498750 0.3723497237476388	-0.252051
N	0.6292657258323506 0.7438271401083786 0.3712506635961572	-0.252141
N	0.8707786603218972 0.7556810506649715 0.3718033277953601	-0.250381
N	0.7565067652685490 0.8649684127938903 0.8716661742865619	-0.254392
N	0.7437761706604676 0.6349739699823553 0.8724667144057887	-0.252524
N	0.6350208483634526 0.7558602347708866 0.8726351095853102	-0.253539
N	0.8649630744566897 0.7438251178459206 0.8717767669217221	-0.253406
N	0.2440770581851322 0.3643250366651319 0.6273842066168008	-0.253757
N	0.2563369014159443 0.1356745630225948 0.6279623692736134	-0.252766
N	0.3681687771398698 0.2559811150957991 0.6279014846379432	-0.252970
N	0.1319655140888270 0.2436485896396658 0.6284658497759231	-0.256921
C	0.2017623444149889 0.0953862213424422 0.1838979802306753	0.107810
C	0.1934593348808429 0.0173249343705207 0.1835468189322143	-0.176711
C	0.2318285302294511 0.9742624616683051 0.1247638745539650	0.109918
C	0.2769662498139245 0.0126624348001580 0.0679284341711389	-0.178950
C	0.2808369712634182 0.0910326577624516 0.0708593034757455	0.101415
C	0.2258227550067373 0.8913038385241541 0.1235459894481234	0.061401
C	0.2907093350562804 0.8473753772230068 0.1206541666995054	-0.175244
C	0.2864953331692149 0.7676090156040712 0.1218855024678948	0.085159
C	0.1475290275581554 0.7784591667728756 0.1244376798375427	-0.121848
C	0.1536642026991966 0.8559997549049796 0.1265665485681090	-0.135599
C	0.2984685546029630 0.4044687251830189 0.1848190245258783	0.097491
C	0.3066623037852866 0.4826006374093104 0.1843941865590537	-0.181536
C	0.2682566996315616 0.5256900347438151 0.1255749188969755	0.108338
C	0.2235583997031007 0.4872414247927465 0.0684094682245245	-0.180516
C	0.2199125753831417 0.4087992836503126 0.0709006278792446	0.102008
C	0.2741483149718470 0.6086767769921356 0.1242141997046315	0.061994
C	0.2092409962861779 0.6525978930410097 0.1210295125277968	-0.175184
C	0.2133976022618739 0.7323835014719214 0.1219425863053974	0.085110
C	0.3523366170329248 0.7215389604689986 0.1245340227389393	-0.122509
C	0.3462943877179852 0.6440098026710674 0.1270058124363186	-0.137120
C	0.4017832438980560 0.2013611464444981 0.1838425300974155	0.097388
C	0.4801256455885337 0.1937149203896396 0.1837568186297611	-0.181909
C	0.5238369732791209 0.2326352374078053 0.1257496924940216	0.109978
C	0.4842997619083924 0.2772130942205887 0.0689908373494006	-0.175372
C	0.4056911996153231 0.2804811295952436 0.0712888290971935	0.108678
C	0.6074754263099092 0.2268034123816837 0.1244740493395277	0.062866
C	0.6521177370242123 0.2912504069603147 0.1212641393960262	-0.172392
C	0.7322073821641421 0.2865116231252174 0.1220658940420011	0.083641
C	0.7210575267205206 0.1481099764000449 0.1246166959746159	-0.123096
C	0.6434092859826624 0.1545968326149652 0.1271642844414217	-0.136662
C	0.0981923758109922 0.2977455377701020 0.1835336243699567	0.100980
C	0.0198261248382492 0.3055771313555256 0.1831471054752215	-0.179328
C	0.9761734309915391 0.2671412699025695 0.1247808961044115	0.106012
C	0.0157642611526565 0.2225475893569345 0.0679405907041009	-0.180564
C	0.0944305285329901 0.2192393979445091 0.0701318227646864	0.097361
C	0.8925133467676771 0.2730895864054337 0.1237046498278898	0.064174
C	0.8478083431038124 0.2086968061098688 0.1207450021919041	-0.175094
C	0.7677245551083048 0.2134048897266435 0.1219663801480782	0.085176
C	0.7789008634115450 0.3518096020272671 0.1245751178052543	-0.123552
C	0.8565721419890763 0.3453040232498673 0.1267326877278723	-0.138125
C	0.7990122564897627 0.5932891955703614 0.3157987557904557	0.100858
C	0.8073169243138905 0.5153683473863148 0.3157285163913937	-0.184847
C	0.7684764808592083 0.4729603215753954 0.3745317057420516	0.110994
C	0.7232395691511496 0.5109079311183804 0.4316445899133241	-0.177372
C	0.7193487865287880 0.5891212228041500 0.4286096926574642	0.110315
C	0.7745171398510527 0.3903660170245647 0.3758833909901560	0.062600
C	0.7093775103244356 0.3472891730046467 0.3789690143949643	-0.175942
C	0.7134353235437696 0.2677202268988605 0.3780772543451769	0.085292
C	0.8526974630377526 0.2776680674556704 0.3755160594436492	-0.123399
C	0.8467588177763029 0.3551062537371814 0.3730633062772064	-0.134957
C	0.7019503403941904 0.9067596796139156 0.3161468862991795	0.102980
C	0.6933135796570282 0.9846841730729685 0.3164750547940803	-0.180508
C	0.7316658473918997 0.0270740962335528 0.3756186758261834	0.107968
C	0.7769937382018146 0.9891209611635789 0.4327630093127355	-0.182695
C	0.7810352263386899 0.9108600303578125 0.4297709164885477	0.100035
C	0.7255477959128928 0.1096930236651128 0.3767175573812431	0.062332
C	0.7906519899893983 0.1528192151649815 0.3795032142135231	-0.176486
C	0.7866293163395927 0.2323866166315330 0.3781687510891367	0.085231
C	0.6473670568212773 0.2224246676199155 0.3755723258377009	-0.122939
C	0.6533096373057119 0.1449677991360518 0.3735436164185675	-0.137672
C	0.5934606873228044 0.7013564951606264 0.3151119057933752	0.099400
C	0.5155502514711514 0.6928048506474743 0.3155010144177078	-0.183474
C	0.4730182649710911 0.7313483940992139 0.3745813268897931	0.107350
C	0.5108318486453044 0.7764354501337515 0.4318207287074926	-0.180723
C	0.5890731204454399 0.7803863883242459 0.4288367047332773	0.101380
C	0.3904150440381463 0.7253651703146512 0.3759678882767239	0.062744
C	0.3470981228530391 0.7905449747160751 0.3790682311591242	-0.176458
C	0.2675326212253202 0.7866200191949095 0.3780960181009467	0.086053
C	0.2779474897847266 0.6473656704999280 0.3755090858004277	-0.123608
C	0.3553727504952525 0.6531802757503011 0.3730817306726355	-0.137113
C	0.9066163970407545 0.7983501989471158 0.3160809370622752	0.109140
C	0.9844578511734147 0.8070593027042012 0.3163913818504111	-0.179903
C	0.0270006675854356 0.7685641894530607 0.3754311928806734	0.112530
C	0.9892535396733240 0.7230655692939164 0.4323694779304266	-0.181682
C	0.9110926616547108 0.7188273161817618 0.4289516774459478	0.103815
C	0.1095765541909278 0.7746564547912725 0.3766254919392676	0.061396
C	0.1529002082528432 0.7094937283262719 0.3794386494893104	-0.177161
C	0.2324448865625004 0.7134731338000826 0.3781537407147886	0.085468
C	0.2220270249336672 0.8527547272097497 0.3755963889878084	-0.123643
C	0.1445887125080741 0.8468509319939507 0.3735065574220103	-0.135190
C	0.7984090432171014 0.9021443677723857 0.8154880535186906	0.095063
C	0.8061864680764080 0.9804787202415149 0.8158538274287813	-0.181741
C	0.7676087394942580 0.0241812130596444 0.8742154906396982	0.106892
C	0.7231967816751357 0.9849477725373910 0.9311744364285879	-0.179281
C	0.7199113788890452 0.9063210191841494 0.9288521286703015	0.098958
C	0.7734143014826743 0.1076688567811697 0.8755788470992915	0.063243
C	0.7088610180357284 0.1523764450014518 0.8788201175742894	-0.173294
C	0.7134014276637949 0.2323912718777107 0.8779797885075461	0.083505
C	0.8519388002220936 0.2208519995898020 0.8753955825802426	-0.124004
C	0.8455950402152882 0.1432441039915122 0.8728581803160174	-0.136849
C	0.7017098495085263 0.5977221140054890 0.8166423231956786	0.105085
C	0.6939034307098707 0.5194524598735512 0.8167862961053582	-0.176556
C	0.7325030417535664 0.4757941459759037 0.8751034447672992	0.108769
C	0.7773481639339963 0.5149950630777086 0.9317781120704134	-0.178789
C	0.7808243464561998 0.5935457880895003 0.9291579629806224	0.099674
C	0.7265726921166832 0.3923359006636218 0.8762459596580751	0.062948
C	0.7911043432104808 0.3476176107867247 0.8792148757197329	-0.174655
C	0.7865059864129006 0.2676128052218000 0.8780464529254924	0.084098
C	0.6479481741826768 0.2791564439092422 0.8754854339229415	-0.122922
C	0.6543771472757345 0.3567847375599326 0.8732972145723359	-0.136033
C	0.5976121171454829 0.7977248649070718 0.8164872884401863	0.098557
C	0.5192602668562424 0.8056372541199972 0.8168373005199905	-0.178994
C	0.4757762600533219 0.7672562357335229 0.8752728403578265	0.105628
C	0.5152020844124748 0.7226127023470136 0.9321152039415037	-0.180823
C	0.5938551111726698 0.7191496082527056 0.9297608277878859	0.095223
C	0.3922790248823460 0.7732284830787581 0.8763507514312325	0.064265
C	0.3477475847001777 0.7087815036991600 0.8792663379846454	-0.174878
C	0.2677106182149562 0.7134069583057299 0.8780604491865694	0.084441
C	0.2787739191294328 0.8519197258138883 0.8754477967288823	-0.124609
C	0.3564309149654040 0.8454436945615703 0.8733124754850952	-0.137779
C	0.9022917337822027 0.7013951850575839 0.8161290820469134	0.097283
C	0.9806182622003289 0.6936728830706502 0.8161757881366686	-0.180701
C	0.0242053959282949 0.7325799661010030 0.8742432119821889	0.109955
C	0.9848717797096527 0.7772062293629768 0.9310513950902100	-0.176243
C	0.9062748082358195 0.7806294336011607 0.9285878038199445	0.108114
C	0.1076928866454484 0.7267022905797460 0.8755512216973799	0.062409
C	0.1521782039347007 0.7911980767306191 0.8787364168431684	-0.173399
C	0.2322149884676069 0.7865378586036194 0.8779532293226169	0.084259
C	0.2211677800070738 0.6480237025722939 0.8753963189679025	-0.124290
C	0.1435317241999958 0.6544845801073843 0.8728546209372015	-0.135416
C	0.2023101993492768 0.4018711301619838 0.6836175362928001	0.100632
C	0.1944322699151521 0.4802293522741791 0.6831449446283132	-0.179439
C	0.2328252551931216 0.5238442406640695 0.6247603216968738	0.105942
C	0.2774525539789765 0.4842225394335039 0.5679905738939319	-0.180457
C	0.2808149101635018 0.4055681538522034 0.5702463123250540	0.096949
C	0.2268831688898797 0.6074691272347843 0.6236621580271271	0.064420
C	0.2912757825536997 0.6521742074375069 0.6207168106280498	-0.175097
C	0.2865711772950486 0.7322662797816835 0.6219415343034523	0.084925
C	0.1481539707738941 0.7210790355722450 0.6245711127149969	-0.123487
C	0.1546771595415497 0.6434034208023308 0.6267131135476999	-0.138399
C	0.2986661633070843 0.0982377839487225 0.6837279835740334	0.097531
C	0.3062486180424343 0.0198946208648695 0.6837156447241295	-0.181959
C	0.2672842480666880 0.9761394124965403 0.6257524812205404	0.109439
C	0.2227303943073854 0.0156430454448281 0.5689422103578836	-0.174757
C	0.2195144550960522 0.0942551994865444 0.5711550550785683	0.107952
C	0.2731305440266135 0.8925277228645524 0.6244978609405195	0.063243
C	0.2087001851780839 0.8478725875175555 0.6212802197443770	-0.173188
C	0.2134564172671710 0.7677829147042328 0.6220573210887692	0.084115
C	0.3518683702830505 0.7789652292501964 0.6246356480720424	-0.123649
C	0.3453457829657293 0.8566164614848171 0.6272042038276666	-0.136196
C	0.4046531095179945 0.2982318470913444 0.6839091510516782	0.107914
C	0.4827115972569118 0.3065316147339712 0.6835471304076211	-0.176886
C	0.5257412078148623 0.2681621453108545 0.6247622868475116	0.110227
C	0.4873416058021657 0.2230226722264412 0.5679198987788516	-0.178866
C	0.4089820284886276 0.2191259390229230 0.5708296527320827	0.101267
C	0.6086737751462865 0.2741712036980458 0.6235431522518092	0.061467
C	0.6526132416150456 0.2093042272006756 0.6206470962609694	-0.175484
C	0.7323934504953017 0.2135038471136515 0.6218663555230235	0.084695
C	0.7215373887109537 0.3524742626035477 0.6244419036536816	-0.122247
C	0.6439867348471323 0.3463160737467206 0.6265806678908953	-0.135465
C	0.0955658962680014 0.2015533663253028 0.6848138994270612	0.097907
C	0.0174261249614024 0.1933591521539682 0.6843606098182399	-0.182440
C	0.9743281002218073 0.2317560866863263 0.6255599707561330	0.108602
C	0.0127504772082288 0.2764385993808067 0.5684279779694812	-0.180453
C	0.0912003235165123 0.2801010699492062 0.5709333600652926	0.101720
C	0.8913683478209309 0.2258612572960473 0.6241818407422748	0.062375
C	0.8474327152725751 0.2907458758417722 0.6210055946569071	-0.175002
C	0.7676337386792457 0.2866064411813301 0.6219179162858781	0.085340
C	0.7784852649921676 0.1476669196658733 0.6245336006695316	-0.122239
C	0.8560236975059060 0.1537308106679156 0.6270012009198316	-0.137568
H	0.1755134423535255 0.1305989259044302 0.2306156703303498	0.092335
H	0.1592351323043536 0.9898310552283541 0.2302545652209655	0.113691
H	0.3072831109093689 0.9814936461562586 0.0206604678755864	0.113363
H	0.3134010950155188 0.1233379699661664 0.0264104848381045	0.091751
H	0.3462623066223537 0.8743042871700435 0.1200826014094426	0.107898
H	0.0920589790793368 0.7513664598010722 0.1251369501699288	0.111192
H	0.1030402202058793 0.8913706513408783 0.1287273521998538	0.100397
H	0.3251449706590301 0.3693966985298048 0.2316828799745730	0.095981
H	0.3412001662992892 0.5100874845640045 0.2308731033605938	0.114114
H	0.1934045580637752 0.5182118918552652 0.0208862896511997	0.116418
H	0.1888629760600769 0.3770600432028987 0.0246162351041307	0.097283
H	0.1536815278518795 0.6256848771361844 0.1203515309977757	0.109097
H	0.4077519164454975 0.7487254019262010 0.1250428826770260	0.106577
H	0.3969483832432573 0.6086773310773420 0.1292152789511785	0.102358
H	0.3667389299725054 0.1737753972866063 0.2297580048587664	0.092541
H	0.5072750313282466 0.1589085737433102 0.2303447875551131	0.113112
H	0.5145966155511161 0.3075356429798016 0.0211975291648178	0.115582
H	0.3738575505369822 0.3117329692576610 0.0254184116949842	0.093551
H	0.6255636579508107 0.3471248598902777 0.1205819087965467	0.108712
H	0.7476792651518248 0.0923150894230211 0.1250485743204026	0.108221
H	0.6084002064688695 0.1038451179732708 0.1292829049607674	0.103150
H	0.1323629934333284 0.3236769545708200 0.2313522957848480	0.097936
H	0.9928568026195030 0.3398742692864909 0.2302852917817857	0.115554
H	0.9853150993726180 0.1918368612637728 0.0204902963326008	0.113772
H	0.1262307851425095 0.1873309962557324 0.0244496824358406	0.095035
H	0.8743870711148627 0.1528362262838425 0.1199969078678409	0.106608
H	0.7521393529444342 0.4075427826040012 0.1253092484957505	0.108678
H	0.8916719631244422 0.3959971618860580 0.1289811868869475	0.100250
H	0.8265310678723171 0.6291544379034084 0.2704647907022480	0.091188
H	0.8418016827645969 0.4873902283755981 0.2695357635379094	0.114462
H	0.6932971045238824 0.4797069804559389 0.4789687631724367	0.116188
H	0.6875152902202607 0.6216553663405059 0.4735577081424059	0.093038
H	0.6539637798137762 0.3748108439869031 0.3794484057283987	0.109245
H	0.9079974805119976 0.2501058927810321 0.3750323614246471	0.109312
H	0.8972327358860359 0.3904330898891654 0.3709070374374114	0.103133
H	0.6761045229195104 0.8716231769491163 0.2690028749972856	0.097281
H	0.6591538985717319 0.0124752942087407 0.2698614975897997	0.115678
H	0.8071955868833485 0.0204847548264211 0.4798150579080516	0.114189
H	0.8134971414976931 0.8783611714586181 0.4744932142156073	0.094677
H	0.8460562961451648 0.1252525314422514 0.3800366056940930	0.107114
H	0.5921446589128763 0.2501477413711320 0.3747513691626657	0.109321
H	0.6029035481889881 0.1095412289187006 0.3712298198399438	0.100489
H	0.6289871495105441 0.6745874600808707 0.2686967005777898	0.095744
H	0.4877472333104531 0.6583452891894216 0.2692490891505243	0.115219
H	0.4795485820509678 0.8064341189655716 0.4791686137493186	0.116637
H	0.6212352277788888 0.8118274774974032 0.4744880493960323	0.097574
H	0.3744448914799705 0.8459203904368515 0.3796843462728400	0.109048
H	0.2504438204735774 0.5921658551368899 0.3750071440465861	0.107661
H	0.3909176490414281 0.6026950205808387 0.3708741451617484	0.102388
H	0.8709517670618228 0.8247436862485282 0.2697975778804524	0.092633
H	0.0122165526633756 0.8412333865442573 0.2698986793271786	0.113823
H	0.0207501406583789 0.6929592727336528 0.4794709553485685	0.114024
H	0.8784774994670399 0.6859457347843169 0.4729048303016141	0.091189
H	0.1255168978082692 0.6541257168618757 0.3799368830226825	0.108140
H	0.2494219489085640 0.9080121532336364 0.3749113504657406	0.112450
H	0.1090023638966900 0.8973033271986921 0.3713549307011115	0.100581
H	0.8254151664947522 0.8674313433456663 0.7686054158000765	0.096291
H	0.8408220279657626 0.0075596001752988 0.7691867566412787	0.114305
H	0.6927630001198344 0.0154668728866169 0.9788664305475496	0.114790
H	0.6888544167769991 0.8749030427205748 0.9752825561948958	0.096591
H	0.6530618891382278 0.1259312569747810 0.8795859477460092	0.108140
H	0.9076178995454436 0.2474999443818193 0.8749277425447474	0.106860
H	0.8963246747282968 0.1079894167826210 0.8706700951459447	0.101744
H	0.6750844770705774 0.6326183135955971 0.7699479425134705	0.092364
H	0.6596027898614046 0.4923712621949372 0.7698222180005014	0.113564
H	0.8079827359693276 0.4842682862636982 0.9791634645012953	0.112965
H	0.8133800296419847 0.6255618329287184 0.9738322559820028	0.091403
H	0.8469072923546945 0.3740843262296870 0.8798729039682055	0.107478
H	0.5922267493966850 0.2526069518644198 0.8748294030773545	0.111512
H	0.6036715730158315 0.3920621808005102 0.8711585055157038	0.100545
H	0.6318922467252969 0.8238106697562179 0.7688751905879893	0.097586
H	0.4921753892971362 0.8400108157211243 0.7698483494756987	0.115060
H	0.4846649702349530 0.6920052883234270 0.9795473677406169	0.113972
H	0.6257496881357008 0.6870471359831667 0.9752058010369531	0.095519
H	0.3744093155597174 0.6529572040186287 0.8799754454007105	0.106524
H	0.2518710789461053 0.9075940485657589 0.8746659635754672	0.108711
H	0.3915381513114553 0.8961064274496239 0.8710235993652262	0.100601
H	0.8671653332032003 0.6736151991674820 0.7703670170135020	0.091043
H	0.0078495363584367 0.6588603847426685 0.7696443798628714	0.112982
H	0.0153152975201318 0.8075193789857616 0.9787701642940374	0.115062
H	0.8743941802253360 0.8121091540365282 0.9742468125158453	0.092147
H	0.1255540561860991 0.8470348159218779 0.8793799810520605	0.108939
H	0.2479165540078872 0.5922753161719070 0.8749319804710025	0.108508
H	0.1085091922516140 0.6037602376678517 0.8707035543133971	0.103349
H	0.1764147334595093 0.3677338444878081 0.7314734413736039	0.098119
H	0.1600514065497707 0.5072127495664922 0.7301977729728085	0.115691
H	0.3080867894421989 0.5146009632053250 0.5204678280353432	0.113675
H	0.3127442617170867 0.3737215349659415 0.5246080842885266	0.095046
H	0.3471419898666329 0.6256149885920629 0.6199789930037731	0.106708
H	0.0924162442410292 0.7478718160101797 0.6253457953933053	0.108464
H	0.1039638305272480 0.6083451085245859 0.6289833744387160	0.100508
H	0.3262977798277255 0.1333353327109896 0.7296122700564640	0.092682
H	0.3410069951129710 0.9928046821202233 0.7303801012409932	0.113228
H	0.1923384166583349 0.9853118960200242 0.5212002639619679	0.115300
H	0.1882835557095848 0.1260550439549361 0.5252229272267820	0.093651
H	0.1528100873174319 0.8743786210728610 0.6205954479314454	0.109038
H	0.4076855855470530 0.7523459148724738 0.6250751115350298	0.108259
H	0.3961054200585754 0.8916038964454842 0.6293423213012653	0.103219
H	0.3694310268367781 0.3244912042107678 0.7306300721772878	0.092545
H	0.5102029322152434 0.3407689910208861 0.7302585028192096	0.113897
H	0.5184872630454094 0.1927120561215217 0.5206573163723456	0.113281
H	0.3766482069772966 0.1865506031685762 0.5263689293873055	0.091522
H	0.6256966889344602 0.1537507839140265 0.6200842058549124	0.108071
H	0.7486680502484634 0.4079429460412706 0.6251538630710974	0.111154
H	0.6086349216634188 0.3969444384442384 0.6287623374859460	0.100538
H	0.1306682387476077 0.1748731215075666 0.7316716614032809	0.095854
H	0.9899652298734927 0.1588289531330760 0.7308199740446412	0.114549
H	0.9817833584626185 0.3065973237886880 0.5209155683701385	0.116272
H	0.1229498910506667 0.3111253028929407 0.5246562725150080	0.097527
H	0.8743217273338587 0.3463113958168151 0.6203394738494746	0.108864
H	0.7512557516092553 0.0922567590937281 0.6250670771927423	0.106518
H	0.8913373778410991 0.1030734600133912 0.6292330574733261	0.102554
F	0.2566762616558579 0.1361356690471119 0.3776208842631816	-0.632845
F	0.1468298622823312 0.3051941186708935 0.3786340253710976	-0.627927
F	0.3438043453558831 0.3174901054827575 0.3779144650482187	-0.630758
F	0.6829302371122505 0.6562386012373026 0.1215566526403547	-0.626511
F	0.6947792621729895 0.8523495406833456 0.1213036739304033	-0.623491
F	0.8631494971290484 0.7429857836434466 0.1224716204847061	-0.628391
F	0.6478394875467643 0.8050065570360989 0.6214231139199420	-0.624050
F	0.7570799763155379 0.6366330193286719 0.6222166484548739	-0.628452
F	0.8437925334143419 0.8171179134385921 0.6223824160963851	-0.627186
F	0.1824287393118700 0.1562636561830993 0.8781151823883786	-0.630765
F	0.3639395160553900 0.2432838091681704 0.8775542534540138	-0.633031
F	0.1947649154328219 0.3530760726164077 0.8785538380776940	-0.627804
F	0.2487137486960367 0.2492665772972816 0.2518311452351494	-0.542280
F	0.2489653687745505 0.2489080884969614 0.5044600765000055	-0.543759
F	0.7502019332687546 0.7514544155180465 0.2494310454907465	-0.541455
F	0.7512134981826686 0.7508309365103863 -0.0067535694442033	-0.542677
F	0.7485219233025487 0.7491921344979633 0.7503381037519304	-0.542341
F	0.7494191084584435 0.7487130233843824 0.4940798134590152	-0.542766
F	0.2508179710923632 0.2511590106950394 0.7518218370437361	-0.542752
F	0.2515363544213963 0.2509079963534886 0.0044766685277362	-0.543484
Fe	0.2500191365673539 0.2500190768201814 0.1281624272282945	0.812709
Fe	0.7499418707030721 0.7500265057092772 0.3716840120634810	0.782401
Fe	0.7499913472674178 0.7499977179163495 0.8717636880259095	0.819628
Fe	0.2500917262652987 0.2500052830782700 0.6281601615700154	0.812634
In	0.2494147347227279 0.2513513121850865 0.3781003395353078	1.571773
In	0.7484923271437705 0.7504124650168316 0.1211864262634605	1.571147
In	0.7497192400245917 0.7512272432221652 0.6224143884917642	1.571723
In	0.2486661977434374 0.2505646259573447 0.8781950298902701	1.571902
	  	
