#======================================================================

# CRYSTAL DATA

#----------------------------------------------------------------------

data_VESTA_phase_1


_pd_phase_name                         InFFIVE_6_Cu_i
_cell_length_a                         17.89277
_cell_length_b                         17.89298
_cell_length_c                         15.97239
_cell_angle_alpha                      90.00008
_cell_angle_beta                       89.99996
_cell_angle_gamma                      89.97363
_symmetry_space_group_name_H-M         P 1
_symmetry_Int_Tables_number            1

loop_
_symmetry_equiv_pos_as_xyz
   x, y, z

loop_
   _atom_site_label
   _atom_site_fract_x
   _atom_site_fract_y
   _atom_site_fract_z
   _atom_site_charge
N	0.2439669004235832 0.1281773063917411 0.1279693636457086	-0.265033
N	0.2560315758257431 0.3719048645426744 0.1287656419539475	-0.265841
N	0.3718343489835458 0.2440206120505821 0.1285629912980248	-0.263465
N	0.1281395225278579 0.2560159790101681 0.1275456739830193	-0.267216
N	0.7559791058893973 0.6281664174882385 0.3714385306335168	-0.263736
N	0.7439828844338596 0.8718602318084614 0.3724536824100456	-0.267452
N	0.6281011979429592 0.7439696016395509 0.3712335618360395	-0.265841
N	0.8718173246881395 0.7560333615170692 0.3720315448695342	-0.265166
N	0.7560305605220909 0.8718997463129936 0.8712329238976244	-0.266741
N	0.7439665733586328 0.6281815293374595 0.8720309264259674	-0.265945
N	0.6281397594389176 0.7560169356808881 0.8724545060253850	-0.268116
N	0.8718353791330247 0.7440203451625155 0.8714358672738506	-0.264479
N	0.2439842496282877 0.3718649102664110 0.6275452380208111	-0.267410
N	0.2559801405093182 0.1281614228187097 0.6285642856994740	-0.263712
N	0.3718161665638332 0.2560334880254245 0.6279699113877010	-0.264971
N	0.1281024229863477 0.2439698423390859 0.6287669964325725	-0.265692
C	0.2011302619646250 0.0922374495240088 0.1839338006980546	0.112200
C	0.1929598426199362 0.0150153638951291 0.1837796437464669	-0.178991
C	0.2323917372724349 0.9722743619449071 0.1248900621823520	0.112016
C	0.2779646063709707 0.0104929002748485 0.0676357310201639	-0.181581
C	0.2813729488199306 0.0880407852480872 0.0706770536505602	0.107572
C	0.2266138441540405 0.8900653270629970 0.1237449360217866	0.061444
C	0.2904863600993507 0.8463266969509319 0.1208967397707146	-0.174565
C	0.2861254953721786 0.7674221738534037 0.1220443993579247	0.085528
C	0.1490100670966247 0.7783668934368224 0.1245776765510784	-0.123644
C	0.1552796748703362 0.8549967702108680 0.1267164748836940	-0.135796
C	0.2989267689563586 0.4077749555833005 0.1848986538860801	0.100464
C	0.3070539223405246 0.4850397477578474 0.1845468214534907	-0.183453
C	0.2675437669732428 0.5277635299049802 0.1256177094017256	0.106643
C	0.2221428976501854 0.4895131240144636 0.0682951542063609	-0.179088
C	0.2187792075694694 0.4119240650043794 0.0711044588592397	0.102942
C	0.2734105412219321 0.6099533851226490 0.1241008857342513	0.061937
C	0.2095310007929312 0.6536717831913520 0.1210079713424081	-0.174995
C	0.2138569539413731 0.7325743348224322 0.1220369395379619	0.085873
C	0.3509529563034057 0.7216118493339860 0.1245865041987491	-0.124061
C	0.3447713573724028 0.6449838802487582 0.1268626546382484	-0.135726
C	0.4077592528278697 0.2009849741287309 0.1844121617931401	0.102280
C	0.4850044194315838 0.1929228406502868 0.1843962658911782	-0.182074
C	0.5277399143228519 0.2325385376824023 0.1255903081060774	0.109747
C	0.4895103303106931 0.2779904895459560 0.0682966934672786	-0.175639
C	0.4119464436509958 0.2813687991088728 0.0712221593732218	0.112059
C	0.6099417984027082 0.2266408034760942 0.1241192884979680	0.061755
C	0.6536372565344376 0.2904988624170959 0.1210385168706214	-0.174683
C	0.7325420679034482 0.2861018669118368 0.1220484317610389	0.085899
C	0.7216565686323029 0.1490195263472494 0.1246058946911320	-0.123996
C	0.6450285255385877 0.1552785101337913 0.1268632195189698	-0.134391
C	0.0922505301502227 0.2987663498709555 0.1837840190558056	0.105935
C	0.0149916721044772 0.3069314561480305 0.1835601254368457	-0.179799
C	0.9722486276388451 0.2675561044434904 0.1246532231142859	0.108682
C	0.0104876984164495 0.2220225876089579 0.0673181402698368	-0.184469
C	0.0880909989048426 0.2186132591163007 0.0700652346706922	0.103269
C	0.8900373044375758 0.2733152441171384 0.1236507506836844	0.061414
C	0.8463426646177886 0.2094487092001323 0.1208616388898647	-0.174225
C	0.7674345961381472 0.2138252070777776 0.1220681775123914	0.085037
C	0.7783060870614831 0.3509293239527557 0.1245876183670368	-0.123463
C	0.8549371250864458 0.3446595030497229 0.1267018859749783	-0.136738
C	0.7990160631930517 0.5922423258902729 0.3155880646195860	0.102288
C	0.8070783605320599 0.5149959365018886 0.3156029266430695	-0.181921
C	0.7674624959557852 0.4722583843272454 0.3744107649318554	0.109804
C	0.7220091265552215 0.5104888005448237 0.4317066751315288	-0.175646
C	0.7186305920496143 0.5880537080209406 0.4287800017676681	0.112172
C	0.7733599875632911 0.3900566838761331 0.3758807609547426	0.061776
C	0.7095016151374863 0.3463610901754482 0.3789596967596472	-0.174683
C	0.7138985123420303 0.2674580117592791 0.3779500290132984	0.085958
C	0.8509814373732852 0.2783434557510155 0.3753925101369402	-0.123877
C	0.8447224791588578 0.3549698856877916 0.3731358958394744	-0.134343
C	0.7012333053783020 0.9077495816249421 0.3162133687182144	0.105911
C	0.6930682500700921 0.9850098427062066 0.3164374303479456	-0.179688
C	0.7324433815399556 0.0277535445795652 0.3753466689458183	0.108784
C	0.7779789850899015 0.9895126468579495 0.4326827698008002	-0.184405
C	0.7813868476776370 0.9119082992856877 0.4299347034416802	0.103274
C	0.7266856928246204 0.1099647445251716 0.3763484485769469	0.061439
C	0.7905520766032279 0.1536601953651190 0.3791369512420757	-0.174186
C	0.7861757306730069 0.2325666473503170 0.3779303804764411	0.085099
C	0.6490713767781418 0.2216948555249951 0.3754102958321234	-0.123410
C	0.6553412427688357 0.1450654321486843 0.3732962802873305	-0.136558
C	0.5922287962172387 0.7010729525886576 0.3150984286371759	0.100211
C	0.5149603548877061 0.6929453454121561 0.3154500630897959	-0.183497
C	0.4722352696741638 0.7324563672132045 0.3743810097587265	0.106799
C	0.5104858262810482 0.7778587248243010 0.4317062664988502	-0.178992
C	0.5880784406956570 0.7812222471682759 0.4288964967034851	0.103055
C	0.3900440433356041 0.7265892312461706 0.3758980010978230	0.061812
C	0.3463265694339146 0.7904690982807296 0.3789902034820752	-0.174934
C	0.2674246926432252 0.7861432827782165 0.3779602550435671	0.085969
C	0.2783872617040601 0.6490462481863855 0.3754102623712616	-0.124005
C	0.3550157752112194 0.6552280837770076 0.3731352431920713	-0.135544
C	0.9077601191153070 0.7988710284583483 0.3160651195625829	0.112256
C	0.9849852071456051 0.8070419421721536 0.3162191417139693	-0.178953
C	0.0277276151786642 0.7676090650107473 0.3751086252672821	0.112152
C	0.9895088980550959 0.7220344017667941 0.4323650514881109	-0.181461
C	0.9119578963889663 0.7186267003350141 0.4293241784131534	0.107512
C	0.1099377502128537 0.7733868888804682 0.3762526657821962	0.061388
C	0.1536748583029346 0.7095141207747343 0.3791002037806779	-0.174472
C	0.2325788918126302 0.7138746161116245 0.3779528580229615	0.085605
C	0.2216342503799663 0.8509910403490306 0.3754189924604068	-0.123543
C	0.1450043560172974 0.8447208955133312 0.3732805387939535	-0.135717
C	0.7989261826869689 0.9077703998315058 0.8151007630130446	0.100555
C	0.8070538065025793 0.9850381153607360 0.8154522604582556	-0.183397
C	0.7675438333893297 0.0277638495593973 0.8743807414618180	0.106821
C	0.7221422150404865 0.9895119571465042 0.9317034715483690	-0.178940
C	0.7187788903762232 0.9119200399176359 0.9288936149637795	0.103141
C	0.7734111884571148 0.1099536444704430 0.8758984851959936	0.061722
C	0.7095317560141124 0.1536718379615469 0.8789908491134781	-0.175116
C	0.7138577500834062 0.2325740094597280 0.8779612964471405	0.085967
C	0.8509527247815478 0.2216117749302026 0.8754114377934827	-0.124143
C	0.8447713484941466 0.1449834848711335 0.8731362721735939	-0.135642
C	0.7011303932928939 0.5922406743021116 0.8160667437408626	0.112329
C	0.6929596503778196 0.5150161009938906 0.8162210131606175	-0.178887
C	0.7323913903402994 0.4722731978038537 0.8751087822397261	0.112254
C	0.7779643801300975 0.5104931456644256 0.9323628211709905	-0.181305
C	0.7813723643711984 0.5880431812612618 0.9293219244432142	0.107585
C	0.7266131154858098 0.3900649108848069 0.8762532765479686	0.061207
C	0.7904852767970538 0.3463268200824644 0.8791007942419139	-0.174744
C	0.7861245663422515 0.2674224397466530 0.8779535452225387	0.085670
C	0.6490102358154267 0.2783667689931292 0.8754202286405052	-0.123672
C	0.6552799641612992 0.3549967173621958 0.8732816735754181	-0.135729
C	0.5922503806066454 0.7987677972835312 0.8162139549193069	0.106133
C	0.5149901095120463 0.8069323665450765 0.8164380240016161	-0.179626
C	0.4722471136382252 0.7675567306204153 0.8753476462381040	0.108932
C	0.5104868494213815 0.7220208236593637 0.9326840766946297	-0.184291
C	0.5880911595904710 0.7186126618753361 0.9299357691702677	0.103460
C	0.3900345004004293 0.7733151671262789 0.8763502719749734	0.061247
C	0.3463408429427073 0.7094477012659007 0.8791386312922137	-0.174330
C	0.2674335309590105 0.7138240207657858 0.8779326626160753	0.085004
C	0.2783054506357205 0.8509306550890903 0.8754121005423599	-0.123493
C	0.3549357849638568 0.8446610669414600 0.8732981223516615	-0.136769
C	0.9077606242585912 0.7009833970014010 0.8155854880943432	0.102488
C	0.9850065792408550 0.6929206918056129 0.8156012672155667	-0.181828
C	0.0277418907959965 0.7325386887372036 0.8744104278413801	0.109927
C	0.9895121095242192 0.7779915569017467 0.9317047241993963	-0.175500
C	0.9119475046171102 0.7813698076662225 0.9287786178120312	0.112247
C	0.1099451886263947 0.7266401079332084 0.8758803941614003	0.061543
C	0.1536392147103526 0.7905000660738274 0.8789605052897379	-0.174767
C	0.2325432343450762 0.7861023027078712 0.8779520006342921	0.085998
C	0.2216576443741381 0.6490173585131251 0.8753944330051781	-0.123892
C	0.1450303113382216 0.6552761346865573 0.8731366323189181	-0.134334
C	0.2012338468077907 0.4077526472458975 0.6837845515917298	0.105920
C	0.1930692832850732 0.4850096071350405 0.6835605650592151	-0.179761
C	0.2324443908524543 0.5277519675637556 0.6246537677777926	0.108695
C	0.2779775759775705 0.4895139419478108 0.5673180286489297	-0.184433
C	0.2813868560816208 0.4119125743992457 0.5700642468359274	0.103298
C	0.2266854058752320 0.6099617321475475 0.6236508912847079	0.061356
C	0.2905522068619327 0.6536571174148637 0.6208619316440961	-0.174153
C	0.2861760166163630 0.7325651879115898 0.6220681652258967	0.084967
C	0.1490707398124766 0.7216936630735395 0.6245884391609666	-0.123449
C	0.1553404122124472 0.6450629933414485 0.6267024925417378	-0.136752
C	0.2990159915106875 0.0922372698741711 0.6844139483127477	0.102393
C	0.3070771691103084 0.0149939229460842 0.6843974834127238	-0.182095
C	0.2674622024793584 0.9722594738462706 0.6255910410688311	0.109870
C	0.2220107240751196 0.0104883704388714 0.5682964708174781	-0.175654
C	0.2186319806924225 0.0880502421325107 0.5712223724778119	0.111937
C	0.2733598068495455 0.8900591503842807 0.6241197926602374	0.061705
C	0.2095012878857273 0.8463632788340736 0.6210392353641015	-0.174672
C	0.2138981740294899 0.7674585545548611 0.6220485686481486	0.085937
C	0.3509818754786643 0.7783440276394300 0.6246067307356700	-0.124105
C	0.3447230724509889 0.8549716877367293 0.6268642110696796	-0.134240
C	0.4077575896661421 0.2988685243017483 0.6839330239524533	0.112228
C	0.4849825215131490 0.3070400315106364 0.6837791311296992	-0.178973
C	0.5277260573001920 0.2676085926901666 0.6248911433732723	0.112070
C	0.4895057767702442 0.2220359926625232 0.5676370968784150	-0.181349
C	0.4119549873070729 0.2186285424618224 0.5706791409015523	0.107416
C	0.6099350219652804 0.2733865030109090 0.6237464143963132	0.061308
C	0.6536725691275992 0.2095136974825887 0.6208986422888612	-0.174524
C	0.7325778991553684 0.2138751142829960 0.6220457418451801	0.085556
C	0.7216333947263691 0.3509908036758420 0.6245794160115467	-0.123574
C	0.6450025306855562 0.3447206904160613 0.6267183227172697	-0.135716
C	0.0922309048388365 0.2010751894297959 0.6848987485113485	0.100303
C	0.0149627095283266 0.1929468603306486 0.6845476473928358	-0.183540
C	0.9722368044016263 0.2324566326857458 0.6256190965866196	0.106754
C	0.0104892875038302 0.2778578565643670 0.5682965277601990	-0.179129
C	0.0880818639555654 0.2812211291108736 0.5711066105915640	0.103042
C	0.8900460839247782 0.2265900165454438 0.6241010593121701	0.061772
C	0.8463287021266701 0.2904699503334328 0.6210087704465326	-0.174859
C	0.7674255857977501 0.2861431613274274 0.6220381220653545	0.085761
C	0.7783880176863087 0.1490470136937665 0.6245881934745907	-0.124119
C	0.8550173813700576 0.1552284179963525 0.6268634507658407	-0.135673
H	0.1738158641549822 0.1270389947960513 0.2308076945763861	0.089802
H	0.1581776836583827 0.9879547013243346 0.2308633337424840	0.112463
H	0.3088099362285790 0.9797847353500601 0.0198728777959497	0.112126
H	0.3145424156440854 0.1199807736901995 0.0259202901188757	0.088621
H	0.3454957342529968 0.8727801450734979 0.1203047701345260	0.107119
H	0.0940110969774717 0.7519216151641059 0.1252732756887358	0.110513
H	0.1053902040271329 0.8900885318160507 0.1287847933930303	0.099042
H	0.3268116589554717 0.3729909533659571 0.2316455971614396	0.094661
H	0.3424719324336270 0.5120799624962565 0.2310627821030741	0.113299
H	0.1915151410808102 0.5199116426742030 0.0201159866662864	0.114332
H	0.1870943462201633 0.3804265260866279 0.0245948995257460	0.096906
H	0.1545405983088585 0.6271741269532856 0.1203118235988034	0.108476
H	0.4059044259894821 0.7481344568754346 0.1252384428483847	0.105891
H	0.3946816358017182 0.6098992773288940 0.1289180040169389	0.099893
H	0.3726201960314389 0.1725574269638397 0.2302692979077930	0.089519
H	0.5121746267549169 0.1576172346612018 0.2309500239385838	0.111580
H	0.5199968898839934 0.3083896489863397 0.0200379764265686	0.113838
H	0.3802408432340726 0.3134635066088816 0.0253927182643248	0.091086
H	0.6271344106370824 0.3455083493505057 0.1203810557210083	0.108908
H	0.7481121458099490 0.0940099925810188 0.1252069306363421	0.107636
H	0.6100250276583320 0.1053549868258906 0.1288246532862829	0.100549
H	0.1266545302889576 0.3255131447616256 0.2315390069001676	0.095938
H	0.9880908890334169 0.3417833554873772 0.2307271957867960	0.113642
H	0.9798049693254165 0.1909343540272048 0.0197414141779809	0.112993
H	0.1198691496013377 0.1856494426003097 0.0247895064182297	0.093047
H	0.8728467601262448 0.1544360060865418 0.1202221571325058	0.106210
H	0.7517492912446440 0.4058932831708095 0.1253068556361054	0.107989
H	0.8900651246188702 0.3945006137085296 0.1288610268524079	0.098749
H	0.8274454950322773 0.6273807911002195 0.2697287756369793	0.089460
H	0.8423857890739136 0.4878232287260969 0.2690482472585222	0.111685
H	0.6916088634446385 0.4799999070791872 0.4799668340737056	0.113992
H	0.6865333780976995 0.6197580746038800 0.4746114749020917	0.091012
H	0.6544934609234797 0.3728660177367885 0.3796171396330750	0.109024
H	0.9059896737728602 0.2518876164335906 0.3747923982448210	0.107815
H	0.8946442966139658 0.3899744591088122 0.3711748366338342	0.100688
H	0.6744859313005621 0.8733456740482315 0.2684562530217900	0.095919
H	0.6582151682978536 0.0119123881186187 0.2692679015734422	0.113766
H	0.8090673234234275 0.0201984884211618 0.4802600536174460	0.113068
H	0.8143520711313587 0.8801309263315941 0.4752126934494200	0.092973
H	0.8455634738969228 0.1271538902049813 0.3797778217289681	0.106288
H	0.5941086527077026 0.2482520182326197 0.3746919462136079	0.108166
H	0.6055014780919834 0.1099363903417586 0.3711386689337460	0.098814
H	0.6270122485828088 0.6731863550516298 0.2683481346869109	0.094738
H	0.4879189495472175 0.6575263486046372 0.2689319267273956	0.113505
H	0.4800858826705827 0.8084876250173597 0.4798870518954641	0.114412
H	0.6195743905741896 0.8129096384650594 0.4754098128626239	0.096806
H	0.3728249690600509 0.8454580984916666 0.3796873697283268	0.108600
H	0.2518648341609295 0.5940957246313137 0.3747598119164804	0.106097
H	0.3900998125646745 0.6053186925594488 0.3710800369144159	0.100005
H	0.8729591949344808 0.8261868695747493 0.2691887600528454	0.089748
H	0.0120464902586371 0.8418247840357049 0.2691340168544670	0.112580
H	0.0202179830333420 0.6911882887225334 0.4801292092009449	0.112241
H	0.8800190508474327 0.6854556014677032 0.4740842593987720	0.088553
H	0.1272205119154766 0.6545062328867335 0.3796932879700529	0.107198
H	0.2480795491903241 0.9059889438672117 0.3747252615078006	0.110677
H	0.1099129989469283 0.8946095266505083 0.3712131848990774	0.099153
H	0.8268141174960314 0.8729854125178040 0.7683515393805906	0.094633
H	0.8424739470349504 0.0120785231236001 0.7689327329046056	0.113568
H	0.6915127630272605 0.0199112376992267 0.9798860028410690	0.114594
H	0.6870911756008088 0.8804233376200536 0.9754078532238205	0.096836
H	0.6545423739220696 0.1271747521791545 0.8796875502500431	0.108533
H	0.9059035970241683 0.2481350382583941 0.8747600709133202	0.106091
H	0.8946818083320665 0.1098997327179137 0.8710801302855935	0.099932
H	0.6738149684756899 0.6270429802001167 0.7691906778606684	0.089708
H	0.6581763890919986 0.4879564010252568 0.7691342391691738	0.112745
H	0.8088115007135884 0.4797845666826308 0.9801273237240093	0.112364
H	0.8145436338570160 0.6199834013278634 0.9740813615144088	0.088556
H	0.8454939604590503 0.3727797598970879 0.8796935195667571	0.107136
H	0.5940116694287296 0.2519209151706207 0.8747257370570050	0.110672
H	0.6053904873571329 0.3900881316900117 0.8712133594054278	0.099069
H	0.6266539674372124 0.8255154477171059 0.7684572250852248	0.095907
H	0.4880870144293536 0.8417849861224237 0.7692697594558624	0.113932
H	0.4798007584982813 0.6909328168296855 0.9802605423906869	0.113250
H	0.6198680058582902 0.6856474569393324 0.9752137391028771	0.093003
H	0.3728470390305481 0.6544356208959530 0.8797781040478200	0.106237
H	0.2517476310796333 0.9058940025596199 0.8746924360424947	0.108159
H	0.3900653006623507 0.8945009410918732 0.8711393853877996	0.098796
H	0.8726220892145375 0.6725549567268390 0.7697265110957784	0.089495
H	0.0121795166201366 0.6576140935193507 0.7690472377935096	0.111904
H	0.0200012272917188 0.8083912560803269 0.9799645381692494	0.114191
H	0.8802425444534434 0.8134667417320427 0.9746093882729414	0.091044
H	0.1271343044015855 0.8455086576156956 0.8796169614028639	0.108919
H	0.2481140685207368 0.5940080742846685 0.8747934120869787	0.107768
H	0.1100249536076464 0.6053538680108675 0.8711752874567568	0.100591
H	0.1744880743769139 0.3733468716712144 0.7315369784126895	0.095938
H	0.1582175968521788 0.5119098175497259 0.7307265853581131	0.113646
H	0.3090656626830905 0.5201965814933128 0.5197427080881563	0.112950
H	0.3143494817392301 0.3801331372313114 0.5247902278042911	0.093023
H	0.3455652502440372 0.6271524522989187 0.6202224047459538	0.106171
H	0.0941061872617865 0.7482520325339633 0.6253071696064048	0.107972
H	0.1054995519041599 0.6099345456372045 0.6288610084495476	0.098740
H	0.3274424178059145 0.1273780384791770 0.7302684044157502	0.089477
H	0.3423833608916629 0.9878243163047525 0.7309488982554729	0.111575
H	0.1916115388624248 0.9800024704911905 0.5200391117227977	0.113867
H	0.1865376239554405 0.1197571159562690 0.5253952215410014	0.091125
H	0.1544913834845886 0.8728664802397152 0.6203818724852370	0.108877
H	0.4059919711881260 0.7518868567243062 0.6252072386429440	0.107637
H	0.3946461221587387 0.8899758872144901 0.6288248295915165	0.100521
H	0.3729583674064543 0.3261846474430786 0.7308099803248627	0.089766
H	0.5120434701162335 0.3418232029297106 0.7308643099639572	0.112443
H	0.5202150567743886 0.1911896431168284 0.5198734584927271	0.112039
H	0.3800187600225719 0.1854571986434133 0.5259187636936685	0.088578
H	0.6272197395883647 0.1545042322149064 0.6203064239020866	0.107082
H	0.7480786315792155 0.4059898846734164 0.6252740645283544	0.110508
H	0.6099118023634481 0.3946109368965524 0.6287858796837351	0.099002
H	0.1270114263102535 0.1731867269165360 0.7316491071663609	0.094744
H	0.9879211661729947 0.1575271094148291 0.7310662324389087	0.113281
H	0.9800889247666935 0.3084868357745756 0.5201147672996722	0.114327
H	0.1195751541437010 0.3129089329561312 0.5245921995846031	0.096851
H	0.8728259599727104 0.3454600858176018 0.6203125128870020	0.108467
H	0.7518656474557979 0.0940954487141633 0.6252391932611181	0.105921
H	0.8901008091735175 0.1053174547789208 0.6289189878106157	0.099908
F	0.2568617491928404 0.1382598614749986 0.3778037960161681	-0.621572
F	0.1496118914823363 0.3030482251838338 0.3785661616319334	-0.616912
F	0.3438952128341722 0.3146354209731224 0.3784156478781757	-0.620267
F	0.6853581320784389 0.6561064113552842 0.1216088722556447	-0.619817
F	0.6969513724119160 0.8503865293458857 0.1214317751306583	-0.616512
F	0.8617469726156567 0.7431333482074745 0.1221923395096092	-0.621191
F	0.6496108509729681 0.8030490673240310 0.6214338199948747	-0.616507
F	0.7568496791534450 0.6382525134663031 0.6221783491869067	-0.621151
F	0.8439171231301456 0.8145944317247900 0.6215830766872597	-0.619828
F	0.1853469148739045 0.1561004826497906 0.8784236047694978	-0.620300
F	0.3617266605272756 0.2431279135128385 0.8778238118882199	-0.621514
F	0.1969515098581021 0.3503889258201035 0.8785730217337406	-0.616848
F	0.2491901930825360 0.2498054538022420 0.2469899346092958	-0.561451
F	0.2494103466187543 0.2493676459086843 0.5098664205305359	-0.561722
F	0.7502040824563458 0.7508217025361086 0.2530107432262457	-0.561853
F	0.7506281825768292 0.7505824393775535 -0.0098699906926183	-0.561618
F	0.7491835984165599 0.7497959734217715 0.7530165607112471	-0.561208
F	0.7494069531934597 0.7493770729903433 0.4901302383009796	-0.562133
F	0.2501972443445244 0.2508135947738946 0.7469936522903700	-0.561409
F	0.2506207928546100 0.2505900817009453 0.0098681739949044	-0.561695
Cu	0.2498083836962262 0.2503522681443190 0.1284829056683361	0.843252
Cu	0.7496487950042309 0.7501919191379146 0.3715206010141130	0.843346
Cu	0.7498090128088276 0.7503500045196132 0.8715202572247844	0.848411
Cu	0.2496489457805761 0.2501901243996615 0.6284825863953002	0.843458
In	0.2503488305207500 0.2511560803147536 0.3783640897069646	1.600726
In	0.7488430330321424 0.7496501093509716 0.1216347776217295	1.601254
In	0.7503489216476410 0.7511541201916101 0.6216403128419716	1.601284
In	0.2488368801513358 0.2496562497102471 0.8783650790614046	1.600623
	  	
