#======================================================================

# CRYSTAL DATA

#----------------------------------------------------------------------

data_VESTA_phase_1


_pd_phase_name                         InFFIVE_18_Zn
_cell_length_a                         14.06567
_cell_length_b                         14.02742
_cell_length_c                         8.22352
_cell_angle_alpha                      90.26122
_cell_angle_beta                       96.03692
_cell_angle_gamma                      90.17234
_symmetry_space_group_name_H-M         P 1
_symmetry_Int_Tables_number            1

loop_
_symmetry_equiv_pos_as_xyz
   x, y, z

loop_
   _atom_site_label
   _atom_site_fract_x
   _atom_site_fract_y
   _atom_site_fract_z
   _atom_site_charge
F	0.4982411019276480 0.3317639066019684 0.4812449494848494	-0.595241
F	0.5240736540502761 0.4864204235561096 0.7503781637244316	-0.551508
F	0.3633673900898427 0.5282413382120863 0.5188048908090260	-0.564136
F	0.9984959382919617 0.8319068138219924 0.4807854289995036	-0.591601
F	0.0239678388678427 0.9863712228576037 0.7507065735040821	-0.551634
F	0.8633498218473821 0.0280827852062988 0.5189674806618507	-0.563888
F	0.6320725916184792 0.5333886251101808 0.4829563092102571	-0.565738
F	0.4733659798822290 0.4973198897473441 0.2475670156257554	-0.548029
F	0.1320699618111466 0.0334209430656267 0.4832143845278086	-0.565464
F	0.9735169333789820 0.9978578694004346 0.2475319517271663	-0.548098
C	0.6783456782880155 0.1634923560267770 0.6657173257932231	-0.422163
C	0.7516895284868441 0.1560660279377440 0.8092657691690062	0.202799
C	0.7571732611911998 0.1985691838539851 0.9643853536350911	-0.152746
C	0.6878731648450948 0.2624563233741450 0.0274818292519558	-0.143871
C	0.6734794051023607 0.3603977938736591 0.9911940129704632	0.210847
C	0.7288277539694668 0.4212871542928184 0.8864188528219675	-0.427403
C	0.8856126688047240 0.1940207204571598 0.2158369793806545	-0.428867
C	0.8449241511119282 0.1673740571084820 0.0470462533504594	0.215669
C	0.6221907288221262 0.2399090847376066 0.1382880647341496	0.206762
C	0.6020636512546571 0.1483699604504478 0.2193324142387324	-0.428815
C	0.1782178664356480 0.6635818788604524 0.6657122963940365	-0.422004
C	0.2516962195765977 0.6561371538173798 0.8091269448835964	0.202917
C	0.2571822507891675 0.6986125427004334 0.9642694041595187	-0.152033
C	0.1878251137378014 0.7624110503533782 0.0273390489313300	-0.144434
C	0.1734700171075360 0.8604178150644015 0.9913089749585238	0.211704
C	0.2288963239804993 0.9213926210580784 0.8867213955107980	-0.428024
C	0.3857327266010367 0.6941640985536449 0.2156173158377559	-0.428718
C	0.3449611374146790 0.6674620303380081 0.0468885169854407	0.215415
C	0.1221900997735254 0.7398605045879587 0.1382554425074123	0.206904
C	0.1020647893439559 0.6483477670623089 0.2192449999428699	-0.428862
C	0.3221467139529653 0.1620188303874455 0.3320056992045284	-0.424773
C	0.2480285709242073 0.1550324193980073 0.1893019727028508	0.203619
C	0.2431082896211434 0.1966718298315189 0.0341220521546169	-0.152165
C	0.3128679970252339 0.2610469577095008 0.9731213601808641	-0.143661
C	0.3273378945530797 0.3585795148661650 0.0152947326864325	0.217341
C	0.2707513685672466 0.4181048702302863 0.1205809175835121	-0.429217
C	0.1137565163092589 0.1932572132250586 0.7839364463199142	-0.432768
C	0.1546266570217346 0.1663701008116276 0.9518765354766686	0.217208
C	0.3793012355708854 0.2402262108032395 0.8625764217434749	0.208954
C	0.3998212757446327 0.1504429760350601 0.7755985095601056	-0.427174
C	0.8221104999561439 0.6619148140890854 0.3318746031504658	-0.424395
C	0.7479757061021681 0.6549715910208184 0.1891729515466832	0.204137
C	0.7430807038164944 0.6966443423001940 0.0340216041654826	-0.152541
C	0.8129429121341931 0.7609586674180397 0.9731675274119314	-0.143133
C	0.8274459911731441 0.8584805589691583 0.0154184170184529	0.216617
C	0.7708348106812486 0.9180626503388841 0.1206508368484002	-0.429046
C	0.6138262184136543 0.6933607474823801 0.7837495454801287	-0.433438
C	0.6545805986447231 0.6664139514622457 0.9517310394496364	0.217751
C	0.8793681726152008 0.7401985582208056 0.8625466317043410	0.208861
C	0.8999081129111618 0.6504771997737911 0.7755084601228865	-0.426624
H	0.7111954642199148 0.1823082070761039 0.5546661919035664	0.147093
H	0.6259385932635387 0.2185762373596962 0.6870649329814308	0.137580
H	0.6399432058353423 0.0955882371436511 0.6409835819094204	0.134944
H	0.6825440259854828 0.4548319855234854 0.7874422251445721	0.141971
H	0.7824457645643584 0.3778646990890716 0.8330923932723394	0.133265
H	0.7658645215765467 0.4789202916806340 0.9591022741095659	0.132151
H	0.8511376558160639 0.0650015089978292 0.7063791017077471	0.275136
H	0.8642653971870575 0.1430567120185765 0.3067076380207500	0.134769
H	0.8591570257047434 0.2647132166635725 0.2471189568409592	0.132347
H	0.9639698975704312 0.1958385754964010 0.2258606402835455	0.138288
H	0.5709129803043227 0.1612457534178976 0.3342365150805928	0.145206
H	0.6679211984541787 0.1069137511164250 0.2453331729972515	0.152087
H	0.5511553665201329 0.1043798480867062 0.1400705441193929	0.132751
H	0.5260049426463863 0.3318026931848296 0.2450862848335773	0.265929
H	0.2110032043186609 0.6823693015256769 0.5546015615099387	0.146981
H	0.1258381466965712 0.7187498315323287 0.6869868750250089	0.137006
H	0.1397654519806914 0.5957016618560456 0.6409412346879705	0.135091
H	0.1826937079734783 0.9550011581655002 0.7876205409991318	0.142123
H	0.2825233175871576 0.8779847314040444 0.8334170843855032	0.133296
H	0.2659787669654672 0.9789332016951376 0.9596386679708103	0.132197
H	0.3510281689124966 0.5651460594297905 0.7060056872002630	0.275259
H	0.3643700571200459 0.6432227949343025 0.3065519665479626	0.134676
H	0.3593802424145773 0.7649596612145729 0.2467695218894103	0.132462
H	0.4640835625697489 0.6957941494124971 0.2253478866594498	0.138351
H	0.0708272488679738 0.6611429019417627 0.3340529419056679	0.145066
H	0.1679024063171166 0.6069193565966656 0.2452205317196016	0.151883
H	0.0512756493960120 0.6043148669186874 0.1399195350248391	0.132844
H	0.0262154745600068 0.8317522596809437 0.2456410970820069	0.265598
H	0.2890530779460959 0.1723757498536503 0.4458611739510201	0.146555
H	0.3707203432373473 0.2219941524724437 0.3179957271181769	0.142447
H	0.3651469586555756 0.0964996471647677 0.3457771579326962	0.134526
H	0.3168106502398512 0.4595448509421067 0.2107734777901623	0.143011
H	0.2234107895397426 0.3725904167720648 0.1846230212468879	0.135634
H	0.2261994367861239 0.4689549191782298 0.0450839501774215	0.132971
H	0.1463070681154298 0.0670868961888906 0.2928835457474008	0.274686
H	0.1281626540977746 0.1388187118538989 0.6931014555519415	0.136789
H	0.1465637921652060 0.2604159845751915 0.7493679726583015	0.133767
H	0.0360120723147577 0.2027237638768715 0.7778755917126041	0.138253
H	0.4296466403844049 0.1660422690605583 0.6605303715262488	0.145267
H	0.3342844071438555 0.1081643301927571 0.7484149971995826	0.153096
H	0.4518150588282284 0.1061004104726984 0.8505544959471080	0.133488
H	0.4795176467376617 0.3352429984627798 0.7702671759400508	0.266235
H	0.7890105891208472 0.6723174646353799 0.4456791310903790	0.146146
H	0.8707298248054426 0.7218683539368344 0.3179874464997150	0.142138
H	0.8650899263932047 0.5963848673050147 0.3458540083621547	0.134493
H	0.8168934214358148 0.9594344247027488 0.2109914791589836	0.142835
H	0.7234243191400412 0.8725521935230087 0.1845891056634282	0.135536
H	0.7263008551649465 0.9689356745364140 0.0451220929010272	0.133005
H	0.6463142486747013 0.5670566924617395 0.2926985017581661	0.274530
H	0.6281104630750609 0.6388041373155567 0.6929686700689799	0.137298
H	0.6468274796704927 0.7604657129163848 0.7492660483082569	0.133676
H	0.5360963487879858 0.7029960086971687 0.7778163778513896	0.138537
H	0.9296754877960438 0.6660532891170523 0.6604259488279942	0.144693
H	0.8344370021376819 0.6081390247174422 0.7484953137456060	0.153037
H	0.9518998406458615 0.6061304047198984 0.8504101099400557	0.133350
H	0.9797648882226977 0.8352661557006826 0.7705933029512042	0.266005
N	0.8313221495433787 0.1029305618021049 0.8063351500371468	-0.154230
N	0.6026364360455405 0.3948342180972502 0.0725449709316215	-0.254547
N	0.8891367114234358 0.1089491589774450 0.9487845588568827	-0.241990
N	0.5732000739896637 0.3207503463311340 0.1604122008698793	-0.147179
N	0.3313634237059667 0.6030361174715524 0.8061256450914598	-0.155128
N	0.1027152880994246 0.8948094598823151 0.0728963692887766	-0.255665
N	0.3891821085548102 0.6090287157551606 0.9486347407769847	-0.241674
N	0.0731803123239016 0.8206594306204685 0.1605289769451435	-0.147032
N	0.1673560124515903 0.1031481190328627 0.1925771533147265	-0.150556
N	0.3988377093233104 0.3943445907472286 0.9373888899152506	-0.244687
N	0.1095158868879076 0.1090151738252108 0.0501872134933953	-0.241924
N	0.4283584959753285 0.3218698147080346 0.8459391817008828	-0.150538
N	0.6672623283347046 0.6031616145349066 0.1923860335579445	-0.150979
N	0.8989290989241465 0.8942718558479945 0.9375031829516538	-0.244321
N	0.6094340724251890 0.6090168125054385 0.0499510658138388	-0.242168
N	0.9285313050002290 0.8218050586177132 0.8461230776943993	-0.150682
In	0.4980715244868151 0.4774716558170284 0.4976283560240444	1.549846
In	-0.0018937911361751 0.9775564415925048 0.4976594813026678	1.548253
Zn	0.4993980524360583 0.5085821654015434 0.0011810436886663	0.770641
Zn	-0.0005316065277450 0.0085978124552149 0.0013714340623207	0.770914
	  	
