#======================================================================

# CRYSTAL DATA

#----------------------------------------------------------------------

data_VESTA_phase_1


_pd_phase_name                         InFFIVE_7_Cd
_cell_length_a                         19.82154
_cell_length_b                         19.82192
_cell_length_c                         8.59490
_cell_angle_alpha                      89.75555
_cell_angle_beta                       90.24385
_cell_angle_gamma                      90.02435
_symmetry_space_group_name_H-M         P 1
_symmetry_Int_Tables_number            1

loop_
_symmetry_equiv_pos_as_xyz
   x, y, z

loop_
   _atom_site_label
   _atom_site_fract_x
   _atom_site_fract_y
   _atom_site_fract_z
   _atom_site_charge
C	0.6586657117162004 0.8757016573028983 0.6904667716709307	0.101047
C	0.6094809757351987 0.9256684926540898 0.6923935501682933	-0.176670
C	0.5775279259196031 0.8927719959689103 0.4333860409227769	-0.172732
C	0.6276929989602648 0.8441088765293653 0.4401084328557707	0.099916
C	0.8420509751962227 0.6242952650372552 0.6879890335733023	0.102410
C	0.8909201077373716 0.5740933379859761 0.6914526476956352	-0.179359
C	0.9224653087729375 0.6074436530467822 0.4325157532771807	-0.172397
C	0.8725653379858826 0.6564790986706627 0.4377933962701151	0.096082
C	0.6244593534236618 0.6579552913236610 0.6893983735326400	0.101812
C	0.5742374334727307 0.6090244031507830 0.6918534238600325	-0.177883
C	0.6071093831670678 0.5775373449530660 0.4331138436270698	-0.170704
C	0.6558803122349802 0.6276943977911604 0.4388944377021822	0.097827
C	0.8759456311180480 0.8410814219724582 0.6889454067467519	0.099325
C	0.9258451517987827 0.8903305023727671 0.6919765026658972	-0.176494
C	0.8922839298063328 0.9225076135337290 0.4330168732063305	-0.173657
C	0.8432328613545111 0.8726476125449814 0.4393861485679305	0.098321
C	0.3410823559411462 0.3759469084005253 0.3110593253181871	0.099408
C	0.3903311687808289 0.4258467075480908 0.3080306779250746	-0.176689
C	0.4225082362596070 0.3922832946296771 0.5669878762139429	-0.173621
C	0.3726485015109226 0.3432320873026857 0.5606174892341852	0.098288
C	0.1579572769247008 0.1244587995050243 0.3106022726255108	0.101707
C	0.1090259513147106 0.0742370518922337 0.3081494514010918	-0.177743
C	0.0775385792723653 0.1071083875442338 0.5668901570249896	-0.170596
C	0.1276960651213660 0.1558792015933718 0.5611061763477749	0.097820
C	0.3757039036962896 0.1586641005514587 0.3095309742427814	0.101075
C	0.4256703203745832 0.1094797619418542 0.3076085811017349	-0.176546
C	0.3927730988442989 0.0775286644356721 0.5666165290130591	-0.172850
C	0.3441102163864921 0.1276930630814909 0.5598929274341914	0.099987
C	0.1242950691183769 0.3420507741403426 0.3120119772935242	0.102419
C	0.0740931669009350 0.3909199955624216 0.3085503944470575	-0.179359
C	0.1074444723299137 0.4224635114789931 0.5674847628183238	-0.172504
C	0.1564797787444440 0.3725634835222947 0.5622044248532346	0.096144
C	0.4355541864619851 0.0677765625399080 0.4383780937150126	0.141600
C	0.4879164890844514 0.0162318886907339 0.4362260363992075	-0.121496
C	0.0642884756807268 0.4323279476412491 0.4389274788020129	0.144672
C	0.0117851127603968 0.4837953270709021 0.4363540976935572	-0.121038
C	0.4321317432564492 0.4355095031747364 0.4386035655055660	0.144908
C	0.4836568218769257 0.4879469934849244 0.4362709942909043	-0.124663
C	0.0676078863623331 0.0642902635409911 0.4386037032684680	0.141138
C	0.0160905066323214 0.0118098859831277 0.4362818705628271	-0.118590
C	0.5642901309884869 0.5676069975553225 0.5614007882908177	0.141270
C	0.5118095333923477 0.5160898409420362 0.5637239517337430	-0.118872
C	0.9355090576386399 0.9321309473104816 0.5614025250476521	0.144840
C	0.9879471893791362 0.9836562778088150 0.5637350086605593	-0.124779
C	0.5677770373210889 0.9355528740013971 0.5616244937199720	0.141578
C	0.5162322236141644 0.9879159489410163 0.5637776936046854	-0.121421
C	0.9323289008155863 0.5642883306008522 0.5610748899169005	0.144672
C	0.9837961927869051 0.5117845447558090 0.5636497343870923	-0.121141
H	0.6912814078431623 0.8665455828488915 0.7913215166788040	0.100652
H	0.6037794327088015 0.9570989965999762 0.7953312754251901	0.118420
H	0.5455796592413887 0.8961420110030328 0.3301938207602166	0.116896
H	0.6370280135151221 0.8103636624341174 0.3424944773705583	0.094416
H	0.8094424581888566 0.6336458516871112 0.7876189993712046	0.094263
H	0.8966068194859899 0.5426488123365868 0.7950666071991442	0.116899
H	0.9543194400686443 0.6041893526590258 0.3298292232169880	0.119296
H	0.8636103592197473 0.6903974523754084 0.3391214587659969	0.100741
H	0.6343596745329938 0.6897235626403269 0.7904120625626174	0.098878
H	0.5429640718598553 0.6032173816263848 0.7951218144431922	0.118507
H	0.6036670976099837 0.5458540849653655 0.3301001716698244	0.118462
H	0.6888472697597271 0.6374895580542940 0.3398666018804062	0.098535
H	0.8674105692981584 0.8075126519082615 0.7881215698492892	0.096708
H	0.9574731385130881 0.8959245050952515 0.7952314838813785	0.117068
H	0.8954923149828228 0.9546176228766411 0.3301227244600604	0.117501
H	0.8084618776597053 0.8641930297532412 0.3423744008893857	0.095743
H	0.3075145274451091 0.3674106820430321 0.2118826585478917	0.096658
H	0.3959256612061968 0.4574742337527413 0.2047752669200629	0.117101
H	0.4546178754211367 0.3954902908100095 0.6698820370068780	0.117471
H	0.3641943211666288 0.3084597781217113 0.6576266057546041	0.095735
H	0.1897262537782961 0.1343581365012325 0.2095866112629820	0.098916
H	0.1032186480330016 0.0429635859882845 0.2048820700633040	0.118438
H	0.0458545696116670 0.1036656992643469 0.6699047866759057	0.118405
H	0.1374909757010309 0.1888456018178814 0.6601334811150326	0.098557
H	0.3665470478028370 0.1912796373897263 0.2086778389857005	0.100611
H	0.4571010233309410 0.1037782357367511 0.2046713611346214	0.118403
H	0.3961419387443152 0.0455813886669116 0.6698090797802165	0.116958
H	0.3103647047764734 0.1370285961671945 0.6575056626976418	0.094418
H	0.1336448747439095 0.3094435481435053 0.2123805449378406	0.094266
H	0.0426478836949846 0.3966075088298411 0.2049371700913166	0.116883
H	0.1041906790507183 0.4543167823635804 0.6701711052341703	0.119350
H	0.1903982071016919 0.3636076252418900 0.6608760070882637	0.100710
H	0.5062297922122786 0.0019016326670341 0.3211177777024330	0.103983
H	0.9932169129917428 0.4985131196509410 0.3210896429454403	0.103132
H	0.4982089709314751 0.5063965135520383 0.3210766532947650	0.105096
H	0.0015675484716760 0.9933408782746633 0.3211317068275729	0.102746
H	0.4933393311934295 0.5015664566420998 0.6788731925401630	0.102886
H	0.0063958420581755 0.9982079056935077 0.6789304254486871	0.105087
H	0.5019026093209186 0.0062287769832912 0.6788871123026660	0.103984
H	0.9985135952089236 0.4932164186935024 0.6789145926665410	0.103178
Cd	0.2497283616596690 0.2497813331454686 0.4342201848900328	0.823373
Cd	0.7497861120188255 0.7497199526965299 0.5657571954628949	0.823286
In	0.2504565692865615 0.2504388616968928 0.9351185792115559	1.572574
In	0.7504249030278747 0.7504547212205851 0.0648507064944877	1.572657
F	0.2500492196105182 0.2492699871123694 0.1778695463163231	-0.575471
F	0.2496074829457043 0.2499947027784043 0.6917745169739364	-0.575275
F	0.7492317322098023 0.7500028912371223 0.8221002412268992	-0.575488
F	0.7499889096187020 0.7496179657302183 0.3081964610734527	-0.575285
F	0.1769183227128927 0.1782417559792754 0.9348294817545704	-0.635294
F	0.2250861096440170 0.3501265121317190 0.9347456846822383	-0.636161
F	0.3496469475958264 0.2233352827609956 0.9352308680098446	-0.635486
F	0.7233311105634460 0.8496512815321360 0.0647201092476738	-0.635507
F	0.8501160710165205 0.7251030882764772 0.0652652761204868	-0.636179
F	0.6782283215674249 0.6769231059267495 0.0651898814348238	-0.635292
N	0.3356926105382043 0.1675855272329430 0.4339969445632123	-0.241366
N	0.1646321016380343 0.3329066974712851 0.4365427997462595	-0.239563
N	0.3324277453490588 0.3353416729808318 0.4352082925457968	-0.235933
N	0.1671946373381449 0.1643741103500925 0.4352029142140698	-0.242620
N	0.6643749691343500 0.6671930872569077 0.5647949868938121	-0.242652
N	0.8353418776845044 0.8324266358863163 0.5647948056680238	-0.235978
N	0.6675864801193361 0.8356911512262004 0.5660020432069834	-0.241260
N	0.8329086912622742 0.6646313314996481 0.5634569275771814	-0.239500
	  	
