#======================================================================

# CRYSTAL DATA

#----------------------------------------------------------------------

data_VESTA_phase_1


_pd_phase_name                         InFFIVE_2_Fe_i
_cell_length_a                         14.04880
_cell_length_b                         14.05070
_cell_length_c                         8.31345
_cell_angle_alpha                      89.99981
_cell_angle_beta                       90.01761
_cell_angle_gamma                      89.85065
_symmetry_space_group_name_H-M         P 1
_symmetry_Int_Tables_number            1

loop_
_symmetry_equiv_pos_as_xyz
   x, y, z

loop_
   _atom_site_label
   _atom_site_fract_x
   _atom_site_fract_y
   _atom_site_fract_z
   _atom_site_charge
C	0.0002550560303515 0.3044997391008008 0.3549148194670559	-0.158931
C	0.0001608187938540 0.2058422498448524 0.3606107676730769	0.098627
C	0.5002772108323275 0.8045641633929763 0.8549324871033033	-0.158812
C	0.5001847789067178 0.7059081349556814 0.8605684481165838	0.098859
C	0.0000066003930400 0.6960179499580731 0.3548456258279627	-0.163418
C	-0.0003178081036381 0.7946555899625730 0.3607209283312968	0.106722
C	0.5000405296358926 0.1959889189930100 0.8548865088742603	-0.162774
C	0.4997294366466153 0.2946228928611475 0.8607457008305098	0.106615
C	0.6960284831808694 -0.0000029010833856 0.3548355431705944	-0.163112
C	0.7946790327576301 -0.0003223476751978 0.3607608377123466	0.106561
C	0.1960547272988719 0.5000007683935765 0.8548867410248743	-0.163208
C	0.2947003665831235 0.4996627861459502 0.8608786407329456	0.106666
C	0.3044577403484217 0.0002462181803758 0.3549222907747582	-0.158730
C	0.2057868612112851 0.0001450507027716 0.3605644066316462	0.098077
C	0.8045580003679117 0.5002588710423058 0.8549279399367479	-0.159026
C	0.7058868773734548 0.5001727267746114 0.8603811070013209	0.098898
C	0.0002631458261798 0.3045305688145108 0.6451128736057222	-0.158964
C	0.0001719982548355 0.2058700870628825 0.6394840878658589	0.098464
C	0.5002223398472135 0.8045749658785616 0.1450779712116395	-0.159045
C	0.5001095908165109 0.7059177764187553 0.1394764603185470	0.099112
C	0.0000086577461829 0.6960473811869263 0.6451383303301933	-0.163143
C	-0.0003148645504400 0.7946819599218051 0.6392014755237914	0.106436
C	0.4999771090404779 0.1959898804979241 0.1451331692593831	-0.163019
C	0.4996536899110675 0.2946244156164454 0.1392632078997090	0.106459
C	0.3045040182617281 0.0002680404738995 0.6451212243507465	-0.158948
C	0.2058317392274597 0.0001727991503157 0.6394399590276552	0.098474
C	0.8044947538309012 0.5002563737184120 0.1450596815345621	-0.158484
C	0.7058278702472024 0.5001678087114886 0.1392965554898612	0.098578
C	0.6960765056365202 0.0000175612947162 0.6451287448529092	-0.163072
C	0.7947268566942347 -0.0002979750896850 0.6392470859231975	0.106706
C	0.1960091364485450 0.5000063094256757 0.1451189722903669	-0.163009
C	0.2946569142466424 0.4996704299162615 0.1394161901551548	0.106148
C	0.0003349435086296 0.4568252459126111 0.4999850682521386	-0.091450
C	0.0004044094686808 0.3562500856957863 0.4999971371175507	0.157627
C	0.5003387523008508 0.9568225101643135 0.9999932058982502	-0.091634
C	0.5004039547121959 0.8563063399538567 -0.0000001487759840	0.157725
C	0.0003743463840183 0.5437123123450369 0.5000155483215735	-0.102575
C	0.0003432348626938 0.6442628309892620 0.5000064085596096	0.161560
C	0.5003778678422723 0.0437196541340674 0.0000075120987817	-0.102056
C	0.5003438206126648 0.1442201044319145 0.0000113643185804	0.161203
C	0.5437197854962637 0.0003754975843816 0.4999807142090410	-0.102755
C	0.6442754354167798 0.0003392169195093 0.4999770856878354	0.161334
C	0.0437253895828076 0.5003856735095749 0.9999231730508604	-0.102413
C	0.1442430964596746 0.5003383043047060 0.9999484275861351	0.161241
C	0.4568060145500820 0.0003357553727209 0.5000247104524799	-0.091428
C	0.3562243076692063 0.0004091571260551 0.5000263292742636	0.157969
C	0.9568170537498979 0.5003356684099183 0.0000979233519332	-0.091258
C	0.8562817622682768 0.5004117674914644 0.0000553779010656	0.157704
H	0.9996869848455548 0.3408512976132141 0.2392047785336193	0.119414
H	0.9986729927879655 0.1650118540886466 0.2492843427633510	0.089379
H	0.4997762774636129 0.8409771494036233 0.7392858941709965	0.119274
H	0.4987732632371108 0.6651184339376240 0.7491713552584235	0.089704
H	0.9995438794019599 0.6592922902849505 0.2394772377572033	0.119618
H	0.9980760761311808 0.8363203571071334 0.2503048397397191	0.084089
H	0.4996183301708391 0.1592173614660071 0.7395614892197273	0.119347
H	0.4982066446049087 0.3362723486197394 0.7502937605682474	0.084185
H	0.6592966704037779 0.9995245797396225 0.2394484333970375	0.119475
H	0.8363636829632275 0.9980704273357774 0.2503862694702325	0.084052
H	0.1593519040179023 0.4995371658700410 0.7394929983520221	0.119473
H	0.3364215026053267 0.4980422400677863 0.7505113870515758	0.084161
H	0.3408073789252540 0.9996698785382575 0.2392316342248735	0.119299
H	0.1649420165303322 0.9986432111772940 0.2492297408309379	0.089663
H	0.8410021998297318 0.4996756694576658 0.7393370645405656	0.119260
H	0.6651158901979320 0.4986876250319307 0.7489437519303196	0.089832
H	0.9996868371550396 0.3409082372950764 0.7607901478076090	0.119424
H	0.9986890100104604 0.1650635078205957 0.7508386317836208	0.089476
H	0.4996083148252058 0.8410015568323593 0.2607070416486934	0.119424
H	0.4985500488833976 0.6651423150589066 0.2508813901719696	0.089434
H	0.9995403162861486 0.6593480198721622 0.7605358970789259	0.119508
H	0.9980821154914311 0.8363702219854258 0.7495841669470467	0.084203
H	0.4994466569902226 0.1592182909808070 0.2604577538188803	0.119473
H	0.4979668254120823 0.3362731875307272 0.2497085413371911	0.084313
H	0.3408909485354147 0.9997031282821079 0.7608174760488475	0.119372
H	0.1650088417326412 0.9986951872308837 0.7507568378047489	0.089336
H	0.8408435660427754 0.4996878482938286 0.2607758178242566	0.119302
H	0.6649719136840143 0.4986847727885451 0.2506081380615235	0.089416
H	0.6593818951134179 0.9995544863043939 0.7605106017147102	0.119467
H	0.8364339357943109 0.9981159195884495 0.7496363051590977	0.084248
H	0.1592154565695929 0.4995483948741640 0.2603970123412725	0.119513
H	0.3362971678225359 0.4980607881007403 0.2499058899181691	0.084766
Fe	0.0006876829139340 0.0006984310091238 0.4999947649220747	0.826161
Fe	0.5006937821627648 0.5006891566916885 0.0000216197244742	0.825696
In	0.9998413296215817 0.9998298854992862 -0.0000115056081867	1.544970
In	0.4999091663720805 0.4999037975328412 0.5000060466227623	1.545988
N	0.0002739685480990 0.1565394905289288 0.5000598178487715	-0.247468
N	0.5002397899614867 0.6566083003227353 0.0000261195190003	-0.248119
N	-0.0001168787506851 0.8441243536908222 0.4999483629619164	-0.244573
N	0.4998961112507494 0.3440588070499510 0.0000052003793155	-0.244621
N	0.8441559720985703 -0.0000980376445173 0.5000048651842424	-0.244639
N	0.3441041185759668 0.4998713553964957 0.0001903559370667	-0.244543
N	0.1564939405515345 0.0002579852827832 0.4999996787597814	-0.247265
N	0.6565602612923208 0.5002652169696093 0.9997897061836331	-0.248012
F	0.0002018531239220 0.0002130028398555 0.7424785209218574	-0.532665
F	0.5000214858256177 0.5001242611112386 0.2425585089226159	-0.532811
F	0.0001489792622567 0.0001341891137327 0.2574918255226359	-0.532636
F	0.5003691645707444 0.5001391335441138 0.7574575019384645	-0.532853
F	0.6383969442282584 0.4616697227882492 0.4996772052770596	-0.579861
F	0.4616767437011477 0.6383659144827285 0.5001276283502348	-0.579886
F	0.3986120992382239 0.3986970921499195 0.5000795697860621	-0.595372
F	0.8985212976078688 0.8985353951377270 0.9998681448535128	-0.595153
F	0.9613136541239778 0.1382814537354031 -0.0000011198092545	-0.579901
F	0.1383066376273208 0.9612939842946177 0.0000020093738805	-0.579836
	  	
