#======================================================================

# CRYSTAL DATA

#----------------------------------------------------------------------

data_VESTA_phase_1


_pd_phase_name                         InFFIVE_4_Ni_i
_cell_length_a                         23.50548
_cell_length_b                         20.70686
_cell_length_c                         9.48400
_cell_angle_alpha                      89.99667
_cell_angle_beta                       90.00230
_cell_angle_gamma                      90.00316
_symmetry_space_group_name_H-M         P 1
_symmetry_Int_Tables_number            1

loop_
_symmetry_equiv_pos_as_xyz
   x, y, z

loop_
   _atom_site_label
   _atom_site_fract_x
   _atom_site_fract_y
   _atom_site_fract_z
   _atom_site_charge
C	0.4167295720141403 0.5962362314159201 0.6294148467767982	0.103693
C	0.3734058119840978 0.5507595233767735 0.6270635089866240	-0.169382
C	0.2779516767943483 0.4486792035332891 0.6262886990831018	-0.118904
C	0.2321181518291110 0.4063823121823635 0.6251806844805783	-0.112464
C	0.1314405664061051 0.3196583666221772 0.6240520874334962	-0.171299
C	0.0851957254577517 0.2779872721039920 0.6278305954706651	0.097459
C	0.9167526646316212 0.0961927590470154 0.6293859788320231	0.105039
C	0.8734215737638970 0.0507267751603190 0.6270542697936702	-0.169736
C	0.7779303285978889 0.9486844383577822 0.6262951060376989	-0.118922
C	0.7320909004598944 0.9063998520457456 0.6251824979325875	-0.112275
C	0.6313861748017942 0.8197180485036948 0.6240683460151571	-0.171362
C	0.5851460608405870 0.7780348255832298 0.6278719161638967	0.096560
C	0.5835803350404242 0.4035867684731190 0.1294722849547510	0.100882
C	0.6267958925494101 0.4492027955326104 0.1270643453429832	-0.175381
C	0.7225946715436590 0.5508009806282940 0.1263671292501231	-0.115031
C	0.7682348265797696 0.5933095656142482 0.1251807274357351	-0.112367
C	0.8684667876025287 0.6805457759548450 0.1239933693142019	-0.169907
C	0.9147295014767458 0.7221962200028142 0.1276459353761951	0.091761
C	0.0834982042996480 0.9036727072409628 0.1294971161293426	0.099562
C	0.1267347664938819 0.9492667634500421 0.1270653555103921	-0.175590
C	0.2226245791268877 0.0507862490928909 0.1263598172324089	-0.115066
C	0.2682858129968718 0.0932679416792783 0.1251759690038612	-0.111800
C	0.3685541967048447 0.1804314205144247 0.1239554812970011	-0.170286
C	0.4148108268256919 0.2220942586949057 0.1275837059095540	0.094291
C	0.5837974335491446 0.5966316871691968 0.8706365504850767	0.103737
C	0.6269774323520545 0.5509534974052211 0.8729921587588663	-0.174775
C	0.7225292264305846 0.4489010298698778 0.8736564678765998	-0.116951
C	0.7683838920616418 0.4066727182789799 0.8747885290848836	-0.110527
C	0.8693797184783439 0.3205606593928449 0.8760037409874704	-0.168439
C	0.9156121741261097 0.2788652623503458 0.8723719359721676	0.096976
C	0.0837804518522318 0.0966762276119917 0.8706150760939660	0.104330
C	0.1269746185863830 0.0510140213899050 0.8730014806626260	-0.174244
C	0.2225002132952423 0.9488875728105567 0.8736659526257684	-0.117901
C	0.2683565479155356 0.9066624529264091 0.8747941000436739	-0.110741
C	0.3693897754981287 0.8205918802424047 0.8760263445545952	-0.167915
C	0.4156324066452586 0.7789038086643189 0.8724228823558086	0.096391
C	0.4171714355350152 0.4042972046614424 0.3705860129811544	0.098502
C	0.3737510582658339 0.4496471527415202 0.3728846331801955	-0.170853
C	0.2776959891379839 0.5509239755877301 0.3736759068936740	-0.117510
C	0.2320445962447453 0.5934508606087384 0.3748345916900542	-0.113487
C	0.1319836742905806 0.6809909460242859 0.3760152892873626	-0.169209
C	0.0857551885688037 0.7226871787879441 0.3723263934807272	0.090779
C	0.9171607692865663 0.9042951890105706 0.3706027953115194	0.096645
C	0.8737290137874230 0.9496261406168743 0.3728933103705617	-0.171278
C	0.7776960314699319 0.0509204621134619 0.3736740103568680	-0.117515
C	0.7320469289918299 0.0934486771791468 0.3748258828047173	-0.113472
C	0.6319736002632190 0.1809842455853138 0.3759888882052563	-0.168366
C	0.5857406566102539 0.2226802577887648 0.3722640067069133	0.093388
C	0.5835612791010441 0.4035764067711688 0.3704826357773500	0.101600
C	0.6267762988919092 0.4491988917934226 0.3729368142818464	-0.175660
C	0.7225903848097657 0.5508069407887005 0.3736548481911691	-0.115287
C	0.7682314227354193 0.5933146831549895 0.3748406656084883	-0.112430
C	0.8684665630615982 0.6805419844304424 0.3760171612601388	-0.170114
C	0.9147281517580668 0.7221937372674465 0.3723646736759811	0.091836
C	0.0834952483994794 0.9036757876344549 0.3705082255195530	0.099809
C	0.1267304578102726 0.9492707946007599 0.3729490749940031	-0.175707
C	0.2226232047638156 0.0507896601974207 0.3736497829100396	-0.115205
C	0.2682851311660595 0.0932708170023442 0.3748401831396176	-0.111766
C	0.3685664381669872 0.1804462380143832 0.3759967158194768	-0.170129
C	0.4148249784245402 0.2221085390423787 0.3723230310037447	0.093974
C	0.4167100421038314 0.5962213708410335 0.8706723405547631	0.103331
C	0.3733845678135206 0.5507522554085245 0.8729457850163769	-0.169412
C	0.2779453678505563 0.4486904506892758 0.8736962093803338	-0.118869
C	0.2321148501742067 0.4063897542160248 0.8748026356276474	-0.112517
C	0.1314449283664200 0.3196624685166361 0.8759665276632187	-0.171016
C	0.0851992025384140 0.2779950440224210 0.8721971399143875	0.097092
C	0.9167414342837568 0.0961895258294964 0.8706366952950253	0.104779
C	0.8734107595854953 0.0507249449266033 0.8729432181550140	-0.169757
C	0.7779286974207755 0.9486890163512494 0.8736981953009810	-0.119100
C	0.7320895993953757 0.9064021963827106 0.8748029934948495	-0.112152
C	0.6313967698537801 0.8197418806446315 0.8759777223845172	-0.171223
C	0.5851564347465219 0.7780627597666839 0.8722385041225653	0.096468
C	0.4171539995586178 0.4043065885567768 0.1293723016875355	0.098532
C	0.3737319057201616 0.4496520644555413 0.1271054634564664	-0.171134
C	0.2776902110806886 0.5509246817436906 0.1263505601819155	-0.117278
C	0.2320407300949363 0.5934525200681992 0.1251808778875022	-0.113765
C	0.1319799315814495 0.6809974922388011 0.1239833291119112	-0.169153
C	0.0857508333253105 0.7226937487823766 0.1276636996809717	0.090694
C	0.9171597285016357 0.9042985898858356 0.1294173204193389	0.096792
C	0.8737253870683304 0.9496271761418600 0.1271231776601803	-0.171565
C	0.7776935656540411 0.0509221712732718 0.1263422735965256	-0.117304
C	0.7320461037328412 0.0934509292914400 0.1251743211464787	-0.113711
C	0.6319885305946851 0.1809818902360623 0.1239546615277257	-0.168397
C	0.5857570248834835 0.2226775039797208 0.1276259823969095	0.093118
C	0.5837774125711598 0.5966531510838409 0.6293944763862437	0.103539
C	0.6269596621714479 0.5509711854576713 0.6269872050070662	-0.174704
C	0.7225235285589510 0.4488954429323912 0.6263139575825968	-0.117353
C	0.7683807993418126 0.4066709885897596 0.6251950118738109	-0.110389
C	0.8693787145304532 0.3205545881471916 0.6240012943355290	-0.168497
C	0.9156105311420211 0.2788587871288175 0.6276559363465818	0.096930
C	0.0837753064769155 0.0966872001229400 0.6293990212221087	0.104329
C	0.1269718976230127 0.0510264916819278 0.6270082039962722	-0.174305
C	0.2224970140919864 0.9488907250633136 0.6263338219545047	-0.117902
C	0.2683544052039392 0.9066649937055035 0.6252149530566302	-0.110555
C	0.3693987217965400 0.8205743867575475 0.6240496427983202	-0.168306
C	0.4156393596977513 0.7788824966219059 0.6277416373050234	0.096367
C	0.3493061899481199 0.5240194190241874 0.7499960646875641	0.113264
C	0.3025420337126683 0.4742338841677951 0.7499859693507471	0.071748
C	0.2065705913324539 0.3846529045348818 0.7499981304839266	0.062345
C	0.1565996614016581 0.3413856533171811 0.7499993482562943	0.108146
C	0.8493122910865237 0.0240058775258832 0.7499989130694577	0.112355
C	0.8025322034843685 0.9742286609163899 0.7499923731979037	0.071079
C	0.7065378550410847 0.8846856399450115 0.7499970152997555	0.062140
C	0.6565577989368930 0.8414394858706385 0.7500050967552263	0.108783
C	0.6510523450063526 0.4758490897069627 0.2500103228313589	0.116115
C	0.6979586259843119 0.5253730878343600 0.2500158326991111	0.068750
C	0.7936051277137761 0.6152899866340763 0.2500074547360364	0.068657
C	0.8433938110461126 0.6588248167920073 0.2500069208731525	0.101272
C	0.1510276416999377 0.9758807094953580 0.2500052059816287	0.115516
C	0.1979709967161259 0.0253734420088780 0.2500074149740936	0.068095
C	0.2936650881327760 0.1152366563483766 0.2500043545782491	0.067996
C	0.3434728180688809 0.1587438113870082 0.2499962405012988	0.103249
C	0.6510702936406088 0.5241558500464397 0.7499761232543142	0.110298
C	0.6978869145434332 0.4744044288375637 0.7499816956503945	0.063924
C	0.7939612446004634 0.3850131975333830 0.7499928686528893	0.068121
C	0.8440911205071072 0.3419820210424256 0.7499991068650472	0.102426
C	0.1510630454815511 0.0241980446454454 0.7499997601295364	0.110214
C	0.1978672218114936 0.9744184941180615 0.7499989636966197	0.064424
C	0.2939463335106136 0.8850156188015911 0.7500042898787173	0.068376
C	0.3440901826247204 0.8419984920314108 0.7500237538399631	0.102222
C	0.3493709814523978 0.4761133739211421 0.2500090777706231	0.117778
C	0.3023697976682881 0.5255398228705064 0.2500124158495038	0.072726
C	0.2066984818606832 0.6154914513674454 0.2500064720385959	0.065317
C	0.1569526204397085 0.6590862409898651 0.2499989974541451	0.102198
C	0.8493622722887284 0.9760946375862751 0.2500105951470399	0.118146
C	0.8023646769484238 0.0255302982034937 0.2500081617355698	0.072883
C	0.7067012139158271 0.1154838666535725 0.2499995287949043	0.065114
C	0.6569539485882301 0.1590750243855122 0.2499828237759655	0.102143
H	0.4344104880789580 0.6152457201536765 0.5313941120903373	0.101149
H	0.3601713357389770 0.5384338015309097 0.5221891821973590	0.105828
H	0.2938167562870661 0.4607582465711225 0.5233983344149229	0.087354
H	0.2164418330182629 0.3906287079317557 0.5227422624325460	0.103022
H	0.1474805307383146 0.3344500645631311 0.5213979008134519	0.118047
H	0.0650858711005624 0.2594673006905207 0.5321716422261901	0.102609
H	0.9344510890108146 0.1151775926465514 0.5313591746589064	0.101073
H	0.8601940535483156 0.0383868186862178 0.5221835344829320	0.106018
H	0.7937899555060618 0.9607758703444917 0.5234127218982675	0.087439
H	0.7164179607384100 0.8906497086067710 0.5227381736486140	0.103208
H	0.6474065280859566 0.8345299782941982 0.5214067645342468	0.118047
H	0.5650097565126329 0.7595610926470866 0.5322046331248699	0.102721
H	0.5656928513538350 0.3840144830590910 0.0322119655398521	0.106586
H	0.6400719948034866 0.4620120379771440 0.0225054330547986	0.103242
H	0.7069567440777328 0.5384164318961989 0.0235186409601946	0.086494
H	0.7839245997977077 0.6090217472500964 0.0227287531607348	0.105149
H	0.8526280761317356 0.6659128232523008 0.0210235088379858	0.122058
H	0.9344309131403854 0.7402787010337323 0.0310242476336219	0.107502
H	0.0655152830949732 0.8841688719596891 0.0322716756435854	0.107923
H	0.1399732387168920 0.9621176720778329 0.0224938524105866	0.103652
H	0.2069844305223655 0.0384065045306200 0.0235098015016892	0.086497
H	0.2839792793716901 0.1089722324320433 0.0227182074771810	0.104889
H	0.3527349858040145 0.1657542680837693 0.0209971076003356	0.121556
H	0.4345489964378003 0.2401073248855810 0.0309510366545744	0.105382
H	0.5664255043372344 0.6163414192966684 -0.0316137057893382	0.104906
H	0.6403439482906337 0.5385354131081517 -0.0222716675482472	0.104947
H	0.7067711314973562 0.4610278692681004 -0.0234315824118703	0.086297
H	0.7840633435731500 0.3908861396008682 -0.0228094260548876	0.104441
H	0.8536129373699627 0.3355503271611959 -0.0212307884126551	0.119587
H	0.9358825896839232 0.2612137387300897 -0.0313362755904660	0.104594
H	0.0664062994294549 0.1164124409064245 -0.0316616495986510	0.105131
H	0.1403714709486280 0.0386315670141684 -0.0222620323899836	0.104838
H	0.2067161739069924 0.9609923019291848 -0.0234342754886365	0.086549
H	0.2840246693292371 0.8908670812368805 -0.0228064771898802	0.104642
H	0.3536165489480395 0.8355975064951611 -0.0212256773355994	0.119174
H	0.4359262981102333 0.7612773830128639 -0.0313001130574966	0.104397
H	0.4353972797139247 0.3856855886241604 0.4683915958948160	0.106489
H	0.3607729350281910 0.4625439271594666 0.4775973132965164	0.104916
H	0.2933384075750986 0.5384789213044497 0.4765215276771101	0.086834
H	0.2163305107301808 0.6091366632763109 0.4772991153496201	0.103921
H	0.1481300280082372 0.6666531172423453 0.4788859021525638	0.119961
H	0.0662782130742153 0.7415100019770909 0.4685641658861200	0.108583
H	0.9354230299653765 0.8856664931543770 0.4683420882098679	0.108105
H	0.8607240366816287 0.9625235540516274 0.4775859754680328	0.105076
H	0.7933535456762091 0.0384857754286271 0.4765135850801230	0.086822
H	0.7163408974437149 0.1091438279824406 0.4772836009306540	0.103827
H	0.6481374391767040 0.1666447652386996 0.4788490807240718	0.119025
H	0.5662323008581582 0.2415390707308789 0.4684300055406537	0.106485
H	0.5656631108419751 0.3840003722626926 0.4677363889813977	0.106574
H	0.6400360773526087 0.4620117200553849 0.4775065627808525	0.103266
H	0.7069510874755649 0.5384229557215774 0.4765048129984192	0.086614
H	0.7839240864964762 0.6090277138837517 0.4772879677784557	0.105177
H	0.8526293620200128 0.6659075866653346 0.4789905530578842	0.122074
H	0.9344257933922923 0.7402713858765881 0.4689874817281647	0.107470
H	0.0655108127268975 0.8841759687309307 0.4677383506122845	0.107903
H	0.1399604017419558 0.9621283532969399 0.4775168073893871	0.103555
H	0.2069809254693477 0.0384095029482832 0.4765018677556417	0.086437
H	0.2839795355972715 0.1089767642879996 0.4772925972704444	0.104895
H	0.3527524496322012 0.1657794387437968 0.4789743264041518	0.121431
H	0.4345762175276133 0.2401339524382141 0.4689318164921057	0.105367
H	0.4343829450776222 0.6152131352755595 -0.0312850495781209	0.101147
H	0.3601372818521352 0.5384194807728855 -0.0221963867862955	0.105897
H	0.2938011702675529 0.4607787341949879 -0.0234177956781397	0.087366
H	0.2164373984545723 0.3906407745014494 -0.0227471180473999	0.103063
H	0.1474860318159570 0.3344590970220870 -0.0213898175899156	0.118030
H	0.0650914970471856 0.2594790913523561 -0.0321318971578998	0.102610
H	0.9344355242918089 0.1151711398526769 -0.0313353428557032	0.101068
H	0.8601770445521373 0.0383890669685874 -0.0221860131529671	0.106024
H	0.7937844776187263 0.9607850495343984 -0.0234233786780922	0.087434
H	0.7164141479114119 0.8906571720169639 -0.0227452287552693	0.103165
H	0.6474243575606582 0.8345629301166569 -0.0213818939408194	0.117892
H	0.5650245183129026 0.7596038714781514 -0.0320727823795520	0.102568
H	0.4353688407696348 0.3857074460941781 0.0315542129969473	0.106412
H	0.3607375571361453 0.4625513351317639 0.0224027916760415	0.104984
H	0.2933297776788365 0.5384772925145367 0.0235019413447242	0.086797
H	0.2163204156792000 0.6091358239699779 0.0227187510677922	0.103953
H	0.1481222328711315 0.6666581477603961 0.0211154199306654	0.120025
H	0.0662685229163865 0.7415174533616413 0.0314244604914354	0.108542
H	0.9354250259271915 0.8856706541791204 0.0316801979530464	0.108174
H	0.8607177378066720 0.9625274794887072 0.0224316721165130	0.105071
H	0.7933484422485725 0.0384870289397445 0.0235039793408954	0.086787
H	0.7163390608316160 0.1091482323948317 0.0227134219034189	0.103894
H	0.6481625824221267 0.1666405412513949 0.0211139706684019	0.118981
H	0.5662593903711135 0.2415353294472012 0.0314443128975024	0.106629
H	0.5664014049073761 0.6163718999267920 0.5316461939559618	0.105003
H	0.6403131599211699 0.5385646526513334 0.5222303535131612	0.105017
H	0.7067546470437340 0.4610165109044788 0.5234068964207340	0.086537
H	0.7840566218755778 0.3908844148306913 0.5227950209986972	0.104432
H	0.8536109675671589 0.3355441353435605 0.5212306697208957	0.119623
H	0.9358801767088269 0.2611981883159122 0.5313745942489890	0.104565
H	0.0663996237539046 0.1164286492526912 0.5316724166584503	0.105074
H	0.1403653578249199 0.0386500565823651 0.5222692128621452	0.104933
H	0.2067070951244429 0.9609950106271363 0.5234345374177366	0.086626
H	0.2840206710757310 0.8908704280562239 0.5228133980099212	0.104473
H	0.3536298901319090 0.8355675119315266 0.5212764545067535	0.119313
H	0.4359373379928989 0.7612243628609917 0.5315026219577383	0.104372
Ni	0.4999432916344728 0.6884826644921044 0.7503976876572324	0.645119
Ni	-0.0000841335219915 0.1885251138307202 0.7501173601602513	0.660497
Ni	0.4999481895154405 0.3113578610473771 0.2498141869974485	0.573386
Ni	-0.0000442647137984 0.8113257416847874 0.2499955550300056	0.490993
F	0.4997611610284002 0.6868948633274066 0.4881089858538916	-0.609822
F	-0.0001955968497677 0.1868840840750944 0.4882186891668748	-0.611252
F	0.4996642213964686 0.3124228520295936 -0.0115494611213990	-0.614493
F	-0.0003969677186763 0.8124797266446748 -0.0115579817457282	-0.612893
F	0.4998355509715509 0.6867851492712216 0.0114744662298059	-0.609539
F	-0.0001806115842149 0.1868467596753934 0.0115896933877253	-0.611218
F	0.4996747573586455 0.3124030687331159 0.5118127547399021	-0.615150
F	-0.0003814629415541 0.8124949911874277 0.5115401565712600	-0.612693
F	0.4716220534355856 0.7762689066880217 0.2493678353664953	-0.619302
F	0.5788304087427338 0.6533518163653246 0.2500861235249391	-0.612229
F	0.9690239028796754 0.2751941329230168 0.2497612016934745	-0.619240
F	0.0792094252487292 0.1552385154792280 0.2499819807704263	-0.613314
F	0.5805157103293029 0.2900301407010871 0.7500976457387459	-0.622158
F	0.4689762396958934 0.4045165596616729 0.7500065753084915	-0.613849
F	0.0795366482317195 0.7852437319334966 0.7499977251216532	-0.622863
F	0.9730830956912638 0.9058018859854350 0.7499856621142694	-0.614173
F	0.4358768790142660 0.6152479965032758 0.2497085207721098	-0.606434
F	0.9367990624735316 0.1138274842322430 0.2500204354826562	-0.607175
F	0.4366831628972316 0.2434002312178318 0.7501411002369933	-0.621190
F	0.9346683401772138 0.7458354962125521 0.7499988541170456	-0.621802
N	0.4387798978555555 0.6190959082724612 0.7500579355447341	-0.201017
N	0.5625710019952626 0.7570055103812187 0.7500786368089750	-0.208462
N	0.9387974309976939 0.1190671625194285 0.7500154996901186	-0.205218
N	0.0625944633502655 0.2569802604887110 0.7500224915519871	-0.213403
N	0.5615444722748639 0.3806446821201019 0.2499663638708899	-0.181492
N	0.4373993929246087 0.2431290591281043 0.2499362019888328	-0.191625
N	0.0614975620044120 0.8807135638405917 0.2500067093144623	-0.159979
N	0.9373426089774420 0.7431805636639006 0.2500043926564236	-0.169733
N	0.5616856771795160 0.6194399602190352 0.7500364441619244	-0.200936
N	0.4379680653780550 0.7575405850148754 0.7501027685311707	-0.210595
N	0.0616572824664197 0.1194603292026438 0.7500119373415384	-0.205350
N	0.9379447699253280 0.2575252321959101 0.7500205908410916	-0.215598
N	0.4391065704552380 0.3812757010727794 0.2499651171714238	-0.181146
N	0.5629697429400508 0.2434391372599660 0.2499319828500816	-0.189606
N	0.9391117835683829 0.8812760960254080 0.2500092597553750	-0.160014
N	0.0629788633117438 0.7434486762555184 0.2499962651843660	-0.168546
In	0.4973325516964929 0.6834242709526464 0.2499938723583910	1.540615
In	-0.0028730967534637 0.1833269826396327 0.2499812053569366	1.541428
In	0.4971190719348310 0.3126411088937909 0.7501117253816083	1.537840
In	-0.0027315939540558 0.8125443796897087 0.7499393967650353	1.532006
	  	
