#======================================================================

# CRYSTAL DATA

#----------------------------------------------------------------------

data_VESTA_phase_1


_pd_phase_name                         InFFIVE_15_Ni_i
_cell_length_a                         29.80247
_cell_length_b                         28.91855
_cell_length_c                         8.34699
_cell_angle_alpha                      90.00070
_cell_angle_beta                       90.00054
_cell_angle_gamma                      89.99970
_symmetry_space_group_name_H-M         P 1
_symmetry_Int_Tables_number            1

loop_
_symmetry_equiv_pos_as_xyz
   x, y, z

loop_
   _atom_site_label
   _atom_site_fract_x
   _atom_site_fract_y
   _atom_site_fract_z
   _atom_site_charge
C	0.9340920511583710 0.1031305349345673 0.8887788241323192	0.096479
C	0.9017091506227554 0.0686621998585637 0.8944992626694027	-0.164494
C	0.7700315550485527 0.9362171974521103 0.8960760612313049	-0.116168
C	0.7358257293331699 0.9038049967978903 0.8958574792120226	-0.116980
C	0.5676477656368590 0.7408572907175243 0.8886404189175827	0.094854
C	0.6011643082502809 0.7741484548751847 0.8941922741739713	-0.167717
C	0.4345179272183087 0.6029201157717218 0.8886328510681789	0.106986
C	0.4020852652245313 0.5685082495947029 0.8945865166475532	-0.166133
C	0.2699572915243265 0.4363044103146650 0.8960460341122956	-0.114003
C	0.2357601372516669 0.4038520321746021 0.8958256810362225	-0.116503
C	0.0677971047117845 0.2404581879696841 0.8884968760738592	0.104043
C	0.1013304648925437 0.2737203489364182 0.8942580099380153	-0.169432
C	0.0661656362364558 0.8964189342532284 0.3886078996474482	0.106692
C	0.0982071800606825 0.9312180169211052 0.3945789476419596	-0.166420
C	0.2299998173427125 0.0637468417968618 0.3960409566581427	-0.113999
C	0.2642173498139547 0.0961761737385741 0.3958269550780782	-0.115382
C	0.4328765188435764 0.2588476472343355 0.3885060686792484	0.102597
C	0.3990307582767976 0.2259187285226859 0.3942604938380381	-0.166997
C	0.5660141465508713 0.3967871433192422 0.3887620046741540	0.098032
C	0.5979912333363014 0.4316541629108570 0.3944933786141823	-0.164331
C	0.7300378306211553 0.5636787790896918 0.3960657183613473	-0.116170
C	0.7642725408000751 0.5960569721779089 0.3958567443091759	-0.115718
C	0.9324169962455802 0.7590613247428499 0.3886629862546480	0.095543
C	0.8985683092804584 0.7261252491473542 0.3942047533690413	-0.168173
C	0.0660319421861582 0.1037338864477316 0.6113768391041456	0.107544
C	0.0980534179810483 0.0689309697986118 0.6054081378113702	-0.167592
C	0.2297294265449260 0.9364316555432638 0.6039631702347350	-0.116699
C	0.2639858309927958 0.9040652161782534 0.6041349059784746	-0.114200
C	0.4322137057315047 0.7409725389494605 0.6113847342529174	0.095028
C	0.3986901526872199 0.7742729069168337 0.6058435425347974	-0.167570
C	0.5653658464427559 0.6030656833973075 0.6113504985192060	0.106174
C	0.5977669623466757 0.5686395189025153 0.6053663157732845	-0.166301
C	0.7298449337329588 0.4365617165285094 0.6039513784960862	-0.115165
C	0.7640145311287877 0.4040950705703354 0.6041285738061200	-0.115386
C	0.9323041806529005 0.2410674470851084 0.6113551098968580	0.096804
C	0.8984378557215754 0.2739995747003540 0.6058247932144125	-0.169465
C	0.9339699520016697 0.8970066603532375 0.1112454125500507	0.096632
C	0.9015755267157919 0.9314768438894278 0.1055247890455135	-0.164042
C	0.7697632268010410 0.0639465186335060 0.1039246603751362	-0.117201
C	0.7355996408635506 0.0964197832534025 0.1041755107221645	-0.116592
C	0.5669842762904540 0.2589953751127307 0.1114727988309213	0.102269
C	0.6008216783445289 0.2260710639880324 0.1057107748631778	-0.167360
C	0.4338404028138617 0.3969147016605212 0.1112397522879788	0.098150
C	0.4018438349490152 0.4317774254929556 0.1055355252352542	-0.163959
C	0.2697458642687215 0.5639237001710504 0.1039293991886370	-0.117000
C	0.2354971477014371 0.5962990511271030 0.1041729260417453	-0.115359
C	0.0676699607708988 0.7596848493744359 0.1114910293147109	0.104880
C	0.1011791705919567 0.7264065111528633 0.1057163177479627	-0.169739
C	0.0661657132616703 0.8964176956594920 0.1113951566074894	0.106633
C	0.0982070080213506 0.9312168974894268 0.1054253232857439	-0.166344
C	0.2299990460798532 0.0637459900604800 0.1039575918754760	-0.114059
C	0.2642165603118423 0.0961753170250181 0.1041742382426169	-0.115402
C	0.4328749181240838 0.2588473838317660 0.1114920633430468	0.102552
C	0.3990296704388210 0.2259179837010519 0.1057368446058818	-0.166881
C	0.5660135610546801 0.3967872119743224 0.1112237009167715	0.098023
C	0.5979908047235140 0.4316540954845034 0.1054963436232058	-0.164322
C	0.7300377983916919 0.5636785102674906 0.1039327236948973	-0.116152
C	0.7642723631518672 0.5960565110273310 0.1041462874723272	-0.115665
C	0.9324169580871676 0.7590609804064968 0.1113416774325225	0.095591
C	0.8985681853122910 0.7261249837315753 0.1057957080564100	-0.168222
C	0.9340918281396201 0.1031306156969410 0.6112316141773918	0.096600
C	0.9017088094431862 0.0686623315825301 0.6055059075091992	-0.164535
C	0.7700309273201197 0.9362166401472500 0.6039231648294208	-0.116173
C	0.7358249393836025 0.9038045373643423 0.6041397970629097	-0.117036
C	0.5676464192101106 0.7408569540174098 0.6113646924332280	0.094755
C	0.6011626953599137 0.7741481675103712 0.6058120375794830	-0.167733
C	0.4345177796333413 0.6029192650203036 0.6113694934046852	0.106870
C	0.4020849393516054 0.5685074928428083 0.6054127544063175	-0.166081
C	0.2699566401531614 0.4363037741584428 0.6039520520314756	-0.113964
C	0.2357594739780042 0.4038514411437777 0.6041700246549773	-0.116475
C	0.0677965818884365 0.2404560524612209 0.6115064282986173	0.103891
C	0.1013293540784388 0.2737185956046751 0.6057442257303608	-0.169340
C	0.9339691965438515 0.8970070562390152 0.3887594785861294	0.096664
C	0.9015747232304665 0.9314771413303574 0.3944773564445390	-0.164095
C	0.7697630884026848 0.0639466416373016 0.3960766008259235	-0.117136
C	0.7355998198347621 0.0964198413329540 0.3958237279939210	-0.116677
C	0.5669833974570170 0.2589953582867375 0.3885254722330386	0.102450
C	0.6008214948949748 0.2260715616409510 0.3942890251167945	-0.167515
C	0.4338404677302197 0.3969142894216311 0.3887454876876331	0.098182
C	0.4018440683675034 0.4317771918213810 0.3944529638329418	-0.164065
C	0.2697460315279495 0.5639237447412599 0.3960678470835052	-0.116981
C	0.2354972770935906 0.5962989905294632 0.3958235716305616	-0.115421
C	0.0676694719444275 0.7596838125457323 0.3885183411611102	0.104856
C	0.1011789466278808 0.7264055357475298 0.3942900762510799	-0.169740
C	0.0660312667206097 0.1037323974662727 0.8886325421259822	0.107498
C	0.0980535722139028 0.0689297319380682 0.8945962033127742	-0.167629
C	0.2297292585449269 0.9364317304292413 0.8960354100870308	-0.116749
C	0.2639857084349590 0.9040652935594206 0.8958646298349936	-0.114216
C	0.4322141656770856 0.7409726809626026 0.8886102659665703	0.095032
C	0.3986906345038169 0.7742730840216536 0.8941515903215013	-0.167492
C	0.5653670471083393 0.6030657434541042 0.8886526870054644	0.106198
C	0.5977678549822050 0.5686392825405339 0.8946348902872746	-0.166380
C	0.7298449828156505 0.4365619255055839 0.8960519537386380	-0.115168
C	0.7640147355750924 0.4040953445472417 0.8958742730286292	-0.115446
C	0.9323034225219179 0.2410677360492721 0.8886454492022244	0.096810
C	0.8984369916895941 0.2739996750809358 0.8941724681976858	-0.169457
C	0.6532605206892316 0.8252787567606420 0.7500010196540461	-0.104882
C	0.8846040484450653 0.0507132645515451 0.7500012865326301	0.163019
C	0.8219064698331322 0.9865770106348668 0.7500002096250052	-0.100596
C	0.6188453814725007 0.7917131557854820 0.7500019223412351	0.168239
C	0.7875511930051169 0.9530113767772416 0.7499999806611490	0.127829
C	0.7180707994717707 0.8870933128383424 0.7499979434745415	0.137928
C	0.6832133403014785 0.8540553322027346 0.7499980025526852	-0.100093
C	0.8512441923294001 0.0160348329349883 0.7500009124265284	-0.103694
C	0.1532563092594738 0.3250801941909807 0.7499997940069393	-0.107079
C	0.3848780880992804 0.5506622531306138 0.7499987970327932	0.164408
C	0.3219041707187639 0.4867358321282939 0.7499996242560419	-0.094548
C	0.1189623478462282 0.2913332255677945 0.7500002625955835	0.172950
C	0.2874842006214741 0.4531511185937254 0.7499993743904316	0.128782
C	0.2179714567518890 0.3871145245997227 0.7499974311565450	0.138793
C	0.1831247785382562 0.3539736384242543 0.7499972151731154	-0.097785
C	0.3513225786533449 0.5161306918686217 0.7499983241861302	-0.107145
C	0.3464717594999338 0.1752362954075716 0.2499995796641825	-0.107021
C	0.1150069560474495 0.9494630775124294 0.2500025185296451	0.164960
C	0.1776505297006619 0.0137398477046593 0.2499997839557721	-0.094921
C	0.3810450642363657 0.2086840098799891 0.2499988898982309	0.171878
C	0.2123260389535326 0.0470583154108358 0.2499992642834069	0.127319
C	0.2818856085189053 0.1130491658431997 0.2500007033473774	0.138609
C	0.3165661190731588 0.1463727890239746 0.2499994499055138	-0.096638
C	0.1482243214599626 0.9843417286194901 0.2500019086146569	-0.110420
C	0.8462645709081822 0.6752113475017349 0.2499994848761576	-0.103463
C	0.6148004870481888 0.4498926144260504 0.2499955114036100	0.160388
C	0.6776691344960764 0.5138492382645817 0.2499981163684563	-0.100223
C	0.8806486491101249 0.7088185608312360 0.2499991812349743	0.168937
C	0.7123785006993216 0.5470331170679175 0.2499981406350484	0.126380
C	0.7819236709047254 0.6128849958323392 0.2500020364712637	0.138074
C	0.8164998935893661 0.6462353208498486 0.2500023459990467	-0.100009
C	0.6481123391219303 0.4846173391287753 0.2499980414215246	-0.106359
C	0.3465153595321024 0.8253969764496845 0.7499992385967928	-0.101428
C	0.1148519855177667 0.0507067675124105 0.7500006537836238	0.166882
C	0.1774936090587173 0.9864774512124430 0.7499980604465004	-0.094699
C	0.3809744633056087 0.7918356606587680 0.7499978280324473	0.167902
C	0.2120958381378001 0.9531266391135720 0.7499991118904348	0.127060
C	0.2817458223930461 0.8873178463521975 0.7499998071014055	0.139287
C	0.3165852800566744 0.8542109519678794 0.7499995559846692	-0.101811
C	0.1480723299759738 0.0158615910218683 0.7499989407194054	-0.113666
C	0.8461179172569755 0.3249600434922194 0.7499981518074227	-0.100911
C	0.6149297990080838 0.5507810564000866 0.7499999777532113	0.165808
C	0.6778566564035701 0.4868605627817199 0.7500018138082141	-0.091847
C	0.8805134132743765 0.2913369243854351 0.7499980084978428	0.167310
C	0.7123128156844509 0.4533612854720717 0.7500016419369728	0.126159
C	0.7816973596385453 0.3872696827367166 0.7500011956111938	0.138873
C	0.8163317441440513 0.3539385072045971 0.7500013936694554	-0.102363
C	0.6484281913695195 0.5162337749879978 0.7499987391019329	-0.109898
C	0.6533203578055243 0.1753742496074636 0.2500003826756407	-0.106378
C	0.8844678636728591 0.9494471894593451 0.2500003778563762	0.162064
C	0.8217437203172780 0.0136054865415562 0.2500000078982570	-0.102715
C	0.6187789857838197 0.2088247123614333 0.2499997954213324	0.170328
C	0.7873294699511540 0.0471584374762833 0.2500008728710418	0.131793
C	0.7179374854274837 0.1132703735363309 0.2499994827524452	0.137353
C	0.6832385474789819 0.1465401140583253 0.2500001303225575	-0.098147
C	0.8511132222715581 0.9841614728910546 0.2499993325128889	-0.099681
C	0.1530836692929675 0.6750851664811942 0.2500004869082606	-0.104821
C	0.3849875344806032 0.4499928100377582 0.2499944760945794	0.159650
C	0.3220538123008394 0.5139373270945090 0.2499982822852852	-0.106641
C	0.1187938642125273 0.7088041305542704 0.2500024361565160	0.170921
C	0.2873907711522385 0.5472221789160231 0.2499987873887320	0.131068
C	0.2177446376792810 0.6130442921655039 0.2499984127404214	0.137762
C	0.1829489705547631 0.6461959102040344 0.2499988329550639	-0.097934
C	0.3515984624376450 0.4846807500830352 0.2499966763340656	-0.100998
H	0.9480910550753056 0.1168559181045685 -0.0006076059924644	0.092621
H	0.8899915472737013 0.0558706265581713 0.0099291271781882	0.120898
H	0.7837699050770224 0.9491443798042278 0.0084944507260769	0.106205
H	0.7221620218600986 0.8908521786257182 0.0081973734086532	0.114866
H	0.5543537633866006 0.7264833874508744 -0.0006598780850410	0.091092
H	0.6135050224501970 0.7861524202041070 0.0096893374498523	0.125275
H	0.4488985440951139 0.6170505863280572 -0.0020429942254680	0.086829
H	0.3902426495258279 0.5555940778761375 0.0096860104861425	0.121274
H	0.2837445421694559 0.4491495342231309 0.0085315850125208	0.106980
H	0.2221745087864625 0.3908375909099695 0.0082412128987721	0.114854
H	0.0540296912927584 0.2257583820846112 -0.0021159458053961	0.086453
H	0.1137812521428311 0.2858633700530707 0.0094230930934923	0.125724
H	0.0529543827860047 0.8811018134874989 0.4978731932764434	0.087013
H	0.1101733808860527 0.9440215071674735 0.5096625058537673	0.121346
H	0.2162970346681395 0.0508119389154988 0.5085291310698048	0.106523
H	0.2778912862085962 0.1090806407972932 0.5082512655852474	0.115002
H	0.4477569703314453 0.2723822585543790 0.4978561659662763	0.086283
H	0.3867024500174385 0.2136302641747846 0.5094062008248205	0.124775
H	0.5533487334070057 0.3817273445485649 0.4993384835838728	0.092380
H	0.6098399057695413 0.4443158555684907 0.5099132684601936	0.120870
H	0.7162836168968804 0.5507755044850132 0.5084869688241838	0.105955
H	0.7779298099844816 0.6090080081090631 0.5082150472401048	0.115103
H	0.9469908068206989 0.7721029710432817 0.4993072333941119	0.090808
H	0.8863730357651178 0.7139459034537970 0.5096776967233424	0.125355
H	0.0528147479799443 0.1190556000263733 0.5021266428670444	0.086918
H	0.1100352197550850 0.0560959696395854 0.4903834320719215	0.121160
H	0.2160160762640719 0.9493899564330498 0.4915555656156194	0.106462
H	0.2775921367754405 0.8910913185080950 0.4916955395354384	0.115369
H	0.4455080136903475 0.7266027928836323 0.5006619658045841	0.091253
H	0.3863891378676195 0.7862669384808015 0.4902985511734649	0.125023
H	0.5510025904714079 0.6172273458684989 0.5020712094776155	0.086838
H	0.6096536355502188 0.5557119114733019 0.4903245793525823	0.121276
H	0.7160220346417325 0.4494094581862048 0.4915607949216182	0.107229
H	0.7776529610034815 0.3911472479685965 0.4916929388947607	0.115143
H	0.9468787634652781 0.2280237509544185 0.5006954617288302	0.090929
H	0.8862572602140812 0.2861574276213139 0.4903080174398559	0.125689
H	0.9479704657478399 0.8832750179561154 0.0006312161566498	0.092463
H	0.8898769173151525 0.9442399928320699 0.9900519808064885	0.120921
H	0.7834909356332099 0.0510419346317010 0.9914234647861331	0.107496
H	0.7218793174284679 0.1093225547469531 0.9918548885039439	0.114804
H	0.5521182069037827 0.2725460058291577 0.0021331636984192	0.086091
H	0.6131862843536150 0.2137760473286567 0.9906089572867233	0.125342
H	0.4465162991583241 0.3818575833533122 0.0006530085715682	0.092403
H	0.3900333292580784 0.4444306331342764 0.9900620159585806	0.120575
H	0.2834702514394898 0.5510159620134748 0.9914256025975501	0.106629
H	0.2218980811593255 0.6093302202677071 0.9918490901645416	0.114752
H	0.0539098607040784 0.7743920892388391 0.0021118401665060	0.085437
H	0.1136532113958983 0.7142435820319474 0.9906118688557984	0.126124
H	0.0529541609512241 0.8810999552558544 0.0021292240572825	0.087021
H	0.1101726502776242 0.9440197304718714 0.9903418033680077	0.121364
H	0.2162957260952159 0.0508105212647455 0.9914691693076773	0.106519
H	0.2778898396241823 0.1090791341518944 0.9917501283149072	0.115047
H	0.4477527722635671 0.2723828190029908 0.0021405514293606	0.086269
H	0.3866998919272811 0.2136282391704390 0.9905926375740846	0.124712
H	0.5533484297331602 0.3817273487462264 0.0006451421012380	0.092326
H	0.6098394251597592 0.4443162711030655 0.9900793177573197	0.120837
H	0.7162830746704816 0.5507746420114279 0.9915103382695098	0.105949
H	0.7779293839437177 0.6090069792273838 0.9917897112969982	0.115087
H	0.9469911429106461 0.7721025334840975 0.0006994199213189	0.090779
H	0.8863727156283274 0.7139456618867165 0.9903206059312075	0.125359
H	0.9480894659456151 0.1168556989699309 0.5006184500603816	0.092653
H	0.8899909619550584 0.0558696972588665 0.4900747321896028	0.120907
H	0.7837686593844256 0.9491431569786658 0.4915046656340629	0.106265
H	0.7221608286306350 0.8908510110456799 0.4917999928122143	0.114887
H	0.5543512836750890 0.7264826300548436 0.5006650787598518	0.091100
H	0.6135025018418221 0.7861515543125220 0.4903144214944613	0.125349
H	0.4488987449033404 0.6170490699925775 0.5020465921081264	0.086889
H	0.3902420688020422 0.5555929351421989 0.4903127202693150	0.121248
H	0.2837434350268572 0.4491484732370994 0.4914675224652704	0.106939
H	0.2221734115213907 0.3908365129101298 0.4917532717131229	0.114811
H	0.0540299385509947 0.2257542284085499 0.5021191537266249	0.086490
H	0.1137794540911768 0.2858606380638204 0.4905786533122135	0.125733
H	0.9479690475262251 0.8832751617841317 0.4993733721640989	0.092444
H	0.8898754689472138 0.9442403087519827 0.5099493988291628	0.120940
H	0.7834912469147900 0.0510418257910757 0.5085767219118995	0.107498
H	0.7218796564582010 0.1093226290073239 0.5081443384796277	0.114818
H	0.5521157117733874 0.2725442150235848 0.4978653457885686	0.086094
H	0.6131855562888801 0.2137764453434947 0.5093905297308631	0.125371
H	0.4465171269285175 0.3818568070955540 0.4993298323790952	0.092441
H	0.3900344407723897 0.4444294145930067 0.5099283386315695	0.120669
H	0.2834701392290701 0.5510161570445581 0.5085716989895582	0.106625
H	0.2218978492311020 0.6093303079780681 0.5081476200150066	0.114775
H	0.0539097743952252 0.7743903154014997 0.4978998914828605	0.085434
H	0.1136534547777711 0.7142418786627123 0.5093925862236243	0.126114
H	0.0528133752018881 0.1190522482964673 -0.0021151113350984	0.086935
H	0.1100358245428335 0.0560939082340252 0.0096186611407244	0.121203
H	0.2160156632411796 0.9493901820663212 0.0084426534881004	0.106470
H	0.2775918543650042 0.8910915369845076 0.0083043689224490	0.115408
H	0.4455087253502395 0.7266031389318163 -0.0006669952270831	0.091213
H	0.3863898420375199 0.7862673600783278 0.0096968198036696	0.124980
H	0.5510048122134562 0.6172281147873918 -0.0020668490221669	0.086864
H	0.6096547069222183 0.5557118574544553 0.0096755829003454	0.121317
H	0.7160222603693380 0.4494097865265810 0.0084424258201499	0.107210
H	0.7776531408778579 0.3911476095401331 0.0083104000659792	0.115179
H	0.9468780774762210 0.2280235724559672 -0.0006953208389562	0.090918
H	0.8862561330275653 0.2861574129685206 0.0096882577193034	0.125673
Ni	0.4999372158356766 0.6731871690932930 0.7500014728461026	0.760454
Ni	-0.0003399805516521 0.1729315965966483 0.7500170390334369	0.760463
Ni	0.4999435812600108 0.3274722149308860 0.2499971428168913	0.759256
Ni	-0.0003532155702245 0.8272254996037660 0.2500031310455452	0.760534
In	0.4998914322946280 0.6719606265142932 0.2500036709724927	1.549263
In	0.0015162781195049 0.1730684380809305 0.2499952318307644	1.549466
In	0.4999334360484354 0.3258091541082865 0.7499998280398440	1.550379
In	0.0014950546325452 0.8269971121363447 0.7500012754778281	1.549857
F	0.4995956117705632 0.6022199252213121 0.2500143547298538	-0.597040
F	0.9691007569914134 0.2344165017128962 0.2500051657229074	-0.587743
F	0.9694870055551420 0.1115473890048024 0.2500166112423002	-0.583702
F	0.4998872926629684 0.2560685843175471 0.7499142083330975	-0.601678
F	0.9691890530867727 0.7655820152504906 0.7499934520778652	-0.587478
F	0.9694081634066197 0.8885022087204975 0.7500305446922220	-0.584213
F	0.5597219473349994 0.7048115625674245 0.2500017108353604	-0.586236
F	0.0692369159216926 0.1730555613631531 0.2500230707396567	-0.600311
F	0.4402172078561393 0.3588172308856939 0.7500165468175988	-0.586281
F	0.4401838350035287 0.7050128426460194 0.2500013133811433	-0.586408
F	0.5597053223913737 0.3586741507526925 0.7499905148613066	-0.585716
F	0.0692197992327972 0.8270382111357713 0.7499448265970090	-0.600229
F	0.4998977867148071 0.6733419310622216 0.5057170177118041	-0.558223
F	-0.0000306017135004 0.1732107802102794 0.5058455195618867	-0.558714
F	0.4998924414005141 0.3272128576923430 0.0057633613204305	-0.558778
F	-0.0000624297882017 0.8269131432718556 0.0058460550188468	-0.558714
F	0.4998998164987909 0.6733378742166050 -0.0057040940769250	-0.558270
F	-0.0000268007575104 0.1732170084712660 -0.0058229026890765	-0.558751
F	0.4998825766552911 0.3272269840565571 0.4942274203375880	-0.558791
F	-0.0000750321017683 0.8269193860154630 0.4941627892640097	-0.558663
N	0.5508027338384085 0.7242687988290620 0.7500027770893628	-0.235899
N	0.9501146743526750 0.1204694447672707 0.7500066263950558	-0.235562
N	0.0508621996648512 0.2239650372919047 0.7500023201743924	-0.233332
N	0.4504680102013844 0.6203345038066533 0.7500017225699984	-0.232771
N	0.4496194128835219 0.2755378003233698 0.2499983951994430	-0.230260
N	0.0500514787374258 0.8791672246758632 0.2500012315120765	-0.229363
N	0.9492377687569431 0.7756665350237814 0.2500032070714735	-0.235472
N	0.5499923764925410 0.3794469542908194 0.2499924134449581	-0.235100
N	0.4490497836172672 0.7243583496059268 0.7499973414471717	-0.235354
N	0.0499485749421838 0.1209953132255551 0.7500066198396411	-0.231630
N	0.9491532619077834 0.2244723782347992 0.7500012798890857	-0.236143
N	0.5494151211109234 0.6204617285987775 0.7500024249954246	-0.233539
N	0.5502281677357449 0.2756555237852159 0.2499986030321314	-0.230529
N	0.9500165598691728 0.8796758858099619 0.2500028220366880	-0.234381
N	0.0507656186306743 0.7761872678364602 0.2500053023187747	-0.232704
N	0.4498500749657819 0.3795452813358478 0.2499918981377935	-0.234047
	  	
