#======================================================================

# CRYSTAL DATA

#----------------------------------------------------------------------

data_VESTA_phase_1


_pd_phase_name                         InFFIVE_14_Zn_i
_cell_length_a                         13.40147
_cell_length_b                         13.38332
_cell_length_c                         8.36174
_cell_angle_alpha                      88.06520
_cell_angle_beta                       87.86444
_cell_angle_gamma                      88.96794
_symmetry_space_group_name_H-M         P 1
_symmetry_Int_Tables_number            1

loop_
_symmetry_equiv_pos_as_xyz
   x, y, z

loop_
   _atom_site_label
   _atom_site_fract_x
   _atom_site_fract_y
   _atom_site_fract_z
   _atom_site_charge
C	0.5715214155284669 0.2621233215251357 0.3640898319083359	-0.179544
C	0.4677743576402660 0.2659001600704428 0.3669782162507699	0.112430
C	0.9374407393610317 0.2861541968414370 0.4101054741276361	-0.172070
C	0.0408548711404366 0.2797697718793252 0.3940812290300208	0.110986
C	0.2602558779898284 0.5716710144604474 0.3666533282518534	-0.178057
C	0.2632274844620018 0.4677457153237199 0.3702016310449905	0.111361
C	0.2958320711803576 0.9376795174256130 0.4062701794374353	-0.172080
C	0.2889543953002583 0.0412629740237752 0.3915308387170638	0.109954
C	0.9302303998914349 0.2347980527172751 0.1363734221090432	-0.182064
C	0.0340109199878336 0.2311104141856932 0.1308149676470404	0.109024
C	0.5662739260648524 0.2124391404206070 0.0892903714931539	-0.165906
C	0.4627867982353200 0.2203104184598518 0.1016946734824962	0.105025
C	0.2145189724374162 0.5658988376441006 0.0902674720223766	-0.169981
C	0.2217793232314250 0.4623445725970438 0.1032024747079620	0.105644
C	0.2321836674983983 0.9302778805955966 0.1401844968233636	-0.182626
C	0.2285627676847193 0.0341925530231448 0.1354379951642364	0.110140
C	0.4302035943077848 0.7366487877780592 0.6379521639511164	-0.183046
C	0.5339282642809228 0.7330451445736722 0.6322477102162730	0.110642
C	0.0661679215111290 0.7299530586565226 0.5819580759934203	-0.167376
C	0.9626213679930803 0.7344408527045856 0.5966173986840880	0.105833
C	0.7375970135873887 0.4299839388514632 0.6372349039419881	-0.183520
C	0.7344770143116539 0.5338708733628338 0.6315496382287994	0.111397
C	0.7184461875210431 0.0658410698125374 0.5853966124440644	-0.165732
C	0.7244512000479663 0.9621764802490916 0.5987155411494760	0.105938
C	0.0714656889228251 0.7563118736718835 0.8659991704753498	-0.178157
C	0.9677104446344095 0.7580192676994877 0.8703827972949247	0.108089
C	0.4375462281592655 0.7792894222455355 0.9159966295818992	-0.168143
C	0.5410070878021424 0.7739887980188525 0.8992372245435032	0.112299
C	0.7792021661871117 0.4375699884123521 0.9154952559081335	-0.171138
C	0.7740707057715928 0.5411288527177116 0.8989253633114639	0.112529
C	0.7600939611499834 0.0713082134922574 0.8637377066196512	-0.177440
C	0.7628487528997081 0.9674492224700056 0.8671044512823577	0.112762
C	0.6219569912185191 0.2355735976427099 0.2210398303250014	0.190314
C	0.8808205277280495 0.2621017592687577 0.2798960569362803	0.190384
C	0.2360824283655249 0.6218921550232771 0.2226726351453376	0.191755
C	0.2656946369511280 0.8809144502388567 0.2796166329143403	0.190493
C	0.3809204275096354 0.7599175360605873 0.7836753909233385	0.191131
C	0.1218802740830735 0.7422950311905903 0.7178928218744232	0.192159
C	0.7599964062110481 0.3807821736562748 0.7829948063045808	0.192724
C	0.7379336690723414 0.1216701936548291 0.7188574322043711	0.189911
H	0.6119833199244812 0.2760433204093986 0.4715726851604827	0.109485
H	0.4250641540756274 0.2826340004661461 0.4765209562286539	0.093135
H	0.9009099067706945 0.3086674107980336 0.5218380856969227	0.125577
H	0.0880596657412602 0.2971582233454893 0.4923006905055451	0.090314
H	0.2727855833562292 0.6125224126605699 0.4745047410966735	0.110148
H	0.2776873174186471 0.4254824663439835 0.4808434133808092	0.094143
H	0.3236343479165424 0.9010322136033917 0.5142560420143405	0.125537
H	0.3111434460856246 0.0885359256205651 0.4872654235037978	0.093411
H	0.8887291338625180 0.2195441385030401 0.0305123391484250	0.110149
H	0.0753987303251044 0.2103872350884677 0.0215617281032302	0.095036
H	0.6031820781592676 0.1895086266390328 0.9781674140812541	0.125055
H	0.4178449975732663 0.2049235461722370 -0.0005088345266815	0.098959
H	0.1936891142898623 0.6024997133606124 0.9780311744612885	0.125473
H	0.2080525312017559 0.4173108898857325 0.0002649075163294	0.098550
H	0.2122176827845945 0.8885389758497299 0.0367453160675593	0.111937
H	0.2036397940335716 0.0758581625421484 0.0292522106447546	0.094956
H	0.3887891357261503 0.7239427736470359 0.5309686694239233	0.106370
H	0.5755333633245505 0.7148678402883568 0.5220729316938338	0.094030
H	0.1028037218246557 0.7174190020022714 0.4659885730995293	0.124809
H	0.9178842974668767 0.7256903329889925 0.4919605294091196	0.096310
H	0.7254592115373691 0.3882727988203151 0.5301076007030593	0.106992
H	0.7171249330810262 0.5755046252090679 0.5213136592143698	0.094518
H	0.6993519149377249 0.1025725039347855 0.4723979566767494	0.125761
H	0.7110143781049072 0.9173306893306888 0.4954869593585837	0.097345
H	0.1117471217514181 0.7628179011253001 0.9759632763644768	0.105492
H	0.9255916118632506 0.7650408174702313 0.9836311253933294	0.096245
H	0.4010584561071819 0.7979796127079624 0.0297281054127251	0.124734
H	0.5881695431414747 0.7884185441496212 -0.0012008051345005	0.088620
H	0.7973954961626246 0.4011767177601344 0.0292458927259401	0.125520
H	0.7879335140570864 0.5885056851517136 -0.0013129470557441	0.088510
H	0.7716387332068173 0.1118243688782977 0.9722704220194943	0.106164
H	0.7764700674571158 0.9249786610889226 0.9778053614407629	0.094690
N	0.7757296439783222 0.2720975135521444 0.3009591364378292	-0.107965
N	0.2764107524828872 0.7756241833704653 0.2989913194759737	-0.110457
N	0.7270016084465591 0.2255936181033683 0.2013284339985250	-0.099843
N	0.2261043377472027 0.7270062015800336 0.2040784850775241	-0.098452
N	0.2268592809484749 0.7351617195656193 0.6950267890319826	-0.097198
N	0.7295785915132362 0.2268100242129700 0.6977438325115881	-0.097820
N	0.2757984433067058 0.7683326915345491 0.8074795731814807	-0.107072
N	0.7685906554346591 0.2756003741699571 0.8053852539175337	-0.107697
N	0.4142756604664902 0.2467026531928865 0.2382748917475338	-0.220059
N	0.0884908324423279 0.2527513227934005 0.2573408042570018	-0.217428
N	0.2456942015704242 0.4139293342775062 0.2408186892860656	-0.223639
N	0.2557529392501149 0.0887818505876721 0.2588876702096721	-0.217345
N	0.5885008784205525 0.7515326421538655 0.7601901934762095	-0.216329
N	0.9140855895670377 0.7481376527584002 0.7383484596162763	-0.219921
N	0.7524482111064968 0.5885992025672514 0.7597804997920854	-0.216987
N	0.7463008397913934 0.9137134390585369 0.7371691043429981	-0.220562
F	0.3875411105942052 0.1912395154243425 0.7395115169778904	-0.603367
F	0.2050085284351086 0.3924582450697037 0.7410156386161876	-0.601134
F	0.1333855442823399 0.1457624385247404 0.7787215796722687	-0.607761
F	0.6967204303438774 0.8913873836499708 0.2425913280409745	-0.599128
F	0.8919869421465264 0.7047115811702035 0.2394116135309290	-0.595169
F	0.6413781686875725 0.6397995317372330 0.2712941662841665	-0.606981
F	0.2512798842789091 0.2506828568352523 0.4964100207955437	-0.561013
F	0.2508688406052585 0.2501792326264401 0.0027618064844052	-0.558236
F	0.7495074624150493 0.7488125609256974 0.5024730102861376	-0.556520
F	0.7521502160545479 0.7524245053880361 -0.0039452230982740	-0.557492
In	0.2451058869498315 0.2454115700893327 0.7505823412164389	1.550513
In	0.7458497093569185 0.7470897520163708 0.2498705931057204	1.547124
Zn	0.2516922874959914 0.2517634554352590 0.2480359967116892	0.732558
Zn	0.7517246717503293 0.7515113801405398 0.7479639457146497	0.731354
	  	
