#======================================================================

# CRYSTAL DATA

#----------------------------------------------------------------------

data_VESTA_phase_1


_pd_phase_name                         InFFIVE_1_Cu
_cell_length_a                         11.12881
_cell_length_b                         11.12892
_cell_length_c                         8.57385
_cell_angle_alpha                      90.29400
_cell_angle_beta                       89.70477
_cell_angle_gamma                      89.99619
_symmetry_space_group_name_H-M         P 1
_symmetry_Int_Tables_number            1

loop_
_symmetry_equiv_pos_as_xyz
   x, y, z

loop_
   _atom_site_label
   _atom_site_fract_x
   _atom_site_fract_y
   _atom_site_fract_z
   _atom_site_charge
C	0.2564891643429006 0.4589652570308944 0.3732045068407263	0.101797
C	0.1316020461274628 0.4589119808325671 0.3691612130180534	-0.168166
C	0.7448667254423471 0.5386437753821182 0.3751411781934940	0.105315
C	0.8696194086553072 0.5398117205165019 0.3702295218274326	-0.167375
C	0.5402858837227916 0.2560236840574074 0.3763525528455273	0.101846
C	0.5407736734461603 0.1312414044088254 0.3709334532054386	-0.166744
C	0.4610518360104983 0.7443676602613093 0.3734362137204478	0.099756
C	0.4602988253823257 0.8692132713158988 0.3696832267085037	-0.167331
C	0.7443646752806516 0.4610477861289733 0.6265674099268557	0.099939
C	0.8692124758554259 0.4602989424642840 0.6303237514318538	-0.167301
C	0.2560236565105644 0.5402837567310118 0.6236462652303921	0.101897
C	0.1312423707237904 0.5407726718726634 0.6290690821765081	-0.166777
C	0.4589646463020894 0.2564852525403470 0.6267959538944882	0.101716
C	0.4589117842501813 0.1316008006888174 0.6308413683202941	-0.167987
C	0.5386459336769798 0.7448655542674343 0.6248656562542411	0.105310
C	0.5398109174587258 0.8696189672684810 0.6297759198702095	-0.167460
C	0.0665978204791772 0.4999555912419296 0.4993528155115328	0.100807
C	0.9342055520858652 0.5000670972169846 0.5000243109669776	0.099981
C	0.4999565353944393 0.0665977383797644 0.5006476037732290	0.100789
C	0.5000655583670965 0.9342070114091445 0.4999788670651921	0.100055
H	0.3103027643620482 0.4267604011002464 0.2748002100672439	0.103162
H	0.0857957102424698 0.4247163815504512 0.2660054370475342	0.127371
H	0.6909645419208341 0.5667773274428679 0.2762021218221296	0.099833
H	0.9155520052067757 0.5728427193044309 0.2664382003410786	0.124222
H	0.5718536226893206 0.3103168720197213 0.2789814510915185	0.100418
H	0.5747387591715323 0.0852384385375590 0.2672699279380431	0.123985
H	0.4324437898057685 0.6909704065966339 0.2733738896473169	0.104909
H	0.4269966615697206 0.9148055441457087 0.2662735686438643	0.127155
H	0.6909650638530782 0.4324350954482040 0.7266303360483951	0.104799
H	0.9148011634696982 0.4269946636842883 0.7337320092507388	0.127114
H	0.3103165184134232 0.5718490135832884 0.7210173847900230	0.100390
H	0.0852364954257302 0.5747365358728265 0.7327296327923004	0.124008
H	0.4267564817895139 0.3102993748238658 0.7252002455708437	0.103114
H	0.4247186138145577 0.0857913539211219 0.7339979023860965	0.127277
H	0.5667770123406797 0.6909655671938110 0.7238016709113100	0.099825
H	0.5728392540223795 0.9155489002265278 0.7335657731496086	0.124249
Cu	0.5003364186682959 0.5003353901296907 0.5000082613615696	0.723016
In	0.4990714137991480 0.4990765255312264 0.0000034934281238	1.554701
F	0.5002059754280197 0.5005616706298407 0.7559446070502986	-0.597597
F	0.5005535806628395 0.5001770871808336 0.2440602166946815	-0.597608
F	0.3692622536405410 0.3693463540594730 -0.0000127600179249	-0.631214
F	0.6762187050965445 0.4502098892652137 -0.0007552879926700	-0.630842
F	0.4502946223303596 0.6762568069213624 0.0006945525439663	-0.630816
N	0.3172179000396215 0.4997084875765836 0.4982722215158078	-0.219730
N	0.6836105117968186 0.4998797301036250 0.5009673610982448	-0.226108
N	0.4997081611551333 0.3172168239494255 0.5017292703688339	-0.219666
N	0.4998825277703494 0.6836127761858029 0.4990375916696236	-0.226035
	  	
