#======================================================================

# CRYSTAL DATA

#----------------------------------------------------------------------

data_VESTA_phase_1


_pd_phase_name                         InFFIVE_4_Zn_i
_cell_length_a                         23.81898
_cell_length_b                         20.69221
_cell_length_c                         9.51911
_cell_angle_alpha                      89.99931
_cell_angle_beta                       90.00014
_cell_angle_gamma                      90.00165
_symmetry_space_group_name_H-M         P 1
_symmetry_Int_Tables_number            1

loop_
_symmetry_equiv_pos_as_xyz
   x, y, z

loop_
   _atom_site_label
   _atom_site_fract_x
   _atom_site_fract_y
   _atom_site_fract_z
   _atom_site_charge
C	0.4149217963540077 0.5958176989202802 0.6296499248020739	0.104919
C	0.3717348705849757 0.5508510965628094 0.6274117589598499	-0.169446
C	0.2772560801845920 0.4492182121696807 0.6267460920647067	-0.119140
C	0.2318744690629108 0.4071627303182726 0.6256303389521457	-0.113313
C	0.1319733208016334 0.3213016496183064 0.6243989078094559	-0.170376
C	0.0858110242204070 0.2803479851928060 0.6281721540480965	0.099035
C	0.9149536388933742 0.0957674523839823 0.6296548804984177	0.105145
C	0.8717546761665641 0.0508204257939474 0.6274170453963976	-0.169486
C	0.7772414701983359 0.9492197299163693 0.6267444527307169	-0.119300
C	0.7318575034925389 0.9071649177436230 0.6256333098843803	-0.112935
C	0.6319339154297158 0.8213407147784113 0.6244027846087076	-0.170395
C	0.5857621543326026 0.7803997262292405 0.6281773081785117	0.099210
C	0.5855239642766056 0.4034688969169986 0.1297563572462464	0.103233
C	0.6285221369167356 0.4487087146904780 0.1273621082550212	-0.175363
C	0.7230701886698647 0.5502346876143471 0.1267994782603099	-0.115662
C	0.7683329509153022 0.5924851856754233 0.1256078393271412	-0.113022
C	0.8677759887692645 0.6788176032972932 0.1243477933617693	-0.169736
C	0.9138811374052638 0.7198672625258290 0.1279682247538068	0.097308
C	0.0854467334188751 0.9035433914764784 0.1297806078819994	0.103832
C	0.1284717123871674 0.9487549799529793 0.1273657778555072	-0.176128
C	0.2230880847520270 0.0502280192667860 0.1268012987825783	-0.115700
C	0.2683535372325828 0.0924771670809921 0.1256148792942809	-0.112932
C	0.3678402228354199 0.1787703718941302 0.1243446692361633	-0.169681
C	0.4139551327933206 0.2198114978706155 0.1279549102162636	0.097164
C	0.5858359817013050 0.5964032393589785 0.8703195908064393	0.105957
C	0.6286836602643170 0.5509606901926041 0.8726402275620629	-0.175675
C	0.7230596182060549 0.4491970919190031 0.8732363349449301	-0.118022
C	0.7683817376019971 0.4070748793594836 0.8743772218598216	-0.111764
C	0.8685094839322735 0.3217521668659295 0.8756140253083354	-0.170476
C	0.9147751571885110 0.2809456847939441 0.8719712481043397	0.098939
C	0.0858245090774834 0.0964364704003417 0.8703147932808416	0.105986
C	0.1286771363308086 0.0510010821204718 0.8726422653621869	-0.175325
C	0.2230328051492671 0.9491910154083883 0.8732343505603029	-0.118346
C	0.2683630304264866 0.9070757903275805 0.8743706077415996	-0.111276
C	0.3685314563114956 0.8217811999084307 0.8756199295672381	-0.170384
C	0.4148011608611990 0.7809751734650298 0.8719670312240360	0.098454
C	0.4153731037703816 0.4046077481086641 0.3702988104594214	0.103632
C	0.3719950853168562 0.4493252365892522 0.3725917415699265	-0.172072
C	0.2770270654178034 0.5501505857929783 0.3732302744244462	-0.117731
C	0.2317688931352674 0.5924017356941669 0.3743934313929426	-0.114306
C	0.1326805514697246 0.6794274043989765 0.3756142779271756	-0.171096
C	0.0865370258495593 0.7204152619594036 0.3719257590844865	0.097317
C	0.9153442755080043 0.9045841244539545 0.3703041730976938	0.104023
C	0.8719699960794370 0.9493044092443262 0.3725936470090413	-0.171777
C	0.7770374739633196 0.0501500673665747 0.3732301175928600	-0.117874
C	0.7317797359780672 0.0924017686963519 0.3743962732446174	-0.114121
C	0.6326800135657532 0.1794132908464492 0.3756112890515594	-0.171229
C	0.5865306222570875 0.2203877353102855 0.3719091014977759	0.097747
C	0.5855192349400035 0.4034653807965337 0.3702280865493344	0.103370
C	0.6285167111268509 0.4487064690446829 0.3726344918162423	-0.175132
C	0.7230694673230444 0.5502352123186892 0.3732070391444507	-0.115712
C	0.7683324214984619 0.5924852579182232 0.3743995797440673	-0.113130
C	0.8677753428642384 0.6788173706773307 0.3756570777664515	-0.169784
C	0.9138811036502731 0.7198660518280772 0.3720417787548150	0.097282
C	0.0854461282954694 0.9035449951764789 0.3702303310353651	0.103866
C	0.1284708044351910 0.9487567355268360 0.3726431185507937	-0.176134
C	0.2230871942349982 0.0502292603209438 0.3732034866425914	-0.115727
C	0.2683529262767449 0.0924783442361942 0.3743885762325199	-0.113020
C	0.3678436371671712 0.1787741909739646 0.3756467851278349	-0.169805
C	0.4139592435915455 0.2198151059165521 0.3720183232290946	0.097218
C	0.4149174452243479 0.5958152015930351 0.8703656629966066	0.104945
C	0.3717308782858382 0.5508492835894327 0.8725950645485078	-0.169641
C	0.2772546791573334 0.4492184302350407 0.8732536921767533	-0.119066
C	0.2318738764690591 0.4071629110014651 0.8743697422436010	-0.113371
C	0.1319743897219491 0.3213033482244752 0.8756037778473530	-0.170408
C	0.0858117958228480 0.2803505039427604 0.8718350182504517	0.099219
C	0.9149505269722142 0.0957647191439701 0.8703533427852214	0.105134
C	0.8717515329268010 0.0508181099881336 0.8725865318740975	-0.169487
C	0.7772404187967338 0.9492213814008564 0.8732566399682130	-0.119336
C	0.7318569602492164 0.9071658872624289 0.8743681646812317	-0.112920
C	0.6319366484945623 0.8213431416959189 0.8756033873914404	-0.170225
C	0.5857650295198261 0.7804025455903437 0.8718370983934129	0.099052
C	0.4153683084637752 0.4046111291674098 0.1296912184095361	0.103674
C	0.3719904782610763 0.4493280112821101 0.1274116102272367	-0.172128
C	0.2770265493007669 0.5501504925275603 0.1267737528001854	-0.117639
C	0.2317678248808855 0.5924011621042202 0.1256100400749814	-0.114412
C	0.1326788995368158 0.6794293038824062 0.1243876700617701	-0.171163
C	0.0865354318512326 0.7204170038483690 0.1280805590777730	0.097338
C	0.9153444177604637 0.9045822840965236 0.1297080427942395	0.103968
C	0.8719700890479151 0.9493027192951757 0.1274114210823074	-0.171777
C	0.7770359203577772 0.0501514740985799 0.1267725961529624	-0.117846
C	0.7317786337701508 0.0924031819269516 0.1256123650650761	-0.114252
C	0.6326839789178720 0.1794104650714997 0.1243844996285041	-0.171410
C	0.5865346319257716 0.2203848191452792 0.1280781966268448	0.098045
C	0.5858322076092939 0.5964074727693874 0.6296838236746300	0.105909
C	0.6286810097693476 0.5509643270231979 0.6273550610980545	-0.175689
C	0.7230584664943092 0.4491962358000831 0.6267613245825525	-0.117968
C	0.7683810547057086 0.4070747408445750 0.6256211881918438	-0.111737
C	0.8685100674493976 0.3217506682732832 0.6243903988344274	-0.170590
C	0.9147757839917574 0.2809431577087020 0.6280352718284361	0.099040
C	0.0858212966934944 0.0964390577307226 0.6296905903834004	0.106070
C	0.1286748939970488 0.0510038586683319 0.6273593374015867	-0.175375
C	0.2230325166387866 0.9491919919391669 0.6267683195829243	-0.118443
C	0.2683627824966358 0.9070768635452438 0.6256318012456099	-0.111157
C	0.3685327480887982 0.8217785359322944 0.6243902846709622	-0.170500
C	0.4148022632800623 0.7809723859820263 0.6280505214443178	0.098696
C	0.3478394142270954 0.5243487734873467 0.7500017427090365	0.114069
C	0.3014981649272354 0.4748218955953108 0.7500000420866264	0.070142
C	0.2064900144020765 0.3856804169463434 0.7499990094958526	0.064580
C	0.1568814682760745 0.3427760154506470 0.7500000251598911	0.104140
C	0.8478415973962929 0.0243368787704393 0.7500000676870877	0.113051
C	0.8014856876592285 0.9748224151207681 0.7499993894993300	0.070143
C	0.7064711793826217 0.8856882231880535 0.7500010456648433	0.064372
C	0.6568576274045843 0.8427969200004392 0.7500013546203862	0.104111
C	0.6523792095581479 0.4753133115667388 0.2500015094987815	0.114947
C	0.6987707058680203 0.5247323087730353 0.2500035538690781	0.069632
C	0.7935688467525231 0.6140962155987852 0.2500032239516682	0.067780
C	0.8430212287188199 0.6572131245777361 0.2500042329612490	0.101570
C	0.1523628834299227 0.9753294134650358 0.2500035776292101	0.115350
C	0.1987776819006118 0.0247327010946533 0.2500026203526687	0.069067
C	0.2935987871617485 0.1140878396687074 0.2500018077080635	0.068422
C	0.3430691709428713 0.1571897161419339 0.2499993683070664	0.100557
C	0.6524511853175101 0.5242638478156739 0.7499965643790756	0.109860
C	0.6987714732366915 0.4747095369441052 0.7499987537228577	0.066941
C	0.7937210821184376 0.3855877951391424 0.7499992232160571	0.069231
C	0.8434360675633953 0.3428995892664893 0.7500003827406543	0.102937
C	0.1524374816511073 0.0242934000799277 0.7499989340281593	0.109857
C	0.1987483464162792 0.9747189591019805 0.7500008933943425	0.066467
C	0.2937188026928949 0.8855985757273453 0.7500010269865180	0.068628
C	0.3434497009023647 0.8429206335519293 0.7500025454810882	0.103119
C	0.3478932304860748 0.4755433363454744 0.2500041342846914	0.119890
C	0.3013347630516253 0.5246869819268003 0.2500028981783867	0.072256
C	0.2065867976865504 0.6141537049376395 0.2500007215033808	0.064168
C	0.1573142869900944 0.6575683878947841 0.2500008247767241	0.104237
C	0.8478799472634030 0.9755229822764071 0.2500007388614663	0.119313
C	0.8013401909286045 0.0246832459385994 0.2500006578379296	0.072504
C	0.7065973549505286 0.1141543292990670 0.2500050864013789	0.064161
C	0.6573186054755241 0.1575581943970834 0.2500024861222150	0.104306
H	0.4325894205120016 0.6145350288883192 0.5318636666400176	0.099780
H	0.3587279449535059 0.5382706453035216 0.5229776520090652	0.104890
H	0.2932898193128364 0.4608639566120745 0.5243711961899846	0.087286
H	0.2165340805507057 0.3913096207848010 0.5235280567102707	0.103108
H	0.1482847610723742 0.3356842619798133 0.5222807908618222	0.116493
H	0.0657177087148294 0.2621289243728310 0.5328770265612838	0.100668
H	0.9326372966203283 0.1144717629512019 0.5318838273741021	0.099898
H	0.8587453607788134 0.0382447383559361 0.5229829955050768	0.105025
H	0.7932691414954519 0.9608639279573564 0.5243683117371363	0.087416
H	0.7165250308564610 0.8913001365884919 0.5235356741556438	0.103047
H	0.6482364640716932 0.8357345853606717 0.5222843356572947	0.116519
H	0.5656475969216820 0.7622000768868225 0.5328922479383943	0.100573
H	0.5677575901116286 0.3839435949483331 0.0328678503254870	0.102075
H	0.6417367889752522 0.4614622500776571 0.0231986897913340	0.102799
H	0.7072564832483580 0.5384616536499870 0.0243388447351433	0.086926
H	0.7836739320834269 0.6082977871662069 0.0235064674593606	0.104735
H	0.8516173226867101 0.6646430686459756 0.0219641892448559	0.119912
H	0.9333769786053993 0.7379043905893752 0.0316818836538827	0.101860
H	0.0676195550797913 0.8840862357513349 0.0329032146635567	0.101957
H	0.1416671745285339 0.9615312024090564 0.0231962136827509	0.103062
H	0.2072833160517597 0.0384452651452767 0.0243379560999560	0.086832
H	0.2836920742802889 0.1082825449729640 0.0235098524183827	0.104778
H	0.3516991267061955 0.1645715651756835 0.0219601827534727	0.120039
H	0.4334859325964937 0.2377799885903242 0.0316476488286416	0.102024
H	0.5686163272556509 0.6159729006619858 -0.0321649838944372	0.102955
H	0.6419032380082959 0.5384305852303529 -0.0230413155029131	0.105086
H	0.7073105042594731 0.4611169689325568 -0.0243127730668794	0.086352
H	0.7837541191591691 0.3912800059509102 -0.0235423522344583	0.104075
H	0.8525278855667273 0.3363775583632390 -0.0221435867555718	0.118592
H	0.9350299685296275 0.2636373873526096 -0.0320967315321276	0.102019
H	0.0686046502937665 0.1160462586996796 -0.0322092393612516	0.102883
H	0.1419268173729228 0.0384985134693522 -0.0230412373943835	0.104828
H	0.2072728763525011 0.9610934386333732 -0.0243141338642770	0.086384
H	0.2837293118471629 0.8912740585485458 -0.0235501935392189	0.104047
H	0.3525544613671525 0.8364070122855153 -0.0221333403654810	0.118618
H	0.4350724961484043 0.7636704886039118 -0.0321189196219498	0.102248
H	0.4336360103352943 0.3861886988651059 0.4676170238089761	0.100931
H	0.3590925183733702 0.4622408626138264 0.4768944977954832	0.103644
H	0.2929782694247888 0.5383930778015258 0.4755953451289219	0.086963
H	0.2164325029444209 0.6082053461997812 0.4765022714579817	0.103742
H	0.1491552131439715 0.6655040389836828 0.4778369196753778	0.118410
H	0.0671308976506053 0.7390204989842742 0.4677823046638659	0.101508
H	0.9336135660708683 0.8861325960930870 0.4675794740644362	0.100995
H	0.8590522449217457 0.9622287068725101 0.4768771577294512	0.103378
H	0.7929906644695626 0.0383910555180922 0.4755933855682322	0.086832
H	0.7164485435820367 0.1082162024300318 0.4765048220538872	0.103670
H	0.6491648114953700 0.1654903024137473 0.4778298797721853	0.118261
H	0.5670976901193865 0.2390113449617312 0.4677064994275554	0.101376
H	0.5677504918498230 0.3839392802506300 0.4671134221428688	0.102064
H	0.6417293959823538 0.4614605217015477 0.4768019514820828	0.102666
H	0.7072553803960483 0.5384619627258859 0.4756674806022382	0.086991
H	0.7836732448652002 0.6082978667534502 0.4764993131850742	0.104741
H	0.8516139729042312 0.6646420698453979 0.4780405595968935	0.119911
H	0.9333743388984089 0.7379026760943108 0.4683309257824836	0.101922
H	0.0676184394033141 0.8840890699000454 0.4671088582150043	0.101935
H	0.1416651581935885 0.9615346754251003 0.4768116547662773	0.103044
H	0.2072818399937605 0.0384481172748183 0.4756671387228819	0.086873
H	0.2836909947279882 0.1082845689630906 0.4764926676256182	0.104775
H	0.3517046289033559 0.1645752764009314 0.4780361640803986	0.120032
H	0.4334925671344362 0.2377883422619178 0.4683185975747841	0.101927
H	0.4325828619003305 0.6145294729262741 -0.0318442279346672	0.099855
H	0.3587225446833749 0.5382693503080628 -0.0229716902059965	0.105130
H	0.2932878242822962 0.4608642936880182 -0.0243711123075889	0.087302
H	0.2165334981571439 0.3913092825402624 -0.0235282590084645	0.103120
H	0.1482863295166459 0.3356854311405509 -0.0222791070916546	0.116534
H	0.0657196659289189 0.2621323016303873 -0.0328675661881471	0.100572
H	0.9326337552851740 0.1144681269278174 -0.0318752458698486	0.099925
H	0.8587405536684368 0.0382425720297309 -0.0229793650864545	0.105005
H	0.7932675903510046 0.9608664745667411 -0.0243672460574994	0.087406
H	0.7165241101821572 0.8913020993106853 -0.0235327238857051	0.103036
H	0.6482384274849862 0.8357380782718439 -0.0222802586358620	0.116472
H	0.5656523955170790 0.7622058424865280 -0.0328745039555907	0.100557
H	0.4336271668300008 0.3861951701525337 0.0323672455454835	0.100982
H	0.3590842317612195 0.4622449074965074 0.0231118855001620	0.103659
H	0.2929758757155374 0.5383913393997333 0.0244087876187760	0.086948
H	0.2164304898619410 0.6082038709272517 0.0234999558869542	0.103758
H	0.1491518010909943 0.6655079469565178 0.0221630517495150	0.118446
H	0.0671272366072448 0.7390242493374397 0.0322273158640050	0.101541
H	0.9336135091911961 0.8861296686905529 0.0324347235243196	0.101064
H	0.8590525448172142 0.9622258559920978 0.0231256852887790	0.103368
H	0.7929877942990943 0.0383937667872520 0.0244076520564669	0.086854
H	0.7164464809291520 0.1082186469411504 0.0235037723988375	0.103717
H	0.6491695531780725 0.1654874205458461 0.0221695668340382	0.118332
H	0.5671030899775603 0.2390071557778354 0.0322735395922472	0.101360
H	0.5686101694046580 0.6159805252268427 0.5321722763958527	0.102920
H	0.6418993838495290 0.5384352763270333 0.5230363100366567	0.105091
H	0.7073068150389638 0.4611163151942693 0.5243127877890295	0.086283
H	0.7837526133708335 0.3912808517391034 0.5235403243518277	0.104046
H	0.8525283689222616 0.3363762344794940 0.5221469096849984	0.118592
H	0.9350311777211026 0.2636338096910046 0.5321052952600055	0.102054
H	0.0685991730690090 0.1160506808075058 0.5322180766871994	0.102872
H	0.1419229351006998 0.0385025843511943 0.5230409983903808	0.104801
H	0.2072717664577985 0.9610947610862345 0.5243176675793167	0.086392
H	0.2837290127327821 0.8912761539930705 0.5235527440080395	0.104011
H	0.3525559961805206 0.8364039943199995 0.5221410604947034	0.118601
H	0.4350751392482858 0.7636615915637369 0.5321438016135479	0.102222
Zn	0.4998639603773415 0.6887330082883579 0.7501207931923214	0.733870
Zn	-0.0001676018160393 0.1887833723100723 0.7500666080239817	0.734013
Zn	0.4998173391555215 0.3107866317906227 0.2498846151515874	0.734226
Zn	-0.0002168150427048 0.8107310127629122 0.2500270016035047	0.734729
F	0.4999262701874556 0.6868135019944636 0.4855990303822772	-0.612615
F	-0.0002539452321937 0.1868705897821039 0.4857696076044248	-0.612463
F	0.4995792904919741 0.3130035642426804 -0.0138607592340825	-0.612230
F	-0.0005432349888573 0.8129185860021948 -0.0140210410868618	-0.612477
F	0.4999294400580345 0.6867728453334402 0.0141773007156825	-0.612415
F	-0.0002639665774184 0.1868756640666286 0.0141299420829211	-0.612410
F	0.4995662788054724 0.3130111770728124 0.5139061750288888	-0.612259
F	-0.0005450908100019 0.8129206440142354 0.5139963123011217	-0.612448
F	0.4729099772159125 0.7763077751293128 0.2498571932222315	-0.622656
F	0.5783427415817862 0.6528210543664863 0.2499192625623368	-0.616633
F	0.9715354924126348 0.2758835595982406 0.2499698359805118	-0.622565
F	0.0787370791658458 0.1551799673681038 0.2499257237663616	-0.616982
F	0.5799112059062544 0.2937990118241818 0.7500095253470870	-0.621320
F	0.4711586900599971 0.4085489862540285 0.7500803548430824	-0.613366
F	0.0792257924934191 0.7904514404942112 0.7500044572040988	-0.621731
F	0.9738179715678915 0.9090619387127040 0.7499680137442217	-0.613832
F	0.4377010059904436 0.6137803058118440 0.2499369163695911	-0.610530
F	0.9383765655682688 0.1128032453067829 0.2499998540416137	-0.609881
F	0.4362544445205834 0.2474683273294387 0.7502057998933914	-0.621083
F	0.9341759317335991 0.7496892428212674 0.7500092900854307	-0.621430
N	0.4369623458724419 0.6182075742162864 0.7500105664967349	-0.217133
N	0.5632200059640692 0.7599122768182437 0.7500107575277372	-0.227200
N	0.9370010783786470 0.1181546992882169 0.7500069010013358	-0.217382
N	0.0632601804339428 0.2598739899435231 0.7500056343990135	-0.227172
N	0.5634696106164255 0.3810893685707285 0.2499865622241331	-0.217351
N	0.4365434136489770 0.2402349725373936 0.2499814461212537	-0.230421
N	0.0633959230180154 0.8811595129584519 0.2500064735483154	-0.217631
N	0.9364772650551313 0.7402628974160000 0.2500042694481777	-0.231445
N	0.5638097305233696 0.6188397237113388 0.7500047340979248	-0.219132
N	0.4372248493679445 0.7603276497485288 0.7500120924335437	-0.228905
N	0.0637872134004752 0.1188626451391465 0.7500054506637379	-0.218812
N	0.9372020600045816 0.2603030750535574 0.7500058653003274	-0.229500
N	0.4374070320599465 0.3821745403716605 0.2499905397139426	-0.220362
N	0.5637290532601378 0.2405350003039861 0.2499873484313909	-0.229211
N	0.9373848826779844 0.8821589176545799 0.2500075630106808	-0.220292
N	0.0637352760054722 0.7405707779462665 0.2500038672155088	-0.229251
In	0.4976415819760351 0.6830626937371997 0.2499780237918332	1.551617
In	-0.0025441578304778 0.1830996547092455 0.2499990018618792	1.551498
In	0.4971923131272821 0.3155780100055198 0.7500001643688972	1.553465
In	-0.0027943739876055 0.8152558697258357 0.7499987049222748	1.554433
	  	
