#======================================================================

# CRYSTAL DATA

#----------------------------------------------------------------------

data_VESTA_phase_1


_pd_phase_name                         InFFIVE_13_Ni_i
_cell_length_a                         15.29932
_cell_length_b                         15.29813
_cell_length_c                         8.15445
_cell_angle_alpha                      91.03882
_cell_angle_beta                       88.99503
_cell_angle_gamma                      90.00291
_symmetry_space_group_name_H-M         P 1
_symmetry_Int_Tables_number            1

loop_
_symmetry_equiv_pos_as_xyz
   x, y, z

loop_
   _atom_site_label
   _atom_site_fract_x
   _atom_site_fract_y
   _atom_site_fract_z
   _atom_site_charge
C	0.5437935181469025 0.6838507826909261 0.8811036041755370	0.109040
C	0.5472579101011992 0.7747162449860187 0.8792288260915913	-0.147904
C	0.4588654314440063 0.3184950137991635 0.8863836671942882	0.105833
C	0.4558277038636365 0.2275668713637646 0.8867343261474372	-0.142115
C	0.8193403450719063 0.9675681824944419 0.3675292965086068	0.106101
C	0.7285617173027971 0.9662063862999575 0.3629777582024742	-0.136281
C	0.3206716500120867 0.5471668049746696 0.8802271472033042	0.103423
C	0.2297714253745706 0.5510262967102909 0.8775134039853565	-0.148642
C	0.1851891399595703 0.9770635522500766 0.3627743398554444	0.096329
C	0.2759816343353613 0.9749148300103914 0.3601070529800884	-0.137545
C	0.6848200680955111 0.4611567840706329 0.8820536871148025	0.107169
C	0.7757272891868571 0.4580212407628407 0.8808782313112639	-0.141700
C	0.4562860923706171 0.6857772272349753 0.1163911010673176	0.105975
C	0.4527741747977777 0.7766712602551895 0.1187798227239266	-0.139324
C	0.5457080737335990 0.3227791872591965 0.1171303471359505	0.105097
C	0.5493069537978320 0.2319486610207828 0.1216154089906974	-0.148386
C	0.1811000182629746 0.0179330292848580 0.6382563988473074	0.110548
C	0.2717594932640802 0.0189243249214559 0.6458465882028804	-0.135925
C	0.6815899011277569 0.5459223782912453 0.1209093237672317	0.111420
C	0.7724139891846711 0.5497365811771247 0.1242580165713039	-0.149083
C	0.8170548565961373 0.0295429353252851 0.6294180445582394	0.104667
C	0.7262998308600277 0.0307402055136786 0.6356520207478907	-0.137850
C	0.3172608628785159 0.4574101191606306 0.1068408332926161	0.104740
C	0.2263746783816322 0.4544441017625687 0.1078260298254229	-0.140782
C	0.9647716977832012 0.8175092363912555 0.6284185575940191	0.106250
C	0.9633319896926904 0.7267399880689882 0.6327360313715038	-0.136573
C	0.9839704373380828 0.1831518469946361 0.6402136682411457	0.094807
C	0.9824633585255932 0.2739523409001058 0.6442833301672235	-0.138516
C	0.0254329567521990 0.8152482622803074 0.3656258310420755	0.105307
C	0.0265586213741783 0.7244648666731806 0.3591579244903737	-0.137806
C	0.0238416014900406 0.1797054472166611 0.3642531359189932	0.112023
C	0.0254862082153411 0.2704001708441778 0.3580836310712363	-0.137354
C	0.0035974651655163 0.3186525304094029 0.5006093313068162	0.041954
C	0.0020807741437352 0.4143648974947603 0.4994230896817023	0.258067
C	0.4999583458438028 0.8221804498245953 0.9990975161990996	0.057694
C	0.5007237878681482 0.9187248954391688 0.0019742112209148	0.248729
C	0.9954658205840986 0.6791267312197097 0.4960543851272608	0.039735
C	0.9975275696132656 0.5832377820115618 0.4968652850233541	0.248808
C	0.5025342427664136 0.1833155039393134 0.0056604204578051	0.057541
C	0.5020765742810674 0.0868336983594072 0.0078095297683213	0.249553
C	0.6809683636582337 -0.0017203949758460 0.4996658911187080	0.039758
C	0.5850501017936922 0.9970867996787286 0.5019554306456077	0.247843
C	0.1816167172853067 0.5029886504098112 0.9921317452435814	0.057254
C	0.0851656894712930 0.5035321067576690 0.9939253299828171	0.248670
C	0.3203364368881894 0.9965987324753143 0.5040096791808361	0.040345
C	0.4160687446849755 0.9961471411467723 0.5049841100388017	0.258587
C	0.8205233836387296 0.5038346923451310 0.0033782618831970	0.058260
C	0.9170867108124308 0.5039506727202553 0.0024889915646679	0.249808
H	0.5763387360379779 0.6437964234950317 0.7866005432408646	0.096082
H	0.5851874244705423 0.8078824568693205 0.7847650365779232	0.122171
H	0.4267653017183955 0.3554444867119492 0.7911534162177148	0.100839
H	0.4199866851235058 0.1915507035907627 0.7931844559277258	0.120100
H	0.8583253045907647 0.9425973593110136 0.2636033227802075	0.096094
H	0.6958341063007613 0.9409168192929470 0.2545276511992863	0.122240
H	0.3610466535863833 0.5808947952354111 0.7894495291342966	0.098882
H	0.1971975042019790 0.5899674009254969 0.7862191016307418	0.124793
H	0.1496139762400265 0.9629655450772124 0.2505716629547019	0.099461
H	0.3108025261283780 0.9576307239311782 0.2465239896761244	0.116369
H	0.6473633522640153 0.4308601807588939 0.7836317173107640	0.103969
H	0.8114264898701360 0.4230363110070061 0.7834414195231779	0.119505
H	0.4250551846405328 0.6478046104345431 0.2130295264299505	0.104749
H	0.4167052568750433 0.8118016136611405 0.2154559245012239	0.118346
H	0.5782262637675254 0.3636078698511692 0.2088153383161707	0.097748
H	0.5867349089719948 0.1997702155398372 0.2155768561424952	0.124544
H	0.1411034718780954 0.0323408406407035 0.7468702188159593	0.093719
H	0.3035563420728578 0.0355045655100626 0.7606931365734438	0.120273
H	0.6411864519868479 0.5770136314358504 0.2165774443963623	0.095838
H	0.8048960625360819 0.5866577719180436 0.2210300473323366	0.123060
H	0.8550871704786844 0.0528127122931643 0.7330311814638206	0.090510
H	0.6916510633196402 0.0553315625541630 0.7447514838303194	0.120311
H	0.3546983007957986 0.4243272692523365 0.2001177276296553	0.101027
H	0.1906483259286603 0.4176524229159771 0.2003334938580853	0.118538
H	0.9406725995114638 0.8565220206088592 0.7330195941033700	0.096855
H	0.9386340562656531 0.6940056047053681 0.7415589688225016	0.121555
H	0.9696491339499197 0.1472890105920133 0.7519265537687930	0.098256
H	0.9656171298296341 0.3084284164399145 0.7584208603014223	0.118864
H	0.0484079057271720 0.8533190082448056 0.2619221728242737	0.089826
H	0.0507831000876035 0.6899842838570970 0.2495977822962483	0.119646
H	0.0373649628060024 0.1398797393833116 0.2549790200162590	0.094600
H	0.0416288799151257 0.3026665935935781 0.2435113277270078	0.120839
N	0.9539318732279827 0.5422926725703017 0.6191775495558111	-0.132400
N	0.4234104974980917 0.0466128613768305 0.0109375020690549	-0.149678
N	0.5427685003549323 0.0412838510957800 0.6245703859836151	-0.134051
N	0.9577370142176517 0.4255115727900119 -0.0001284934498796	-0.143203
N	0.0439405850675758 0.5412568460031734 0.3767616793817135	-0.135064
N	0.5800377458663707 0.0454274156090324 0.0074184048727149	-0.150873
N	0.9580662555835360 0.5821418376181658 0.0020654133915203	-0.149196
N	0.5443744056596973 0.9505192636536691 0.3830044726037113	-0.132895
N	0.0469173455217325 0.4552710587125470 0.3789120450064238	-0.131027
N	0.5793288861918804 0.9589753847488589 0.0003639454865744	-0.147603
N	0.4584525936890452 0.9497975453425267 0.3850989175473815	-0.127732
N	0.0444771535854805 0.5819110557496709 0.9939158840293171	-0.150055
N	0.9556733675373185 0.4563938090806422 0.6196710731290422	-0.130177
N	0.4228055475728311 0.9602370907304386 0.0111855553618833	-0.141880
N	0.0441366394697526 0.4253297357316303 0.9984790381688582	-0.149092
N	0.4566925263106875 0.0411390700747929 0.6257283780105223	-0.134265
N	0.0034497443465728 0.1365996614529709 0.5024483999352829	-0.223833
N	0.5000863603781032 0.6401668393069863 0.9984176479073368	-0.232589
N	0.9959761126168181 0.8611602882524910 0.4977076864978213	-0.219228
N	0.5019184634513622 0.3651880207814716 0.0009037265989618	-0.230968
N	0.8629274714985787 -0.0011017374129215 0.4982455256856190	-0.218600
N	0.3635398592654236 0.5019992282059872 0.9939345089869326	-0.227794
N	0.1383068499540845 0.9975968038976454 0.4996318349405342	-0.223323
N	0.6385680551413715 0.5033454238773516 0.0011968939421418	-0.234580
Ni	0.0003078823556596 0.9987263884528802 0.4997804086995963	0.747984
Ni	0.5008167049764978 0.5024844779671362 0.9987662060421317	0.756893
In	-0.0065766404799574 0.9920137441721526 0.0000024632960121	1.556819
In	0.4934227797940101 0.4959401928625359 0.4991239994893438	1.576910
F	0.0015611212124080 -0.0033295792426429 0.2569990797896709	-0.561706
F	0.5068331136624877 0.4975802687041430 0.7562160169704474	-0.572576
F	-0.0035915802213670 -0.0019128068437832 0.7424466769365528	-0.562067
F	0.4931692765215298 0.5073753718600197 0.2415888769695294	-0.573165
F	0.8999425820276591 0.8988100274058192 0.0021037153300591	-0.595906
F	0.4029756602280489 0.3992091174980670 0.5008605436240536	-0.621751
F	0.9541440320899884 0.1184413943721469 0.0006076296428899	-0.591305
F	0.4470200348836021 0.6200944614388429 0.5197368210377662	-0.621564
F	0.1198643055389125 0.9528390037704866 -0.0006135147333779	-0.591564
F	0.6203478147061616 0.4579492554487812 0.4777220710981626	-0.622053
	  	
