#======================================================================

# CRYSTAL DATA

#----------------------------------------------------------------------

data_VESTA_phase_1


_pd_phase_name                         InFFIVE_4_Fe_i
_cell_length_a                         23.94952
_cell_length_b                         20.87289
_cell_length_c                         9.47860
_cell_angle_alpha                      90.00090
_cell_angle_beta                       89.99938
_cell_angle_gamma                      89.99608
_symmetry_space_group_name_H-M         P 1
_symmetry_Int_Tables_number            1

loop_
_symmetry_equiv_pos_as_xyz
   x, y, z

loop_
   _atom_site_label
   _atom_site_fract_x
   _atom_site_fract_y
   _atom_site_fract_z
   _atom_site_charge
C	0.4140543638719603 0.5948666303566796 0.6294943291412729	0.103361
C	0.3710880738860847 0.5503024333395671 0.6269585400492088	-0.173391
C	0.2771551859508189 0.4491608714713121 0.6261816404919898	-0.120604
C	0.2320985619339676 0.4073711312712285 0.6250168390564348	-0.113648
C	0.1330612329516392 0.3218024573372592 0.6239882294115758	-0.171742
C	0.0873392611141811 0.2810124926348418 0.6280460096068684	0.100247
C	0.9141187843722539 0.0948046762198034 0.6295450095658006	0.108463
C	0.8711272210753348 0.0502584227061199 0.6269726080158965	-0.173176
C	0.7771406146307552 0.9491591098423499 0.6261799836964944	-0.121415
C	0.7320787015838218 0.9073707603763902 0.6250195255263350	-0.113241
C	0.6330257300931804 0.8218463370209016 0.6239962193233241	-0.173442
C	0.5872963946467005 0.7810686009310690 0.6280565572061579	0.095859
C	0.5863163956202412 0.4047597606244697 0.1296284628230801	0.102669
C	0.6291289264637238 0.4495383313438547 0.1269031213595518	-0.178898
C	0.7233103210293123 0.5503578627666552 0.1262087270490194	-0.117366
C	0.7681960975131225 0.5923722505597705 0.1250097571627522	-0.112515
C	0.8667593132852552 0.6785036010117854 0.1239791479945531	-0.172632
C	0.9124772208647377 0.7193119792083817 0.1278744341092380	0.097212
C	0.0862179797089707 0.9048830978950483 0.1296195332934849	0.102489
C	0.1290618870604573 0.9496247051860773 0.1269053729711553	-0.178530
C	0.2233147501553539 0.0503381532982280 0.1262066514442976	-0.118299
C	0.2682081510007457 0.0923389378737305 0.1250053683688968	-0.112470
C	0.3668096338987233 0.1784182633845203 0.1239511546431838	-0.172023
C	0.4125326048448230 0.2192181613353101 0.1278464589247997	0.096139
C	0.5866207890928491 0.5954237329764845 0.8704936421020837	0.105239
C	0.6293080316175322 0.5504667429199878 0.8730883954406757	-0.179947
C	0.7232103762081792 0.4491442552364165 0.8738026778123196	-0.119230
C	0.7682234573822212 0.4073016143448342 0.8749713548386288	-0.110948
C	0.8676044139056551 0.3223205066713466 0.8760412991393036	-0.169085
C	0.9134426414787836 0.2816782878033449 0.8721326772428897	0.100600
C	0.0866377948475888 0.0954508708959012 0.8705000948277400	0.107941
C	0.1293294593263116 0.0504963139015130 0.8730867505754386	-0.178900
C	0.2231744623255737 0.9491198656998283 0.8738071936807879	-0.120631
C	0.2681948965805435 0.9072797735508527 0.8749711598067194	-0.110129
C	0.3676107084407830 0.8223651461471208 0.8760309730123363	-0.170834
C	0.4134618620258890 0.7817382326207698 0.8721040355036541	0.097502
C	0.4145313420091720 0.4057140375763999 0.3704716989626742	0.102286
C	0.3714077545566452 0.4500849561027676 0.3730238501779201	-0.176465
C	0.2768086143609629 0.5503416264978335 0.3737967068987845	-0.118138
C	0.2319051873218308 0.5923647568218560 0.3749792515486779	-0.115657
C	0.1336762724765016 0.6791400905611029 0.3760050891517461	-0.173603
C	0.0879531452617149 0.7199442464840787 0.3720634202675716	0.095337
C	0.9145361731401550 0.9056876171862782 0.3704402514628968	0.103009
C	0.8714035352642723 0.9500474234757235 0.3730167025082936	-0.177238
C	0.7768252678044683 0.0503385515203432 0.3738099032246553	-0.118825
C	0.7319210935992864 0.0923604801605103 0.3749843464523259	-0.115404
C	0.6336782713329544 0.1791188063940683 0.3760028685186660	-0.173182
C	0.5879470957490724 0.2199112768704605 0.3720545163846134	0.095118
C	0.5863211758539512 0.4047718093176585 0.3703928682404718	0.102899
C	0.6291338451771147 0.4495488935631529 0.3730964633559490	-0.179155
C	0.7233087166467923 0.5503564933421304 0.3737824155451513	-0.117304
C	0.7681944786407608 0.5923706553058270 0.3749877164051355	-0.112546
C	0.8667641360983913 0.6785020131002859 0.3760233312864011	-0.172651
C	0.9124807462264714 0.7193151941765500 0.3721214832978983	0.097062
C	0.0862133450290293 0.9048773433784185 0.3703756956875792	0.102353
C	0.1290605098190944 0.9496184987358409 0.3730955022327891	-0.178597
C	0.2233169566994915 0.0503401992148914 0.3737914718280153	-0.118564
C	0.2682111037038507 0.0923413076943913 0.3749826010726097	-0.112195
C	0.3668112295968893 0.1784239218129565 0.3760141980939229	-0.172106
C	0.4125337704534274 0.2192225341284564 0.3721099002601987	0.096162
C	0.4140560446380850 0.5948660117182425 0.8704817377342757	0.103518
C	0.3710934587822126 0.5503006667156132 0.8730311665203917	-0.173543
C	0.2771537416472544 0.4491610931130891 0.8738178605004994	-0.120674
C	0.2320971591534464 0.4073694424969651 0.8749776068244074	-0.113695
C	0.1330586795703938 0.3217991988369113 0.8759920342747274	-0.171677
C	0.0873391276760523 0.2810144660583880 0.8719312767665840	0.100126
C	0.9140923547849161 0.0947838397371685 0.8705346164704796	0.108136
C	0.8711047472789858 0.0502414292614686 0.8730465614370203	-0.172729
C	0.7771405516541082 0.9491605080737306 0.8738015228806705	-0.121417
C	0.7320790270120917 0.9073719485243358 0.8749665121291884	-0.113207
C	0.6330316941463978 0.8218485316577024 0.8760047740423736	-0.173538
C	0.5873005998597023 0.7810750086218735 0.8719532712932819	0.096011
C	0.4145341162742551 0.4057095140630463 0.1295343334339228	0.102518
C	0.3714084678050502 0.4500796479373552 0.1269767274158784	-0.176752
C	0.2768104454453518 0.5503437133957175 0.1261966051362371	-0.118104
C	0.2319060647788967 0.5923661506574834 0.1250182684062577	-0.115679
C	0.1336757442293335 0.6791400018414268 0.1240007133089011	-0.173790
C	0.0879538223854749 0.7199419672929784 0.1279494283405400	0.095341
C	0.9145261838144035 0.9056959443669775 0.1295303077265467	0.102980
C	0.8713939584234675 0.9500520479952622 0.1269787273600548	-0.177017
C	0.7768228890704489 0.0503329872859733 0.1261972870803674	-0.118946
C	0.7319197241732465 0.0923563430903736 0.1250191977033198	-0.115395
C	0.6336760920225674 0.1791185230877763 0.1239952257964620	-0.173167
C	0.5879469392507968 0.2199163297478309 0.1279506622761727	0.095103
C	0.5866154398125152 0.5954330147489647 0.6295163253544778	0.105204
C	0.6293036258152550 0.5504741213480439 0.6269055582494283	-0.179847
C	0.7232109944799741 0.4491420890963474 0.6261893273684511	-0.119187
C	0.7682247069525212 0.4073005984035586 0.6250214533003894	-0.110921
C	0.8676158607259782 0.3223178902085721 0.6239680190097456	-0.168908
C	0.9134505505169547 0.2816652299117713 0.6278922740603585	0.100074
C	0.0866287939773455 0.0954605321563531 0.6295202295636035	0.108967
C	0.1293285806972725 0.0505081608504081 0.6269164883801092	-0.179449
C	0.2231749733301565 0.9491197383977136 0.6261919876314126	-0.120654
C	0.2681950906312541 0.9072798511822864 0.6250242417379932	-0.110154
C	0.3676074142855261 0.8223662397304761 0.6239586854497049	-0.170856
C	0.4134592663846530 0.7817382504145501 0.6278757513617382	0.097616
C	0.3472984490407696 0.5238397514483770 0.7499958615732376	0.110094
C	0.3012912940485642 0.4745307405117852 0.7500005244837826	0.068950
C	0.2069817676375656 0.3859636165903511 0.7499953344909809	0.063946
C	0.1578298973083823 0.3432767853511352 0.7499872427447863	0.102712
C	0.8473038703127411 0.0238121459759699 0.7499962601389584	0.108723
C	0.8012874050280850 0.9745358899257903 0.7499883121010402	0.068361
C	0.7069587275637454 0.8859690562395517 0.7499935808885987	0.064101
C	0.6578051832711376 0.8433063965750054 0.7499973606362735	0.103487
C	0.6530008613640051 0.4759744388938379 0.2499957337156969	0.111715
C	0.6990966820640955 0.5251095683191327 0.2499939747543392	0.067613
C	0.7931281070200432 0.6140211880345353 0.2500011820443417	0.068174
C	0.8420754235046726 0.6569708065139179 0.2500028361486801	0.099167
C	0.1529611432304136 0.9760147847206915 0.2500030693154642	0.110655
C	0.1990865480668932 0.0251083016285171 0.2500013564485053	0.067392
C	0.2931430653914734 0.1139897617888591 0.2499903987267262	0.068213
C	0.3421082845629091 0.1569217030322452 0.2499833032312868	0.098840
C	0.6530497284744302 0.5238771278000828 0.7499934895555954	0.107082
C	0.6990433865783476 0.4744955023822535 0.7499937112693394	0.062882
C	0.7933455895443150 0.3859075896239775 0.7499968896379485	0.066629
C	0.8426820502474315 0.3434779343006132 0.7499976117078685	0.099244
C	0.1530586067239619 0.0238956023196775 0.7499956405929847	0.106450
C	0.1990183300508024 0.9744983815653269 0.7499986028243815	0.063347
C	0.2933322182229358 0.8859056933007949 0.7499975865814587	0.066446
C	0.3426747917783219 0.8435104775489046 0.7499952915380269	0.100069
C	0.3473449704358813 0.4762391632174203 0.2499971277196402	0.116312
C	0.3010702550466046 0.5251502501206124 0.2499958771814232	0.070350
C	0.2070312658005604 0.6141371385491924 0.2499998311058342	0.065130
C	0.1582341558683601 0.6573552192927936 0.2500041937185149	0.101855
C	0.8473386275489464 0.9762104373925888 0.2500030428706052	0.116619
C	0.8010807981290156 0.0251345450632386 0.2500046881868397	0.069901
C	0.7070421084017132 0.1141216172075548 0.2500006295213485	0.065514
C	0.6582336574066504 0.1573372202281116 0.2499986025924689	0.101007
H	0.4315063613571678 0.6134624142253071 0.5313334751048181	0.099511
H	0.3578655016998835 0.5382013667427163 0.5221325440656915	0.105235
H	0.2928630556633549 0.4610277930241331 0.5233873868910499	0.088096
H	0.2166602878462492 0.3917855851028795 0.5225870400608943	0.102422
H	0.1489483021799336 0.3361246590558130 0.5212035421048582	0.114677
H	0.0676488442551656 0.2630091226439516 0.5320921871970589	0.093800
H	0.9316053987022965 0.1133642790080886 0.5313864939723668	0.094119
H	0.8579165050907447 0.0381532671872107 0.5221318234340526	0.104380
H	0.7928529311812432 0.9610196597025459 0.5233754548248946	0.088012
H	0.7166460148637970 0.8917801944280399 0.5225820913075875	0.102873
H	0.6489031697650095 0.8361788818150577 0.5211994665877181	0.116286
H	0.5675739654839798 0.7630980364527673 0.5321061120253834	0.099906
H	0.5686585676043613 0.3855728734168887 0.0322196827087568	0.101327
H	0.6423213592450531 0.4620171703215142 0.0222572821150713	0.102909
H	0.7079151057245350 0.5381309883769038 0.0233443689624094	0.087151
H	0.7837244911325879 0.6079356918728580 0.0226312237049912	0.103978
H	0.8510325971170344 0.6643393932229829 0.0208926044043673	0.118424
H	0.9317882758043556 0.7369344574230664 0.0310400289941628	0.098631
H	0.0685068543290750 0.8857641550130939 0.0322200173120697	0.100054
H	0.1422385687417876 0.9621161924745828 0.0222617429071050	0.102298
H	0.2079302472708320 0.0380997807557374 0.0233361710778072	0.087182
H	0.2837414125422315 0.1078960667626491 0.0226303323597642	0.104378
H	0.3511042536199126 0.1642234913150162 0.0208709786842603	0.118830
H	0.4318810926667578 0.2367930579977163 0.0310120528395900	0.100513
H	0.5695124718082483 0.6147721423478720 0.9683984647414609	0.102340
H	0.6425933119517463 0.5382537192469362 0.9778110120930656	0.105129
H	0.7077342449061501 0.4612367848498702 0.9766714281898727	0.087359
H	0.7837489902725168 0.3917584609196653 0.9773576234915010	0.103435
H	0.8519841023338068 0.3368571037955119 0.9789477504675892	0.115991
H	0.9333227179885293 0.2645186669637258 0.9686487784342876	0.095765
H	0.0695259237345778 0.1148067355835159 0.9684016996595052	0.096866
H	0.1426304506711397 0.0383031518284067 0.9778039182252025	0.104217
H	0.2076712385132758 0.9611826710997942 0.9766794673488061	0.087665
H	0.2837107711170482 0.8917255102316393 0.9773670697820993	0.103587
H	0.3519785206274155 0.8368945727695858 0.9789336524268734	0.117554
H	0.4333693187976982 0.7645730270990128 0.9685918055780175	0.101971
H	0.4326027792493562 0.3875106282152139 0.4683109778022323	0.101566
H	0.3584517615999473 0.4626452286733623 0.4777836512456696	0.104487
H	0.2922799602147558 0.5381598695817026 0.4766402909287470	0.087518
H	0.2163850017014510 0.6079187327151365 0.4773669070689791	0.103477
H	0.1496902863480775 0.6652462930189450 0.4789652885694616	0.117437
H	0.0688304988467641 0.7382293385237728 0.4685549962842762	0.099921
H	0.9326359316311096 0.8874675881682954 0.4682251124622895	0.099783
H	0.8584359393598108 0.9626044734599295 0.4777663498068569	0.104051
H	0.7923069812733546 0.0381683859834007 0.4766536370210697	0.087540
H	0.7164037687469403 0.1079128517871400 0.4773673123255710	0.103663
H	0.6497035525477999 0.1652174230943836 0.4789348011172003	0.117650
H	0.5688104222965674 0.2382066240324245 0.4685158007274630	0.101902
H	0.5686650388004744 0.3855897336733824 0.4678077723426537	0.101356
H	0.6423241919807490 0.4620313358485533 0.4777381562397359	0.103094
H	0.7079126071403209 0.5381279871358181 0.4766457215165019	0.087075
H	0.7837215727801549 0.6079334372429461 0.4773679187693258	0.103967
H	0.8510373659078914 0.6643361886424518 0.4791093259858651	0.118470
H	0.9317948945474089 0.7369418892173550 0.4689505780559828	0.098494
H	0.0684991036407896 0.8857565899974504 0.4677699000306342	0.100049
H	0.1422360173142701 0.9621117185959219 0.4777392225123674	0.102319
H	0.2079337787853833 0.0381022790037891 0.4766655189180140	0.087256
H	0.2837465162184471 0.1078980276174990 0.4773541702370370	0.104324
H	0.3511043926119168 0.1642332972555925 0.4790977964842617	0.118881
H	0.4318810513483636 0.2367979721439221 0.4689478544559090	0.100555
H	0.4315085985642931 0.6134638442316104 0.9686393729592606	0.099391
H	0.3578714133090460 0.5382006859381572 0.9778595583324550	0.105284
H	0.2928605073018514 0.4610263043682588 0.9766141505026387	0.088126
H	0.2166587001924963 0.3917830390839834 0.9774074620930709	0.102451
H	0.1489454097902217 0.3361237793938606 0.9787788911398916	0.114603
H	0.0676510085643717 0.2630141546194539 0.9678928740753996	0.093833
H	0.9315729899056531 0.1133368634647961 0.9687079640109488	0.094167
H	0.8578904990209025 0.0381393686010211 0.9778786152853292	0.104322
H	0.7928520183486548 0.9610201028383947 0.9766071950980748	0.088037
H	0.7166465291503958 0.8917814894215101 0.9774051032448671	0.102853
H	0.6489076652052191 0.8361830083769768 0.9787998980759987	0.116305
H	0.5675781851934248 0.7631094517700425 0.9679073970680019	0.099924
H	0.4326065039970995 0.3875035514670022 0.0316969899214594	0.101408
H	0.3584525929119382 0.4626417307311540 0.0222183348176581	0.104542
H	0.2922836039103023 0.5381652924323896 0.0233520021981539	0.087484
H	0.2163858382148088 0.6079204314379423 0.0226315566990774	0.103493
H	0.1496891691378277 0.6652466587615745 0.0210374182547011	0.117495
H	0.0688332811120239 0.7382253320572478 0.0314548576852429	0.100195
H	0.9326239793029906 0.8874821763213278 0.0317365750278144	0.099698
H	0.8584255353450705 0.9626080878084792 0.0222333005193596	0.103978
H	0.7923001004015977 0.0381598636980862 0.0233519596207246	0.087583
H	0.7164019273296310 0.1079068096002413 0.0226353184977588	0.103658
H	0.6497025129008560 0.1652179819233500 0.0210629494181560	0.117636
H	0.5688124382364982 0.2382151383675377 0.0314888970916510	0.101863
H	0.5695080214816046 0.6147832132322409 0.5316100872178144	0.102439
H	0.6425912722040530 0.5382650681526862 0.5221804769229457	0.105096
H	0.7077343589411542 0.4612344201508566 0.5233225968713768	0.087325
H	0.7837505870465459 0.3917571367495283 0.5226361681781857	0.103357
H	0.8519933107861293 0.3368501748390641 0.5210593954751137	0.115926
H	0.9333319097843111 0.2644948258871707 0.5313894704618451	0.095770
H	0.0695103246171814 0.1148157482810162 0.5316267088322894	0.096708
H	0.1426271585607909 0.0383089399790998 0.5221960943995202	0.104300
H	0.2076700712398253 0.9611833891488168 0.5233221094053335	0.087681
H	0.2837100677126645 0.8917257743109702 0.5226282479325537	0.103613
H	0.3519748454597237 0.8368973053422013 0.5210588573515882	0.117518
H	0.4333664149201980 0.7645695333180714 0.5313908198983761	0.101961
Fe	0.4999606332565251 0.6889942732498479 0.7502709943299751	0.618018
Fe	-0.0000392503154558 0.1889706853081840 0.7509879782711035	0.837200
Fe	0.4998564847416043 0.3108192511062434 0.2502668314650361	0.605542
Fe	0.9998770321674428 0.8108216099012924 0.2495870700670635	0.603263
F	0.4997838637701795 0.6874172978742766 0.5002742083686315	-0.601797
F	-0.0002933369456522 0.1873860882801002 0.4999391367682804	-0.602418
F	0.4994808498617021 0.3122955950744123 0.0005055645154427	-0.603107
F	-0.0003760382427290 0.8122672375284424 0.0009808130223440	-0.591331
F	0.4998042712399702 0.6873505153453786 0.9992350420957439	-0.601430
F	-0.0003003309890699 0.1873655956627590 0.9990367231496994	-0.601334
F	0.4995100428124556 0.3123264713319396 0.4991934205132055	-0.603258
F	-0.0003859722598463 0.8122447605172523 0.4995404598507565	-0.591581
F	0.4726250850797403 0.7759129204833174 0.2497467584458722	-0.604071
F	0.5773572732757905 0.6555688307833740 0.2499637787465893	-0.598678
F	0.9706236528851186 0.2755549673005265 0.2499140349424745	-0.598969
F	0.0773259443370261 0.1571525083525957 0.2498892826453325	-0.594252
F	0.5784340270489425 0.2889340123144536 0.7499731645290032	-0.603534
F	0.4702075460713428 0.4028316161968837 0.7499453684374958	-0.596879
F	0.0779083485647624 0.7856447109671277 0.7500925596353420	-0.599188
F	0.9738772964628782 0.9039335307768168 0.7501966653739257	-0.592679
F	0.4373797527441614 0.6172983945040140 0.2499827155970006	-0.594189
F	0.9382217190616265 0.1162712256918298 0.2499321505802316	-0.590983
F	0.4383463023229533 0.2437111652588726 0.7499281767769872	-0.604225
F	0.9369265584228290 0.7457672971005983 0.7501487820884283	-0.599447
N	0.4362113952038024 0.6172594913620305 0.7499836905471030	-0.190321
N	0.5646791637823498 0.7604498218763802 0.7500119455343202	-0.194733
N	0.9362548797673005 0.1171882200189388 0.7500729454247118	-0.244345
N	0.0647132481718373 0.2604046598928788 0.7499767647645110	-0.248021
N	0.5641921668523100 0.3822934671997863 0.2500233857820568	-0.185788
N	0.4351450545900351 0.2398155025637861 0.2499704602893540	-0.195629
N	0.0641041045058046 0.8823987611152979 0.2499925011789307	-0.190851
N	0.9351024374885707 0.7398801540124518 0.2499960678900490	-0.201988
N	0.5644967323956948 0.6178687861097317 0.7500166338223544	-0.191160
N	0.4359278597032357 0.7609577771615879 0.7499830456309132	-0.200443
N	0.0645055908296365 0.1178817758164852 0.7500184579529933	-0.242784
N	0.9359043873894529 0.2608936581812543 0.7500190688647440	-0.253397
N	0.4366051141615121 0.3831943026815873 0.2500054296610972	-0.187654
N	0.5651033831864058 0.2402222258066017 0.2500054355397061	-0.193639
N	0.9366082757926490 0.8831809176323872 0.2499724764367754	-0.190918
N	0.0651217189759660 0.7402555960531848 0.2500108520460740	-0.197323
In	0.4975192816913338 0.6843648372046037 0.2500682219687730	1.534912
In	-0.0028165561945729 0.1845982179645086 0.2505977489560977	1.548305
In	0.4972843055478288 0.3120715637138626 0.7502385394930767	1.536937
In	0.9975843184110184 0.8120328132352866 0.7497577869667922	1.541943
	  	
