#======================================================================

# CRYSTAL DATA

#----------------------------------------------------------------------

data_VESTA_phase_1


_pd_phase_name                         InFFIVE_2_Zn
_cell_length_a                         13.98967
_cell_length_b                         13.98964
_cell_length_c                         8.29246
_cell_angle_alpha                      90.12933
_cell_angle_beta                       89.87094
_cell_angle_gamma                      89.96455
_symmetry_space_group_name_H-M         P 1
_symmetry_Int_Tables_number            1

loop_
_symmetry_equiv_pos_as_xyz
   x, y, z

loop_
   _atom_site_label
   _atom_site_fract_x
   _atom_site_fract_y
   _atom_site_fract_z
   _atom_site_charge
C	0.5301077512996270 0.7043402759232139 0.1302544896921554	0.105439
C	0.5310755965149115 0.8035135101237161 0.1359030057498780	-0.166984
C	0.4690637848633262 0.2962583862861700 0.1306736751049108	0.099013
C	0.4686710620517297 0.1970421275829796 0.1357350741753874	-0.168713
C	0.2961251079556203 0.5304467318816442 0.1295004554026792	0.101328
C	0.1969624664358258 0.5312076653141394 0.1355856085324999	-0.168566
C	0.7041376910798758 0.4696107767086777 0.1300494018339698	0.098528
C	0.8033435026839086 0.4689279107437067 0.1352176065180578	-0.166750
C	0.4696105461982698 0.7041375128336346 0.8699501608536080	0.098544
C	0.4689275195182662 0.8033437848712153 0.8647836513972726	-0.166818
C	0.5304465307143196 0.2961258589348905 0.8705006019676574	0.101347
C	0.5312075185416619 0.1969632749915268 0.8644149830675286	-0.168479
C	0.7043404344341161 0.5301085342182947 0.8697466334486107	0.105412
C	0.8035129498239924 0.5310754385291986 0.8640976773269984	-0.167013
C	0.2962567060427690 0.4690633246082315 0.8693272981016436	0.098951
C	0.1970405322403350 0.4686712434359301 0.8642655140781902	-0.168683
C	0.5000255751906898 0.1449705096936786 -0.0000182489759472	0.174044
C	0.5001273176085446 0.0437831924313331 -0.0001171455885017	-0.095564
C	0.5000161484036046 0.8554287790635126 0.0003735586400150	0.168742
C	0.5001032972748458 0.9566429864092972 0.0003244814595378	-0.089767
C	0.8554285484732536 0.5000163646441484 -0.0003719978643043	0.168744
C	0.9566436200210962 0.5001037681641166 -0.0003223117225081	-0.090008
C	0.1449698785174541 0.5000258693072165 0.0000188744002984	0.174016
C	0.0437829531212301 0.5001277577420313 0.0001185528498270	-0.095317
H	0.5525370003839383 0.6622092081867308 0.2338172176329479	0.093113
H	0.5555412467670197 0.8399465184296140 0.2442485316693592	0.127731
H	0.4443963835995722 0.3384059549482452 0.2338285758354202	0.097837
H	0.4438452882749624 0.1604958565854120 0.2436594026539093	0.128952
H	0.3387777163860677 0.5546491807659314 0.2316998542094611	0.092072
H	0.1603129672230299 0.5559119615986043 0.2438306457799420	0.127603
H	0.6624881742010330 0.4470542690899211 0.2346829292194931	0.098678
H	0.8394775058728718 0.4444635026561783 0.2435707021198051	0.130023
H	0.4470523688628165 0.6624874734069049 0.7653173164832171	0.098647
H	0.4444627379382648 0.8394774183126567 0.7564311796030692	0.130044
H	0.5546476334531699 0.3387778246971964 0.7683007647427025	0.092082
H	0.5559113978735328 0.1603128606617346 0.7561703311387123	0.127533
H	0.6622107910362044 0.5525366341886937 0.7661824490195573	0.093138
H	0.8399467403143387 0.5555416140815393 0.7557532082274036	0.127737
H	0.3384047350158410 0.4443944999604998 0.7661736104582053	0.097864
H	0.1604946658700460 0.4438455873015244 0.7563417037020421	0.128941
Zn	0.5004687539657888 0.5004725440364821 0.0000001318762675	0.734638
In	0.4994963276506987 0.4994986991874613 0.4999991920452938	1.556661
F	0.4997627519615588 0.5007262402686008 0.7533207311126613	-0.557052
F	0.5007247877643990 0.4997642265062173 0.2466781362869813	-0.557058
F	0.4608685999621945 0.6395044793208152 0.4969186545880464	-0.614288
F	0.3969689762486881 0.3969197868615083 0.5000145802873566	-0.616516
F	0.6395122408196757 0.4609055576432617 0.5030490106790666	-0.614322
N	0.4997902915468118 0.3451546423455010 0.0006422049838799	-0.223132
N	0.4998446095133736 0.6553036271579504 0.0001558603573447	-0.229633
N	0.6553043400919993 0.4998442703932222 -0.0001569705899502	-0.229658
N	0.3451539943928120 0.4997900079650712 -0.0006414645716453	-0.223081
	  	
