#======================================================================

# CRYSTAL DATA

#----------------------------------------------------------------------

data_VESTA_phase_1


_pd_phase_name                         InFFIVE_15_Co_i
_cell_length_a                         29.47849
_cell_length_b                         28.43033
_cell_length_c                         8.63701
_cell_angle_alpha                      89.99986
_cell_angle_beta                       89.99676
_cell_angle_gamma                      90.01388
_symmetry_space_group_name_H-M         P 1
_symmetry_Int_Tables_number            1

loop_
_symmetry_equiv_pos_as_xyz
   x, y, z

loop_
   _atom_site_label
   _atom_site_fract_x
   _atom_site_fract_y
   _atom_site_fract_z
   _atom_site_charge
C	0.9368287491256482 0.1053167226911228 0.8845202541711099	0.087479
C	0.9039109804407592 0.0704908184745707 0.8893297254405007	-0.161256
C	0.7701092653844679 0.9362079301021301 0.8912194026623058	-0.117581
C	0.7354749231162574 0.9032559404316248 0.8910508308246184	-0.113656
C	0.5649166400183639 0.7379730791916447 0.8844389100198800	0.083735
C	0.5989059157810647 0.7716380165385304 0.8891192250064919	-0.164092
C	0.4370661052338258 0.6052815182804537 0.8845422363376295	0.093097
C	0.4041889159086384 0.5704411711586540 0.8895516421896137	-0.163400
C	0.2703904370637496 0.4364948720008059 0.8913292192434575	-0.114272
C	0.2358043596609721 0.4035323043252590 0.8911237578219985	-0.115290
C	0.0654467730984504 0.2381148008019308 0.8843887809215806	0.091120
C	0.0994858095568079 0.2717379418250664 0.8892042780191708	-0.166166
C	0.0638052257278079 0.8940093820525620 0.3845663823830231	0.090251
C	0.0964227080337869 0.9291057110031551 0.3895650467082891	-0.161331
C	0.2295925063460068 0.0638912704300040 0.3912752062404074	-0.115049
C	0.2642579833223565 0.0967834115967378 0.3910939560266120	-0.112596
C	0.4355747027654187 0.2611825198984549 0.3844036363965473	0.091466
C	0.4013963503712399 0.2277269512528509 0.3892349025981550	-0.165645
C	0.5636031305144921 0.3941127765036180 0.3845480805989930	0.088108
C	0.5961796878247543 0.4292588167823862 0.3893646260285138	-0.159948
C	0.7296640439196933 0.5637937393612874 0.3912090973982830	-0.117523
C	0.7643422883146601 0.5966971963199148 0.3910210426760715	-0.113082
C	0.9354800920254510 0.7613865907853199 0.3843757626557186	0.086630
C	0.9012463793697031 0.7279784874281591 0.3890262958672832	-0.163455
C	0.0637538315960145 0.1062380797761339 0.6154979981813848	0.092790
C	0.0963310645958199 0.0711159135827941 0.6104919116585198	-0.163838
C	0.2293462571141825 0.9363953902931806 0.6086810151496139	-0.113378
C	0.2640947780355343 0.9036125603316250 0.6088772358884814	-0.115450
C	0.4345526653107605 0.7383442251527338 0.6155642739270655	0.086175
C	0.4006029662813710 0.7720635168961895 0.6109251274780007	-0.164442
C	0.5629895102346201 0.6050986881786041 0.6155534659049332	0.092263
C	0.5959044410452718 0.5703140175951525 0.6105968374120829	-0.162810
C	0.7297434703170281 0.4363778579947654 0.6087010668710114	-0.114383
C	0.7642489041395486 0.4033293057940941 0.6088439788615462	-0.115040
C	0.9353569947792550 0.2388296300606486 0.6155889768380277	0.085087
C	0.9010647215621900 0.2721605586125799 0.6109252842583716	-0.163512
C	0.9367026635266900 0.8948745334943343 0.1154323956035461	0.086943
C	0.9037173553801511 0.9296050481691034 0.1105881310667273	-0.159207
C	0.7700511399681703 0.0638011279511881 0.1087119532282469	-0.116724
C	0.7355844629345610 0.0969053689738300 0.1088920690199297	-0.113589
C	0.5642513345744388 0.2612003161901552 0.1156549891382510	0.091475
C	0.5984988262690702 0.2278261005711959 0.1108289442594424	-0.166693
C	0.4360371679259263 0.3943195194937884 0.1154593034585921	0.087601
C	0.4034760700353753 0.4294728620306812 0.1106036375591264	-0.162091
C	0.2701854947756607 0.5639544453128361 0.1086899267038810	-0.116880
C	0.2354548498917409 0.5967493918785355 0.1088619309617143	-0.112525
C	0.0652664874057779 0.7621373857121436 0.1156592268749418	0.088621
C	0.0991968004578751 0.7284236040542292 0.1108375869194805	-0.163506
C	0.0637997745578521 0.8940227555890120 0.1155270438598989	0.090014
C	0.0964175793573121 0.9291211883318414 0.1105365258020733	-0.161849
C	0.2295960411447870 0.0638938399870092 0.1087420044728508	-0.114830
C	0.2642619082235830 0.0967863882376044 0.1089249806112856	-0.112858
C	0.4355760142561772 0.2611878922033010 0.1156766155579280	0.091611
C	0.4013944158582552 0.2277299429877189 0.1108645536024715	-0.165486
C	0.5636072376167723 0.3941147914357391 0.1154027711417690	0.088129
C	0.5961831250567868 0.4292585884148783 0.1105945608281409	-0.160095
C	0.7296651694460220 0.5637923560602630 0.1087625645864368	-0.117227
C	0.7643460213072155 0.5966964170061204 0.1089408287506746	-0.113385
C	0.9354884290533303 0.7613926263485685 0.1155488975602299	0.086963
C	0.9012557276475115 0.7279842459920501 0.1108486250219114	-0.163384
C	0.9368369646273573 0.1053225921308007 0.6154249230021492	0.087630
C	0.9039196058500094 0.0704976876175426 0.6105964679809459	-0.161350
C	0.7701144122823468 0.9362077701236018 0.6087671342861063	-0.117703
C	0.7354800618107081 0.9032575140479023 0.6089326123735677	-0.113685
C	0.5649098556058930 0.7379803803087661 0.6155475460760017	0.083871
C	0.5989010884829301 0.7716471589352645 0.6108529938856124	-0.164135
C	0.4370592394576354 0.6052990158158974 0.6154727658351199	0.092809
C	0.4041814753730912 0.5704620200070317 0.6104401728875049	-0.163057
C	0.2703905310828263 0.4364961210548786 0.6086771533654928	-0.114243
C	0.2358032260637987 0.4035325067593786 0.6088988582167247	-0.115453
C	0.0654447324306558 0.2381278188348803 0.6156861411072371	0.091080
C	0.0994835245311600 0.2717516445398998 0.6108848896011487	-0.166348
C	0.9367053667500737 0.8948842093596057 0.3845503800892374	0.086979
C	0.9037210139919882 0.9296161855340380 0.3893770381108392	-0.159206
C	0.7700493212008636 0.0638025705784087 0.3912697563510856	-0.116669
C	0.7355822040157639 0.0969088469833691 0.3910908059025936	-0.113684
C	0.5642331370031746 0.2611811438857315 0.3843254047385898	0.091338
C	0.5984764144896678 0.2278060542685268 0.3891446691792236	-0.166973
C	0.4360256030652964 0.3943139812652118 0.3845586968528013	0.087386
C	0.4034616831620731 0.4294666303108288 0.3894105056105839	-0.162180
C	0.2701820426757555 0.5639558370596279 0.3913088355192698	-0.116828
C	0.2354516139870253 0.5967510748691579 0.3911347067470398	-0.112581
C	0.0652796765787338 0.7621631662430445 0.3843720651539387	0.088748
C	0.0992125381077322 0.7284470707358058 0.3891959328271137	-0.163957
C	0.0637669124431185 0.1062559116649701 0.8845105060950939	0.092902
C	0.0963429573964015 0.0711360350430573 0.8895162106729051	-0.163900
C	0.2293459066556262 0.9363969748500941 0.8912963849319288	-0.113068
C	0.2640950623159992 0.9036126759989581 0.8910935743297593	-0.115764
C	0.4345501658897571 0.7383497490451156 0.8844123116520148	0.085754
C	0.4006011061583330 0.7720724335251629 0.8890229082918721	-0.164684
C	0.5629831973005316 0.6051014601939873 0.8845074365220650	0.092459
C	0.5958981998971985 0.5703142046207238 0.8894986287952615	-0.163116
C	0.7297434071508616 0.4363779867841819 0.8912930180368769	-0.114426
C	0.7642497864084470 0.4033282965475949 0.8911543697950435	-0.114983
C	0.9353586254212706 0.2388418579685471 0.8844114462246280	0.085259
C	0.9010651397875266 0.2721735682123795 0.8890620074874668	-0.163614
C	0.6517281481062285 0.8236111905605252 0.7499817461200665	-0.100850
C	0.8863389115181012 0.0523410281042643 0.7499563146779868	0.162187
C	0.8226010347001771 0.9874627764672289 0.7499837118700865	-0.099067
C	0.6168740053443588 0.7895384774116798 0.7499866888753013	0.165464
C	0.7878407858137345 0.9533294236853399 0.7499965996180470	0.129666
C	0.7174696695290738 0.8863048967358416 0.7499881978629376	0.135743
C	0.6821245619018806 0.8527876260661309 0.7499882031896337	-0.100416
C	0.8523268987368329 0.0173827989767143 0.7499546786334234	-0.103875
C	0.1522737209490977 0.3237075529546554 0.7500598530148541	-0.107832
C	0.3866700793704217 0.5523941800535921 0.7499895894844461	0.162826
C	0.3229299917191538 0.4875928268810885 0.7499959693708785	-0.093884
C	0.1174415528422077 0.2896561619833666 0.7500525261026025	0.170841
C	0.2881185603216371 0.4535380485125342 0.7500019113271740	0.130946
C	0.2178767178729735 0.3865362511801166 0.7500165719667388	0.135765
C	0.1826290385477376 0.3529270780411334 0.7500334061734715	-0.094383
C	0.3526769241974064 0.5174773362484568 0.7499862025326806	-0.105839
C	0.3479997923516573 0.1764248596006599 0.2500479503680332	-0.104876
C	0.1135655632102158 0.9476127663639451 0.2500565301340930	0.164416
C	0.1769294183084445 0.0128647845723994 0.2500194193129939	-0.094042
C	0.3830979570063393 0.2102004833630073 0.2500582565061156	0.169472
C	0.2118051144723715 0.0468792321828856 0.2500076039077332	0.128331
C	0.2822208626199944 0.1137647785731793 0.2500108544787641	0.136765
C	0.3175298783276744 0.1473291650821069 0.2500217915279357	-0.095921
C	0.1472273994102439 0.9829123986710198 0.2500397828131049	-0.111658
C	0.8478659434014175 0.6765845497483657 0.2499299848125042	-0.100518
C	0.6133434325621744 0.4477842229626576 0.2499769184408917	0.160857
C	0.6768495906545909 0.5129115294979774 0.2499896520097543	-0.099309
C	0.8829452544368481 0.7104232222161162 0.2499298630543157	0.164808
C	0.7118180373870623 0.5468077478457143 0.2499877866466199	0.127692
C	0.7822801981458123 0.6137358082539467 0.2499828793571050	0.137127
C	0.8174908670049326 0.6473895578125634 0.2499671362944415	-0.099768
C	0.6470402171372011 0.4830798416176604 0.2499797444463111	-0.107254
C	0.3478062169648902 0.8240822806326912 0.7499699263611843	-0.100085
C	0.1134425125626764 0.0526246297318454 0.7500071948305067	0.164341
C	0.1766860415069454 0.9873098387702220 0.7499987384969953	-0.095600
C	0.3826312640417588 0.7899828945628274 0.7499684757291833	0.166336
C	0.2115493714258247 0.9533553327974160 0.7499897150672127	0.125834
C	0.2821085136489843 0.8867222324651108 0.7499820948835898	0.138944
C	0.3174353982548601 0.8532605689335335 0.7499769372681873	-0.099919
C	0.1470406229020959 0.0173009206388247 0.7500073510291621	-0.111873
C	0.8476643435733128 0.3234524617634699 0.7499757657149591	-0.103170
C	0.6134778840675970 0.5522195895466014 0.7500479951175946	0.166099
C	0.6772753922033113 0.4874977589393157 0.7500214633690312	-0.090345
C	0.8827620536766679 0.2896819303723711 0.7499797957067453	0.166921
C	0.7120503479333330 0.4534497242741213 0.7500006563712202	0.129330
C	0.7820987522197355 0.3862809272086348 0.7499901637573771	0.137712
C	0.8172646832144798 0.3525991784364479 0.7499792427312392	-0.098628
C	0.6474908741655979 0.5173298535238867 0.7500433800140853	-0.111440
C	0.6519698655640440 0.1766195533235417 0.2499832632530270	-0.105463
C	0.8861564471137306 0.9477045732304099 0.2499722021283240	0.160589
C	0.8223748157276635 0.0124638447824644 0.2499840634337697	-0.101163
C	0.6168285677438985 0.2103275465457334 0.2499878246874490	0.169809
C	0.7876918798165666 0.0466471417916085 0.2499855664515534	0.131542
C	0.7176988552874842 0.1139564521204741 0.2499948125791001	0.135303
C	0.6824702680117529 0.1475715953933928 0.2499922997455482	-0.096514
C	0.8521100675541275 0.9825844653747876 0.2499748127594772	-0.098846
C	0.1518793055897691 0.6764184042003158 0.2500158083213925	-0.105551
C	0.3863335118268832 0.4479646706492138 0.2500004986217039	0.162353
C	0.3229281988194475 0.5131207649020866 0.2499975943734386	-0.103161
C	0.1171101599307602 0.7105160690450044 0.2500139279632143	0.168806
C	0.2879990644448868 0.5470203760810401 0.2500016904049064	0.128653
C	0.2174816848500207 0.6136616235414984 0.2499948914129594	0.134892
C	0.1821986356266950 0.6471841156621804 0.2500056851265522	-0.095410
C	0.3526596644708599 0.4832313196163779 0.2499995380152419	-0.103347
H	0.9511119360722463 0.1194050398630833 -0.0090705719802094	0.098735
H	0.8922638200468977 0.0575584823624773 0.0011489668662381	0.124748
H	0.7840160693592307 0.9492179920158883 0.0001021392578329	0.106522
H	0.7217089256502787 0.8900197311746892 -0.0002662602135298	0.114394
H	0.5511808221817540 0.7233672576837744 -0.0091551095093874	0.099219
H	0.6114474473741371 0.7835338980126076 0.0010120245995117	0.129085
H	0.4518031230058150 0.6197403554855838 -0.0104153039400741	0.097569
H	0.3923554404698800 0.5572971479313384 0.0009120281303552	0.124171
H	0.2843230656426167 0.4496098029398294 0.0000031184792544	0.106483
H	0.2220377596563683 0.3903359635583508 -0.0002192482885400	0.114797
H	0.0513478140073209 0.2230581459220280 -0.0104048663235613	0.096465
H	0.1121989628731746 0.2837588006152260 0.0006390976418057	0.128099
H	0.0501324970096113 0.8783979155432391 0.4895420401556883	0.099016
H	0.1086004188404846 0.9418629126227583 0.5009365043510655	0.123434
H	0.2156667009514933 0.0508391820472373 0.5000482121539777	0.106711
H	0.2780487157230717 0.1099586064754822 0.4997627930914075	0.114365
H	0.4507711674699368 0.2751034864081215 0.4895108000538392	0.096887
H	0.3890913626595894 0.2152222009225764 0.5006330663174908	0.127618
H	0.5503966264713720 0.3789064351257515 0.4908687152187028	0.098770
H	0.6082078517244874 0.4418202626796583 0.5011924748407992	0.124181
H	0.7157827922497649 0.5507203964221445 0.5001037194618725	0.105881
H	0.7781536979759983 0.6098349760173268 0.4997805659813833	0.114512
H	0.9502444314245104 0.7748661291067230 0.4908072527034901	0.098457
H	0.8890955424085728 0.7156519083133761 0.5008707162707828	0.128562
H	0.0501272259549334 0.1218238648115885 0.5104865637244437	0.097878
H	0.1084953375822402 0.0583153651438192 0.4991525780153212	0.123744
H	0.2153840083068083 0.9494211973650577 0.4998485004322932	0.105141
H	0.2778862780663207 0.8904475628028256 0.5001817216717989	0.115677
H	0.4482618194680690 0.7237577791633709 0.5090209899925976	0.098962
H	0.3881028115537328 0.7839931317056127 0.4990957214230740	0.128795
H	0.5482751331039852 0.6195525363882730 0.5104319845975387	0.097172
H	0.6077591267176125 0.5572426692977328 0.4992430642660124	0.123740
H	0.7158683615065217 0.4494537516274120 0.4998531519724834	0.106657
H	0.7780449289429655 0.3901041024069468 0.5002147140198899	0.114712
H	0.9501185398836693 0.2253966249322536 0.5091126687224288	0.098630
H	0.8888774595329120 0.2844608012345521 0.4990669335488574	0.128259
H	0.9509994799769095 0.8808285944403517 0.0089720250664138	0.099419
H	0.8919987989322282 0.9424891086395254 0.9987514505140289	0.124568
H	0.7839276194917566 0.0506975431363583 0.9999110739742044	0.107253
H	0.7218599395060260 0.1101391631685943 0.0001644977752337	0.114040
H	0.5490780836014524 0.2750598784571807 0.0104594915158289	0.096405
H	0.6108538349465059 0.2153783282174061 0.9994294244611264	0.128193
H	0.4492201341559487 0.3791388798527604 0.0090314825013188	0.099665
H	0.3914726968036433 0.4420883976544535 0.9987849062606201	0.124585
H	0.2841104588552696 0.5508988490116796 0.9999037667710033	0.106603
H	0.2216367004261934 0.6099028877824906 0.0002013396830328	0.114387
H	0.0512305770813536 0.7771958653545001 0.0104195482089299	0.096591
H	0.1118836099536041 0.7163419458578356 0.9994233358925119	0.127839
H	0.0501288933657588 0.8784224878672022 0.0105397659520773	0.099208
H	0.1085988459420321 0.9418866033276867 0.9991742591013041	0.123696
H	0.2156731206307858 0.0508443988148038 0.9999663148411678	0.106674
H	0.2780543104230264 0.1099636352819761 0.0002540803134026	0.114473
H	0.4507700090421598 0.2751079259786327 0.0105663430897160	0.096715
H	0.3890854821120465 0.2152300645656862 0.9994842749546842	0.127512
H	0.5504018699101973 0.3789115880853523 0.0090870982000451	0.098809
H	0.6082129250299414 0.4418226420972782 0.9987574753317996	0.124218
H	0.7157862148225437 0.5507210372299521 0.9998780590790752	0.105796
H	0.7781574515767445 0.6098345684352752 0.0001825031082583	0.114572
H	0.9502587278258643 0.7748816291017642 0.0091398111257269	0.098286
H	0.8891116770971146 0.7156661119562994 0.9989916986269038	0.128399
H	0.9511254065620010 0.1194104827989029 0.5090230925137218	0.098612
H	0.8922808345410694 0.0575698482771685 0.4987684784038418	0.124657
H	0.7840243845325153 0.9492206663411596 0.4998916752519436	0.106593
H	0.7217176776759379 0.8900233584634464 0.5002445710991428	0.114415
H	0.5511723769880231 0.7233803905277281 0.5091434482003554	0.099073
H	0.6114355949101693 0.7835517812204286 0.4989642169846675	0.129099
H	0.4517968103722808 0.6197741640386010 0.5104420206236914	0.097531
H	0.3923407251674945 0.5573355687585180 0.4990697190112974	0.124045
H	0.2843224504361654 0.4496117852512936 0.4999980252318414	0.106521
H	0.2220377891829264 0.3903380613232632 0.5002480295920875	0.114797
H	0.0513458822949291 0.2230852853901343 0.5104699092100797	0.096641
H	0.1121975981499730 0.2837894044654596 0.4994706530376896	0.128047
H	0.9510020729391545 0.8808472176866079 0.4910062596359376	0.099288
H	0.8920026152376956 0.9425145041372671 0.5012033324608438	0.124644
H	0.7839240441480413 0.0507007475323541 0.5000594580151200	0.107230
H	0.7218557574693528 0.1101410108816573 0.4998207531159777	0.114086
H	0.5490489329799635 0.2750308973384833 0.4895288583333368	0.096528
H	0.6108177304338972 0.2153420231384385 0.5005494421833336	0.128345
H	0.4492035012701642 0.3791322185053911 0.4909801317647877	0.099748
H	0.3914471040183852 0.4420822507985227 0.5012157958050196	0.124576
H	0.2841033748900098 0.5509020004731670 0.5000936166748137	0.106638
H	0.2216311691183110 0.6099073351998702 0.4997956729592313	0.114369
H	0.0512588504476082 0.7772406057250070 0.4895887968658720	0.096760
H	0.1119135751544963 0.7163917350205187 0.5006096507687565	0.127967
H	0.0501473308830802 0.1218539180208910 -0.0104755107495128	0.097882
H	0.1085206530150264 0.0583495988979647 0.0008605265927411	0.123804
H	0.2153846012178018 0.9494225886996401 0.0001334279649990	0.105097
H	0.2778859913689699 0.8904500389976214 -0.0002194513674451	0.115773
H	0.4482510430387272 0.7237717524907747 -0.0090368684824235	0.099157
H	0.3880939556694151 0.7840097899725788 0.0008492055102001	0.128946
H	0.5482648312447449 0.6195554472816327 -0.0103667412388726	0.097132
H	0.6077436792803071 0.5572456916270261 0.0008530111205005	0.123887
H	0.7158674340430591 0.4494534285833272 0.0001452045109770	0.106673
H	0.7780444295020814 0.3901027921996390 -0.0002316748448270	0.114720
H	0.9501164292011133 0.2254144800543022 -0.0091146056050603	0.098540
H	0.8888787958579935 0.2844862711548319 0.0009088148719905	0.128251
Co	0.4998418090989888 0.6725391745195789 0.7500111485813338	0.569223
Co	0.0001120041029766 0.1728135949327487 0.7500062406044319	0.568950
Co	0.4998263381943929 0.3273930713022913 0.2499968201535882	0.568725
Co	0.0000742613892800 0.8275138554827479 0.2500098988162776	0.569600
In	0.4997978815518077 0.6729772156463402 0.2500225316985882	1.530153
In	-0.0002982718823774 0.1732795049876762 0.2499789913168982	1.530004
In	0.4998586669904429 0.3277112502510628 0.7500309291568438	1.529367
In	-0.0003595486632617 0.8268648632194381 0.7499786756168491	1.529130
F	0.4992644224350787 0.6016249920976847 0.2500804720121479	-0.611012
F	0.9649061473882464 0.2350355382791132 0.2500554787504148	-0.604736
F	0.9654439494850966 0.1112396337871172 0.2499300891115571	-0.601266
F	0.4999791953972214 0.2562551294200038 0.7500971499061214	-0.615583
F	0.9649558376603906 0.7650274789953109 0.7497625748685970	-0.604342
F	0.9652873877634974 0.8888474678867809 0.7500337481615035	-0.601307
F	0.5596473299987197 0.7085835745556068 0.2500456554140740	-0.604281
F	0.0685680630542779 0.1738757377539888 0.2499388871808853	-0.614678
F	0.4401505242296977 0.3635350320850756 0.7501930635971695	-0.603352
F	0.4400547946439132 0.7088144678469604 0.2499153709734902	-0.604990
F	0.5596425631141605 0.3634201768129463 0.7499401658317594	-0.602688
F	0.0685329143076190 0.8263566681882399 0.7500474348365059	-0.614521
F	0.4998603205998973 0.6729429548226651 0.4941530850849955	-0.553824
F	0.0000499633189741 0.1730949925850593 0.4941357492870895	-0.554093
F	0.4997875895971521 0.3273689912300928 -0.0059537675571791	-0.553507
F	-0.0000344047239248 0.8272071010323456 -0.0059399799972947	-0.553817
F	0.4998763412956795 0.6729210380171758 0.0058390041278116	-0.553939
F	0.0000146710435106 0.1731021334124225 0.0058431574811135	-0.554116
F	0.4997507203631351 0.3273386362410604 0.5059463905250018	-0.553774
F	0.0000125164698948 0.8272385528568104 0.5059399176715265	-0.553701
N	0.5477529615596138 0.7212631968657962 0.7499958245798692	-0.181200
N	0.9530161497541427 0.1229905838255897 0.7499796507832903	-0.181104
N	0.0481893173712416 0.2214686485555134 0.7500307034197673	-0.179574
N	0.4531358442232454 0.6229825701196582 0.7500134281766263	-0.176952
N	0.4523962877894785 0.2782553856660441 0.2500386250663053	-0.179292
N	0.0473472077670341 0.8766804475400741 0.2500417564665764	-0.174635
N	0.9523834191946413 0.7783887158588775 0.2499694142080389	-0.184390
N	0.5471912748849405 0.3767321068942189 0.2499751049036941	-0.180402
N	0.4516871145049640 0.7215682731365023 0.7499899402643715	-0.182569
N	0.0473585472829317 0.1236054962672717 0.7500055594813249	-0.175837
N	0.9523182934520775 0.2218875345795909 0.7500061344648398	-0.181932
N	0.5468311191989695 0.6227803958275039 0.7500275589371804	-0.178112
N	0.5473568437653932 0.2782211633210651 0.2499951957670821	-0.179954
N	0.9529345922505040 0.8772683907607577 0.2499972264679892	-0.181924
N	0.0480816950162874 0.7788423909216277 0.2500072861821042	-0.178512
N	0.4524319744323646 0.3768762501550110 0.2500108340901918	-0.178267
	  	
