#======================================================================

# CRYSTAL DATA

#----------------------------------------------------------------------

data_VESTA_phase_1


_pd_phase_name                         InFFIVE_7_Zn
_cell_length_a                         19.31004
_cell_length_b                         19.31001
_cell_length_c                         8.30639
_cell_angle_alpha                      89.87077
_cell_angle_beta                       90.12883
_cell_angle_gamma                      90.02781
_symmetry_space_group_name_H-M         P 1
_symmetry_Int_Tables_number            1

loop_
_symmetry_equiv_pos_as_xyz
   x, y, z

loop_
   _atom_site_label
   _atom_site_fract_x
   _atom_site_fract_y
   _atom_site_fract_z
   _atom_site_charge
C	0.6633541911324722 0.8724564201693168 0.6940820980526801	0.099212
C	0.6126787804174478 0.9235640510840971 0.6974068976557694	-0.177804
C	0.5791989430803977 0.8895294298244116 0.4305291852427671	-0.174447
C	0.6305165511695785 0.8393960128773383 0.4368788508392704	0.102263
C	0.8371568663273693 0.6276231729486221 0.6925990632930384	0.104181
C	0.8875565705717104 0.5763227633963581 0.6970360771396341	-0.178041
C	0.9207981492710481 0.6105798473153167 0.4302012653675138	-0.174126
C	0.8697068567011984 0.6610575959057700 0.4355438801347022	0.096477
C	0.6275534017324264 0.6628767922880797 0.6934188064377588	0.102622
C	0.5762911229914831 0.6123653806150300 0.6971998447707735	-0.177060
C	0.6103517065726285 0.5791086020427099 0.4305489736459785	-0.173039
C	0.6606474167735337 0.6303658193096817 0.4363728113259536	0.099915
C	0.8725718658191300 0.8362377799162892 0.6930562683816238	0.102301
C	0.9236120517346290 0.8870044481138432 0.6972078920013535	-0.178352
C	0.8890713913259237 0.9207584992650455 0.4305152390387239	-0.173751
C	0.8385386166462001 0.8697227253346532 0.4366827013554209	0.098619
C	0.3362382115566729 0.3725741755236999 0.3069452799191062	0.102323
C	0.3870050227649530 0.4236143961673784 0.3027927700249180	-0.178478
C	0.4207585669762815 0.3890729149878451 0.5694860467642222	-0.173710
C	0.3697226607007105 0.3385402672970432 0.5633191216290400	0.098433
C	0.1628771600759253 0.1275551016311418 0.3065830231840478	0.102727
C	0.1123653396250796 0.0762925655147169 0.3028015034229537	-0.177083
C	0.0791078250760784 0.1103524069101148 0.5694519114974608	-0.173103
C	0.1303656515537807 0.1606478178990138 0.5636289683075080	0.099911
C	0.3724553034305068 0.1633555211185378 0.3059170123144226	0.099212
C	0.4235637409014310 0.1126807227494372 0.3025938612805356	-0.177821
C	0.3895283093212679 0.0791999130006010 0.5694708896287615	-0.174320
C	0.3393947124939691 0.1305173449213134 0.5631212925277008	0.102171
C	0.1276230301034641 0.3371574616451573 0.3074010339258682	0.104271
C	0.0763215980525871 0.3875561776251090 0.3029647051334610	-0.178136
C	0.1105781780970934 0.4207981380153690 0.5697979610964428	-0.174124
C	0.1610566298911161 0.3697077713709154 0.5644540873635417	0.096481
C	0.4336658223946855 0.0694542841638539 0.4369319290454503	0.142668
C	0.4874570684581332 0.0165826881560065 0.4341700441783652	-0.121842
C	0.0662382422538820 0.4306276269815000 0.4370425343391032	0.143486
C	0.0123465564690341 0.4834516546877254 0.4341770850330152	-0.121610
C	0.4303786426317091 0.4335391467175998 0.4369255155131372	0.143908
C	0.4832785362271392 0.4873987019587041 0.4341562915387012	-0.124690
C	0.0692764466439222 0.0661644720880643 0.4369206769478135	0.140388
C	0.0164027341371612 0.0122867977285013 0.4341440408251628	-0.119061
C	0.5661637428622791 0.5692770140803557 0.5630805530074015	0.140339
C	0.5122860126826564 0.5164036270847193 0.5658559852422397	-0.119015
C	0.9335372693106193 0.9303784185511655 0.5630750122024381	0.143842
C	0.9873969260082234 0.9832786286143637 0.5658432723127012	-0.124626
C	0.5694530561810156 0.9336665263999929 0.5630684219034015	0.142685
C	0.5165815268725684 0.9874580038974248 0.5658295429183288	-0.121806
C	0.9306271769697503 0.5662393199763295 0.5629565900836024	0.143427
C	0.9834512616678472 0.5123475496847361 0.5658219420985939	-0.121481
H	0.6971580378772317 0.8636615543536534 0.7976659825696848	0.098210
H	0.6072652607383627 0.9558334722392474 0.8042893930641116	0.118005
H	0.5462696154266189 0.8930483905096577 0.3240836284693034	0.116088
H	0.6394390029606968 0.8044544320057152 0.3363953626720920	0.090077
H	0.8030433413710673 0.6367419502305175 0.7945970616790077	0.090856
H	0.8930409508640434 0.5440401142800152 0.8041872993468396	0.115697
H	0.9536697883941314 0.6072133625704630 0.3239187709174691	0.118631
H	0.8613133865654018 0.6958770624072123 0.3336225001398833	0.097527
H	0.6371026270203621 0.6960008190651426 0.7969986480192157	0.095781
H	0.5442313884068409 0.6067910013835542 0.8043883759162135	0.117399
H	0.6067833585676370 0.5464802563681151 0.3239132341206460	0.117942
H	0.6946699787450122 0.6396214957954911 0.3342469521459004	0.095256
H	0.8643782517750002 0.8012275468964467 0.7945872778098578	0.093547
H	0.9561196709908225 0.8923688926488598 0.8040413882549352	0.116652
H	0.8924276082118632 0.9539127562225750 0.3243783121160684	0.117063
H	0.8026155357627462 0.8617969900709493 0.3368418474367531	0.093135
H	0.3012278962787390 0.3643800992689921 0.2054160945663742	0.093553
H	0.3923695740320999 0.4561220552396875 0.1959591587017007	0.116684
H	0.4539123756727751 0.3924280619231521 0.6756222990436369	0.117086
H	0.3617963678627504 0.3026167811433212 0.6631590689178221	0.093184
H	0.1960011443631565 0.1371033052072171 0.2030014129281467	0.095762
H	0.1067916567517194 0.0442331654302761 0.1956122206132693	0.117410
H	0.0464791459580435 0.1067835250943040 0.6760872605369767	0.117950
H	0.1396217630797513 0.1946699838081568 0.6657543730031044	0.095255
H	0.3636607829528757 0.1971592767774130 0.2023313064633642	0.098219
H	0.4558321382303005 0.1072668377155452 0.1957093565478068	0.118006
H	0.3930475438544764 0.0462706002723914 0.6759159571355376	0.116059
H	0.3044526496244043 0.1394385120556337 0.6636033095478436	0.090106
H	0.1367425059842776 0.3030448745118287 0.2054018033696167	0.090820
H	0.0440393681553808 0.3930410466229718 0.1958121148256216	0.115715
H	0.1072119837937302 0.4536703094705918 0.6760795939845161	0.118629
H	0.1958752566871758 0.3613135038585162 0.6663759422610380	0.097552
H	0.5062225964384062 0.0018923261353326 0.3148023257817752	0.103614
H	0.9934374758900658 0.4984320132901641 0.3147820490046553	0.103079
H	0.4981738953684853 0.5062600162845039 0.3147874397984323	0.104378
H	0.0015805820402561 0.9934281283228017 0.3147680103573272	0.102709
H	0.4934263839643168 0.5015807717767170 0.6852308000224407	0.102696
H	0.0062579756589540 0.9981736289504615 0.6852129261629677	0.104339
H	0.5018911404685180 0.0062235352283659 0.6851971861538654	0.103614
H	0.9984313177225647 0.4934382319050332 0.6852167170539016	0.103030
Zn	0.2497214045156500 0.2496438093250165 0.4336060053543804	0.734658
Zn	0.7496408982674531 0.7497198702392558 0.5664080236620922	0.734589
In	0.2506457241502708 0.2505847391051021 0.9340412620327704	1.557897
In	0.7505905810496519 0.7506379705124786 0.0659570857467970	1.557824
F	0.2502157563922688 0.2491110452022942 0.1873551403792111	-0.558285
F	0.2495398365675230 0.2500752903130024 0.6808634958993994	-0.557751
F	0.7490935204778318 0.7502183239482223 0.8126592522264294	-0.558258
F	0.7500670665052798 0.7495408218590767 0.3191315164080112	-0.557770
F	0.1752432795671237 0.1768433344966014 0.9345449023397410	-0.618274
F	0.2253163698493096 0.3528278556228824 0.9364493742894592	-0.619514
F	0.3523108300138906 0.2233917695250401 0.9320431848549062	-0.618988
F	0.7233967641390454 0.8522998604518737 0.0679609846833641	-0.618982
F	0.8528420984943101 0.7253406201543211 0.0635149114614819	-0.619514
F	0.6768948875378094 0.6751987457888511 0.0654473762506154	-0.618246
N	0.3308134024746869 0.1721256240562030 0.4341971615649476	-0.226471
N	0.1694632214952487 0.3282159693975776 0.4354754647188328	-0.226329
N	0.3277770453859707 0.3304354692287074 0.4347477408799092	-0.224289
N	0.1718029173566101 0.1692135458727580 0.4346887205911042	-0.230510
N	0.6692125012241015 0.6718023309076704 0.5653137693726604	-0.230431
N	0.8304332626471861 0.8277768124082611 0.5652542385342840	-0.224323
N	0.6721245214771817 0.8308146782473252 0.5658022440676768	-0.226398
N	0.8282150742418309 0.6694640284415094 0.5645242293297938	-0.226280
	  	
