#======================================================================

# CRYSTAL DATA

#----------------------------------------------------------------------

data_VESTA_phase_1


_pd_phase_name                         InFFIVE_16_Cd_i
_cell_length_a                         25.54744
_cell_length_b                         25.54770
_cell_length_c                         8.50610
_cell_angle_alpha                      89.98424
_cell_angle_beta                       90.00430
_cell_angle_gamma                      90.16010
_symmetry_space_group_name_H-M         P 1
_symmetry_Int_Tables_number            1

loop_
_symmetry_equiv_pos_as_xyz
   x, y, z

loop_
   _atom_site_label
   _atom_site_fract_x
   _atom_site_fract_y
   _atom_site_fract_z
   _atom_site_charge
C	0.4813424927093715 0.3814475950742657 0.3707855895737299	0.099869
C	0.4807631767269737 0.3270659351281021 0.3656007003514408	-0.170485
C	0.9564553816402128 0.6116822650052418 0.9445438467586506	-0.124436
C	0.9566746518153196 0.5573178061605839 0.9448861343097721	-0.125819
C	0.5067636977889347 0.6197975205569546 0.3682785314110594	0.095028
C	0.5075891001281841 0.6741296038083862 0.3635683794608286	-0.169050
C	0.0437638611463979 0.3894124840635986 0.9433213934825323	-0.124449
C	0.0438235829786549 0.4437788466033243 0.9447140048950524	-0.127718
C	0.6196215646234341 0.4903299031649005 0.3627523081311917	0.096759
C	0.6739935673025717 0.4901141694477331 0.3576964963047992	-0.172046
C	0.3892555194980408 0.9564576232781631 0.9435541452787283	-0.124377
C	0.4436240965970130 0.9566725105532267 0.9443727590428522	-0.128122
C	0.3813103876003523 0.5166337419553360 0.3777149645143779	0.102015
C	0.3269934979507956 0.5175696128377215 0.3730869765791897	-0.172818
C	0.6119416838221015 0.0438969219566051 0.9432475286164111	-0.124522
C	0.5575700147932117 0.0439015285676128 0.9447690870866388	-0.128368
C	0.5166447398063820 0.3812937645855670 0.6221441799189251	0.101273
C	0.5175841325496267 0.3269755302622712 0.6268763789692667	-0.172912
C	0.0439016945013595 0.6119628881636102 0.0567784370972361	-0.124096
C	0.0439093556829063 0.5575919581067533 0.0552586197315870	-0.128080
C	0.4903494354240932 0.6195427585358722 0.6371028172491920	0.096852
C	0.4901493687084489 0.6739156788970205 0.6422484338176336	-0.171331
C	0.9564592411365966 0.3892836947602862 0.0565055170103686	-0.123451
C	0.9566759074725047 0.4436510502785677 0.0556868010989090	-0.128217
C	0.3815050808306045 0.4813354069707940 0.6290984636507758	0.099633
C	0.3271239396762323 0.4807559902144574 0.6343858972290798	-0.170317
C	0.6116596260911084 0.9564451623031427 0.0554878794532390	-0.124421
C	0.5572927461129578 0.9566622574633271 0.0551522245814238	-0.125564
C	0.6198084087720925 0.5067730201177553 0.6315478183847010	0.094997
C	0.6741397321285423 0.5075830947098550 0.6363542055646496	-0.169870
C	0.3893830400482794 0.0437549641087575 0.0567356832746293	-0.124553
C	0.4437511055707181 0.0438108678925579 0.0553327908281945	-0.127202
C	0.5437784198960477 0.8893308914839825 0.5567506881337015	-0.124806
C	0.5438272675858886 0.9436991163508399 0.5553613663563244	-0.126686
C	0.0068656581749179 0.1198700301722389 0.1318587721113032	0.095618
C	0.0076365190105435 0.1741991698829576 0.1365300464855987	-0.168868
C	0.4564627973572942 0.1116076387118267 0.5554777708860298	-0.124569
C	0.4566753492904269 0.0572445099197165 0.5551372897544795	-0.125394
C	0.9813739482094036 0.8815245370277728 0.1291767874513119	0.099548
C	0.9807675354903213 0.8271408691324922 0.1344642157327670	-0.170452
C	0.1119283312204992 0.5438969926651381 0.5567719459709340	-0.124474
C	0.0575586807403808 0.5438936048681199 0.5552488702440889	-0.128318
C	0.8813140518585328 0.0166082286997195 0.1223591260679099	0.101221
C	0.8269944062410425 0.0175386792915210 0.1269582492621003	-0.172684
C	0.8892507876309284 0.4564502745964180 0.5565145781471579	-0.123792
C	0.9436197088245625 0.4566629562455496 0.5556894401130288	-0.128248
C	0.1195923917269158 0.9904322527002386 0.1370310766707194	0.097474
C	0.1739611420811719 0.9901764932999743 0.1422468340427625	-0.172255
C	0.4564690883544312 0.8892144361340285 0.4435632086396721	-0.123332
C	0.4566797787902919 0.9435834662299925 0.4443862046118227	-0.128474
C	0.9904042705483074 0.1196467462410416 0.8630794304689487	0.097585
C	0.9901457674488625 0.1740133783661008 0.8578668353526333	-0.171722
C	0.5439119840607116 0.1118977309961314 0.4432931845425676	-0.124929
C	0.5439069290869823 0.0575318014845975 0.4448104511880415	-0.128208
C	0.0166361420342251 0.8813523236330379 0.8778005794808414	0.101396
C	0.0175414139285851 0.8270334511433455 0.8731404392228954	-0.173082
C	0.8893702617171045 0.5437651144466683 0.4433059457724911	-0.124622
C	0.9437396280249094 0.5438169221615825 0.4446975511152995	-0.127404
C	0.1198396051175408 0.0067992841049215 0.8681745250407493	0.094865
C	0.1741746338740505 0.0075827271436345 0.8635180186146001	-0.168569
C	0.1116448777501107 0.4564559100761402 0.4445900158002580	-0.124482
C	0.0572780307366792 0.4566688831439749 0.4449258876356598	-0.125558
C	0.8815170415126150 0.9813811191953978 0.8709522965326819	0.099475
C	0.8271346462119392 0.9807750713050299 0.8656464841037875	-0.170322
C	0.4992757640308593 0.2985903355710400 0.4959342815490647	0.177947
C	0.4995016763407371 0.2430708148243325 0.4960556428901974	-0.118820
C	0.4998529353142884 0.1953295150665662 0.4974861280555310	-0.091246
C	0.5000934591697067 0.1398203421024335 0.4988128169432605	0.124516
C	0.5003089935782390 0.0293373068088913 0.4999997008834685	0.067508
C	0.9992459588321605 0.7986550618599448 0.0041653180052487	0.177880
C	-0.0005310159281166 0.7431349536943965 0.0040861575836145	-0.119448
C	-0.0001640975813511 0.6953915304283348 0.0025864811146539	-0.090643
C	0.0000832459233482 0.6398851112558421 0.0012419418765859	0.123877
C	0.0003092054808031 0.5294105481301788 0.0000554496597952	0.068064
C	0.4991431410070739 0.7024644977426437 0.5031789714937273	0.173565
C	0.4995170387591932 0.7579640275281068 0.5030603048714208	-0.114785
C	0.4998004563894648 0.8057018243068345 0.5016539771455535	-0.095086
C	0.5000294587902189 0.8611985299117778 0.5005552162067386	0.124373
C	0.5002869946854128 0.9716892317578130 0.4999262139885201	0.067117
C	-0.0008626185832630 0.2025454328466269 -0.0030872060512217	0.173713
C	-0.0005084066450013 0.2580434386623056 -0.0029827267960103	-0.115043
C	-0.0002214397702989 0.3057879446819535 -0.0015845221912717	-0.094341
C	0.0000133699297673 0.3612807516204409 -0.0004867789908691	0.124161
C	0.0002849321276205 0.4717623330487607 0.0001387974033907	0.067266
C	0.7025083758094253 0.4991203083817803 0.4968057558022311	0.174247
C	0.7580044209822043 0.4994955924198457 0.4970009329247793	-0.114982
C	0.8057445069183693 0.4997820464544773 0.4984183988153411	-0.095018
C	0.8612377317202807 0.5000129560507411 0.4995202467122422	0.124767
C	0.9717247913731872 0.5002733205055523 0.5001421548378576	0.067549
C	0.2025095955380191 -0.0008682999009299 0.0031748687691812	0.174116
C	0.2580088396414242 -0.0005147571453050 0.0030765372880452	-0.115557
C	0.3057556601825573 -0.0002253895783006 0.0016728729023315	-0.094251
C	0.3612504018218041 0.0000108403982774 0.0005528555224885	0.124782
C	0.4717370295069800 0.0002744888084526 -0.0000912570565648	0.067344
C	0.2986256608857473 0.4992619334386553 0.5040903649097492	0.178208
C	0.2431009088963061 0.4994855330982303 0.5040298666196177	-0.119764
C	0.1953639313972139 0.4998461314248403 0.5025659501074470	-0.090351
C	0.1398506395370013 0.5000828026627545 0.5012507481515188	0.123929
C	0.0293713050025924 0.5002986536334175 0.5000656755613668	0.067809
C	0.7986326746997154 0.9992510258654478 -0.0040780184452604	0.177771
C	0.7431116946164691 -0.0005262706740354 -0.0040365017249553	-0.119413
C	0.6953715547155001 -0.0001640261778258 -0.0025476179963072	-0.090667
C	0.6398625165677040 0.0000787617537613 -0.0012117584513063	0.123992
C	0.5293872984015359 0.0002982673670484 -0.0000170161611546	0.067732
H	0.4675568402005389 0.4047316261142857 0.2712870883005321	0.098073
H	0.4661928131136073 0.3068929791036801 0.2617029403061121	0.126599
H	0.9227148923257278 0.6330255779526665 0.8998432436366853	0.112477
H	0.9230934291457966 0.5358840054505767 0.8983068482461806	0.106635
H	0.5118807656874839 0.5967987387536675 0.2613237862135949	0.096810
H	0.5145396732790383 0.6943337153196369 0.2528894978883274	0.126093
H	0.0773957346060706 0.3679972898651380 0.8982040093122439	0.112319
H	0.0775060921020677 0.4651511859302243 0.8984974972843385	0.106720
H	0.5966830719850081 0.4839332822211100 0.2559602894453661	0.099964
H	0.6940608773765846 0.4829973269571229 0.2469495443074405	0.127519
H	0.3677638625328966 0.9227462047223618 0.8984966665540264	0.112811
H	0.4649095759880827 0.9231191221492637 0.8978148517875898	0.107248
H	0.4047139339559228 0.5301279677242168 0.2782940494423801	0.092819
H	0.3066978833161368 0.5321305766072584 0.2694978901191212	0.126462
H	0.6335085971346860 0.0775684284187849 0.8981924871170645	0.111834
H	0.5363471666471609 0.0776026598641570 0.8988532868331580	0.107803
H	0.5301385904480648 0.4047192214118505 0.7214915163326143	0.093216
H	0.5321551861540834 0.3066936327327193 0.7304816680486312	0.126399
H	0.0775694757859473 0.6335272084422584 0.1018328481990417	0.111720
H	0.0776093305367220 0.5363673417262554 0.1011818822288809	0.107336
H	0.4839577778732412 0.5965883133915689 0.7438914513686437	0.100125
H	0.4830571363752868 0.6939572031738795 0.7530613441494097	0.127450
H	0.9227436361570088 0.3677892441002046 0.1015670047945250	0.112683
H	0.9231208649227095 0.4649357712910044 0.1022335933263599	0.107162
H	0.4047995506627203 0.4675473009910403 0.7285701580752885	0.098281
H	0.3069668565721504 0.4661938266696068 0.7383478304990114	0.126829
H	0.6330023774652014 0.9227047526171500 0.1001860633735207	0.112453
H	0.5358582680331534 0.9230769471947752 0.1017377392379778	0.106501
H	0.5967886666552831 0.5118800664684074 0.7384750117524008	0.096871
H	0.6943142154225920 0.5145310920274250 0.7470688780273973	0.126282
H	0.3679702250768839 0.0773868710924057 0.1018542891368136	0.112272
H	0.4651235689410512 0.0774878163425426 0.1015477561373639	0.106592
H	0.5774171598860079 0.8679129774141663 0.6018702226719047	0.112411
H	0.5775093615582673 0.9650637451890202 0.6015985572569987	0.106453
H	0.0119930538151609 0.0969013806434148 0.2388866545507816	0.096515
H	0.0145831187900407 0.1943876789026921 0.2472025929127675	0.125917
H	0.4227191110188175 0.1329533662789541 0.6001234078203073	0.112559
H	0.4230881198808381 0.0358131893881103 0.6016934143372132	0.106454
H	0.9676073580207598 0.9048240480706665 0.2286195883454696	0.098457
H	0.9662127023241691 0.8069731744761305 0.2383948217909355	0.126812
H	0.1334962038037535 0.5775627008705631 0.6018016050018995	0.111830
H	0.0363385817746820 0.5775924129222842 0.6011668676273912	0.107751
H	0.9047014843813991 0.0300769067431273 0.2218156506265366	0.093147
H	0.8066995242051583 0.0320724685757569 0.2305347905695862	0.126530
H	0.8677550465111660 0.4227325452413870 0.6015851123009106	0.112639
H	0.9649003074325181 0.4230976264412742 0.6022483183742251	0.107113
H	0.0966262855469459 0.9840877154193708 0.2438164752316496	0.099936
H	0.1939959894520001 0.9830779977442667 0.2530526683739908	0.127713
H	0.4227514214102002 0.8677265939797458 0.3984887748143712	0.112584
H	0.4231172163897211 0.9648657901802140 0.3978201992011240	0.107288
H	0.9840224139230986 0.0967016969782167 0.7563017085315991	0.099477
H	0.9830076880022528 0.1940527366658960 0.7470779408525330	0.127643
H	0.5775820542721792 0.1334685674524027 0.3982676472476688	0.112055
H	0.5776102820669616 0.0363146180886023 0.3988963285268667	0.107808
H	0.0301358396413477 0.9047572798428563 0.7783884834305255	0.093160
H	0.0320746763688782 0.8067457998247832 0.7695439509278811	0.126382
H	0.8679499791852684 0.5774026098579285 0.3981752257416158	0.112282
H	0.9651048160871797 0.5775019837168037 0.3984532967679471	0.106616
H	0.0968753490660485 0.0118887361424804 0.7611186009740156	0.096927
H	0.1943765257521408 0.0144972675806700 0.7528365076907163	0.125819
H	0.1329880409767980 0.4227164377173130 0.3999211668656826	0.112447
H	0.0358475487107858 0.4230859764863434 0.3983689037956745	0.106478
H	0.9048169608473204 0.9676480671026318 0.7714482009508615	0.098457
H	0.8069868004141152 0.9662254582444022 0.7617003835978915	0.126822
Cd	0.5008361932034668 0.5008111561178515 0.4996486376479004	0.826146
Cd	0.0008564312953339 0.0009100499867068 -0.0000111115232153	0.826838
In	0.4987087963136925 0.4984622570363299 -0.0003835859358117	1.565375
In	0.9984844546254138 0.9989754078789752 0.4999752437421617	1.564281
F	0.4999911900817430 0.5000160035416480 0.2430654881417142	-0.566434
F	0.9994769542445783 -0.0001073528159896 0.7434248847744209	-0.566204
F	0.5002847803992847 0.4995611834733738 0.7561742511339042	-0.566523
F	-0.0001819706108898 0.9996746398254678 0.2565096218944149	-0.566092
F	0.4421513937960756 0.4421925796016454 0.0000085044741782	-0.630395
F	0.9417680427009673 0.9428753279177020 0.4998784958617329	-0.630435
F	0.4780235916258477 0.5756506450965407 0.0020619786003694	-0.623134
F	0.9784812646951306 0.0763121242421753 0.4962713539599543	-0.623086
F	0.5759447579590961 0.4779401232452240 0.9968742178737383	-0.623289
F	0.0757650764522953 0.9786159322293980 0.5037211164925091	-0.622841
N	0.4989713466619884 0.4080562942170162 0.4968075949749715	-0.238436
N	0.9990048859067314 0.9081267297459968 0.0031034161788783	-0.238548
N	0.4985816447845692 0.5929853240487087 0.5024831484285834	-0.242853
N	-0.0013096527012858 0.0930670189975862 -0.0023278415225666	-0.243267
N	0.5930312543298838 0.4985934997616009 0.4972993554049939	-0.241869
N	0.0930261440109807 -0.0013321162242408 0.0023894174290287	-0.243217
N	0.4080950730931099 0.4989611315588623 0.5030050377650893	-0.238951
N	0.9081027509020464 0.9989868884851322 0.9970613790711768	-0.238857
	  	
