#======================================================================

# CRYSTAL DATA

#----------------------------------------------------------------------

data_VESTA_phase_1


_pd_phase_name                         InFFIVE_15_Cd_i
_cell_length_a                         30.39910
_cell_length_b                         29.63749
_cell_length_c                         8.62979
_cell_angle_alpha                      89.99849
_cell_angle_beta                       90.00048
_cell_angle_gamma                      89.99665
_symmetry_space_group_name_H-M         P 1
_symmetry_Int_Tables_number            1

loop_
_symmetry_equiv_pos_as_xyz
   x, y, z

loop_
   _atom_site_label
   _atom_site_fract_x
   _atom_site_fract_y
   _atom_site_fract_z
   _atom_site_charge
C	0.9310843544128582 0.0984401841185410 0.8848575118008337	0.097483
C	0.8989278219757533 0.0651823085351853 0.8901045463959477	-0.165167
C	0.7696793817064094 0.9360451395285371 0.8913313896015510	-0.116704
C	0.7363871037612926 0.9041191384293001 0.8911491780759281	-0.114915
C	0.5724426239748575 0.7439598885423385 0.8847549924085153	0.094596
C	0.6050531678573612 0.7767336800904308 0.8898151722157305	-0.166201
C	0.4314149167755811 0.5980708139070877 0.8845959962326576	0.101279
C	0.3991973638363828 0.5648838041183931 0.8901827876603243	-0.165354
C	0.2696507186868944 0.4360787292828726 0.8913427133354841	-0.114742
C	0.2363697240060668 0.4041630242157110 0.8911569334130648	-0.114255
C	0.0727447089126406 0.2436123255798852 0.8844889787623819	0.099507
C	0.1052947139515341 0.2764548732444939 0.8898568564208214	-0.169500
C	0.0708103553726458 0.8997531801097969 0.3845605507277604	0.101961
C	0.1021001056957083 0.9338600886294229 0.3901771263275875	-0.165859
C	0.2301151678523059 0.0642194745019203 0.3913460904551863	-0.115027
C	0.2633924054082378 0.0961272649660736 0.3911693655853510	-0.113731
C	0.4293336710187521 0.2541497525090942 0.3844753099067575	0.099442
C	0.3959275459974985 0.2222223869544145 0.3898569737732041	-0.166788
C	0.5705033641227384 0.4000487300990895 0.3848635468033362	0.098738
C	0.6018475960655491 0.4341110014421986 0.3901149310698974	-0.164521
C	0.7301290056363530 0.5641522528870617 0.3913523989055089	-0.116976
C	0.7634166938548032 0.5960707096620003 0.3911641930648764	-0.114036
C	0.9289791338935935 0.7544551981970902 0.3847626042867889	0.094703
C	0.8956254895146234 0.7224628176222362 0.3898176590437274	-0.165955
C	0.0706971827575871 0.1004977110974548 0.6154407305132524	0.101614
C	0.1019149677545782 0.0663303415583507 0.6098214998058551	-0.166876
C	0.2299988505388433 0.9359927282372397 0.6086728853532579	-0.115103
C	0.2634265881424128 0.9042299756646588 0.6088465546186265	-0.114331
C	0.4273429116613294 0.7440282558809561 0.6152233919872646	0.094842
C	0.3947700721260374 0.7768689862706817 0.6101709010242646	-0.166115
C	0.5683600512954868 0.5982312923432890 0.6154132348885898	0.102970
C	0.6006146619335214 0.5650971162335361 0.6098060926174719	-0.166994
C	0.7301444409047084 0.4363031010580529 0.6086541142741889	-0.115759
C	0.7632277676575021 0.4041596492797423 0.6088489407655139	-0.114797
C	0.9288886148697288 0.2458162973602692 0.6152351142715966	0.095021
C	0.8954628425359732 0.2777427077673852 0.6101878797099801	-0.167368
C	0.9309898253741906 0.9018202167428525 0.1151508604964247	0.097385
C	0.8987664116265791 0.9350326097407353 0.1098851908735589	-0.164213
C	0.7695009043452511 0.0641943238668605 0.1086709632635007	-0.115454
C	0.7363639687898683 0.0962931552628912 0.1088583205558727	-0.115362
C	0.5703947522712426 0.2543148963609503 0.1155278722921878	0.100228
C	0.6038357154754082 0.2224340250575519 0.1101593471322437	-0.169152
C	0.4292241012050866 0.4001330633104103 0.1151595093567905	0.098592
C	0.3979218573342311 0.4342282691936283 0.1098846885457543	-0.163328
C	0.2696626833035422 0.5643926982131912 0.1086683852088774	-0.115745
C	0.2362067114873408 0.5961319587290277 0.1088520964474228	-0.114299
C	0.0726262070697042 0.7566402521919832 0.1154977066088971	0.099265
C	0.1051129376474308 0.7237402452449073 0.1101185924794810	-0.168994
C	0.0708129654835697 0.8997523161417246 0.1154223346393635	0.102028
C	0.1021018395552615 0.9338594554814421 0.1097974727338935	-0.165829
C	0.2301161550077179 0.0642195468285544 0.1086594114517593	-0.115211
C	0.2633928947932216 0.0961277337876043 0.1088333316925811	-0.113551
C	0.4293350237216153 0.2541488353391658 0.1155255991962646	0.099345
C	0.3959276166926045 0.2222216733517616 0.1101524768600692	-0.166679
C	0.5705030282146507 0.4000507874165589 0.1151316191073222	0.098808
C	0.6018477600827331 0.4341122475466341 0.1098792039190669	-0.164571
C	0.7301292490212634 0.5641527309621633 0.1086528634920659	-0.116954
C	0.7634167479329569 0.5960712525746893 0.1088365909000426	-0.113973
C	0.9289788833432435 0.7544557711780966 0.1152394719272735	0.094568
C	0.8956252768878519 0.7224640862473376 0.1101888061024607	-0.165859
C	0.9310851158406634 0.0984406014051220 0.6151499877618763	0.097394
C	0.8989288607086013 0.0651834655957836 0.6098974190618773	-0.165101
C	0.7696793816704359 0.9360459487875791 0.6086677889942493	-0.116621
C	0.7363868479228278 0.9041196026333951 0.6088525098603956	-0.114903
C	0.5724425099932610 0.7439610242812693 0.6152503996598968	0.094591
C	0.6050526397375201 0.7767348941402705 0.6101887967211952	-0.166298
C	0.4314141255110012 0.5980716558420180 0.6153977911856957	0.101288
C	0.3991968519542387 0.5648841520952909 0.6098175528666433	-0.165398
C	0.2696506988792254 0.4360782744443912 0.6086541019733951	-0.114743
C	0.2363698359093812 0.4041625208367690 0.6088483133352941	-0.114162
C	0.0727447048664578 0.2436131705758784 0.6155194227902796	0.099691
C	0.1052951496976473 0.2764561075054985 0.6101517961919349	-0.169615
C	0.9309909047394872 0.9018197458156209 0.3848553429782160	0.097610
C	0.8987675131151875 0.9350318796042005 0.3901153976421440	-0.164159
C	0.7695017538872851 0.0641929275953603 0.3913277102037651	-0.115456
C	0.7363652529699998 0.0962919692000180 0.3911402339818359	-0.115398
C	0.5703973040431534 0.2543158589222943 0.3844696606267052	0.100313
C	0.6038381088125113 0.2224346592049627 0.3898403862942258	-0.169148
C	0.4292249800695917 0.4001308301746296 0.3848445028695683	0.098524
C	0.3979226779638761 0.4342267678319137 0.3901171239806542	-0.163236
C	0.2696638218881073 0.5643911806167217 0.3913372103787655	-0.115593
C	0.2362079702021005 0.5961307280026984 0.3911534753853972	-0.114346
C	0.0726239047094849 0.7566375522370387 0.3844864990854535	0.098978
C	0.1051116773170685 0.7237384623165758 0.3898754060564878	-0.168955
C	0.0706970523366930 0.1004968971462660 0.8845468273510987	0.101783
C	0.1019144093600601 0.0663298237359976 0.8901733652983428	-0.166972
C	0.2299999748032301 0.9359913413978211 0.8913336506730563	-0.115090
C	0.2634283914007675 0.9042282527593624 0.8911628890665777	-0.114237
C	0.4273447988896916 0.7440269109080944 0.8847710817756190	0.094844
C	0.3947711808405290 0.7768683950339947 0.8898208948123015	-0.166183
C	0.5683598880380712 0.5982304445652865 0.8845775998324834	0.102935
C	0.6006153443834055 0.5650965354994487 0.8901916324094008	-0.166921
C	0.7301459456373259 0.4363022689014751 0.8913474665453143	-0.115971
C	0.7632295143899601 0.4041586331827699 0.8911536997880376	-0.114628
C	0.9288895689779093 0.2458157462214178 0.8847631566175755	0.095025
C	0.8954639414130000 0.2777421335047924 0.8898071285243939	-0.167335
C	0.6556703982838807 0.8270699320894083 0.7500006697232832	-0.102917
C	0.8819808170256255 0.0479900147372902 0.7500052578070144	0.163046
C	0.8202319969145571 0.9856506172468092 0.7499985270921100	-0.098720
C	0.6221704474630418 0.7939882598573600 0.7500005471696709	0.167293
C	0.7867459538591602 0.9526326726217026 0.7499978231094255	0.131174
C	0.7190529516459689 0.8876730836518029 0.7500018292332066	0.135663
C	0.6849876239204979 0.8552344658168708 0.7500030657940904	-0.100636
C	0.8489284534650987 0.0144741260495418 0.7500018830404357	-0.106205
C	0.1557923747785720 0.3269390395974596 0.7500045297592871	-0.107324
C	0.3821774996047720 0.5477842455586799 0.7500015602708235	0.164463
C	0.3202609492675883 0.4856132192183388 0.7499985248036810	-0.095418
C	0.1223517362930284 0.2937730970894627 0.7500026540530337	0.171507
C	0.2867309704491912 0.4526526338543880 0.7499982966225724	0.132879
C	0.2190501319505568 0.3876934343478652 0.7500023283560928	0.134392
C	0.1850445610469447 0.3551859510801951 0.7500054795273861	-0.096501
C	0.3490145792221890 0.5143837617808261 0.7500022680292099	-0.108098
C	0.3441220711263743 0.1731679812863844 0.2500033106730009	-0.105596
C	0.1184367140379930 0.9516417151530011 0.2499896540974125	0.162629
C	0.1794510451482887 0.0147473033557413 0.2500011945524872	-0.096143
C	0.3782417004373632 0.2055881727890656 0.2500020314874762	0.168841
C	0.2129884166870709 0.0477037766991583 0.2500025012090143	0.130657
C	0.2806692136336623 0.1126376381797705 0.2500009846263042	0.135324
C	0.3146789149468824 0.1451387956778855 0.2500012763425853	-0.095535
C	0.1508381462963566 0.9858253496997618 0.2499931807237098	-0.109564
C	0.8439891550276217 0.6732472088029977 0.2500039542582432	-0.100946
C	0.6182418367514236 0.4518374927869410 0.2499991833157661	0.160797
C	0.6794095118712963 0.5147652832596823 0.2500013962474947	-0.101220
C	0.8780126274598784 0.7057581299046204 0.2500036577841083	0.167096
C	0.7129982539306695 0.5476559621924207 0.2500032509672571	0.130086
C	0.7806720609639318 0.6125865277777311 0.2499996334575490	0.135743
C	0.8146282456656401 0.6451389635594740 0.2499995909900062	-0.099990
C	0.6507224628667078 0.4859251393935372 0.2499991535600990	-0.107533
C	0.3441908541632215 0.8272313645048384 0.7499965835071530	-0.097240
C	0.1182446698042674 0.0485037016629346 0.7499995238891404	0.166386
C	0.1792148808898680 0.9853449388458175 0.7500031472711377	-0.094484
C	0.3776791205302967 0.7941254065801792 0.7499975117420823	0.165485
C	0.2128298133505887 0.9524570659608654 0.7500034968460788	0.126950
C	0.2807970160082529 0.8878204111860345 0.7500043827478174	0.140585
C	0.3148857380556426 0.8554046984741693 0.7500016632045522	-0.104899
C	0.1506086376745787 0.0142845315047808 0.7500021845059337	-0.115169
C	0.8436984684569026 0.3268377448765474 0.7499947048489575	-0.104176
C	0.6176718049726362 0.5480278750216256 0.7500013461012616	0.166617
C	0.6796703703188390 0.4859578626782191 0.7500006251437981	-0.096661
C	0.8778021847360266 0.2944026462759233 0.7499943713716519	0.169227
C	0.7131435672864517 0.4529415137628872 0.7500014105720110	0.132240
C	0.7804205562825969 0.3875564360483127 0.7500010204037983	0.137482
C	0.8142953456776818 0.3549066030698854 0.7499990397331642	-0.098355
C	0.6508799627040228 0.5146859236838208 0.7500006898388248	-0.106934
C	0.6557053708510749 0.1734272830904843 0.2500003743738368	-0.112913
C	0.8818055575602899 0.9521930593023403 0.2499989977511199	0.162976
C	0.8199668529276113 0.0144771550204588 0.2499996159039278	-0.095288
C	0.6215542119973928 0.2058091370012708 0.2499995109308993	0.174166
C	0.7865117589768523 0.0475430656969304 0.2500001471157353	0.128991
C	0.7191367551196255 0.1128558893938250 0.2499979556533094	0.135390
C	0.6851773048787662 0.1454208716046992 0.2499979735840232	-0.091368
C	0.8486930705168828 0.9856761771390201 0.2499980018908745	-0.105657
C	0.1554799830430428 0.6731690695132434 0.2500009012294731	-0.109257
C	0.3815373621257327 0.4519722368465252 0.2500014964894626	0.158813
C	0.3204590514934402 0.5150338229198480 0.2500030137204378	-0.102158
C	0.1221143590400438 0.7063895342940937 0.2499987210154220	0.173833
C	0.2868456436342882 0.5479277900596196 0.2500036293123787	0.126699
C	0.2188225355199547 0.6125215079635228 0.2500027567797134	0.134777
C	0.1847272967777968 0.6449271156286741 0.2500023761560597	-0.092702
C	0.3490796183205897 0.4861169017870906 0.2500007324427606	-0.105049
H	0.9450006215307839 0.1120979686692345 -0.0082301893217203	0.097905
H	0.8871829361821834 0.0526995482673122 0.0014200969438008	0.122248
H	0.7830361245285392 0.9486958648311121 0.0002371489748570	0.106916
H	0.7231860670355410 0.8913257440278339 -0.0000538939480758	0.115175
H	0.5590289046106771 0.7298235453244486 -0.0082553674862457	0.096819
H	0.6171756210502400 0.7886947420573162 0.0011749826604882	0.126734
H	0.4458518616933359 0.6119046578928713 -0.0096908249324835	0.095863
H	0.3873440307929123 0.5522758720842427 0.0012082294739041	0.120661
H	0.2830151719560334 0.4487372915217073 0.0002587083234762	0.107657
H	0.2231723458704809 0.3913738797651974 -0.0000245594404853	0.114752
H	0.0591874293099906 0.2289157922381392 -0.0097326801792749	0.094521
H	0.1175684500642473 0.2884968617491565 0.0008939464529052	0.125561
H	0.0576566837311700 0.8846065892050057 0.4901826412609907	0.095832
H	0.1139306043347555 0.9464948150242933 0.5011927343860269	0.119575
H	0.2168065633835546 0.0515026569567092 0.5002611283284728	0.107793
H	0.2766450725415554 0.1088622066323717 0.4999929004954517	0.115127
H	0.4442028089793614 0.2674697217766724 0.4902020635238182	0.094739
H	0.3836690679180213 0.2101573628820479 0.5008961512342636	0.124237
H	0.5576032816700535 0.3853590957231434 0.4917578698538455	0.097904
H	0.6135587456287807 0.4466324997688491 0.5014134538235575	0.121384
H	0.7168231302069217 0.5514250066431916 0.5002226027819687	0.106798
H	0.7766684195444108 0.6088078668091942 0.4999471521542209	0.115196
H	0.9433387231366415 0.7675879083586633 0.4917312434892362	0.096828
H	0.8834586235922339 0.7105393494024177 0.5011542531196234	0.125963
H	0.0575803449551813 0.1156822318225164 0.5097818130102014	0.095384
H	0.1137130318281608 0.0536707904147172 0.4987771726697566	0.119897
H	0.2166277486269971 0.9486161037112550 0.4997190722634061	0.107010
H	0.2767021951705906 0.8914968367903920 0.5000878063145533	0.114683
H	0.4407205858241710 0.7298294977785934 0.5082916392469353	0.097442
H	0.3826508900166283 0.7888549923923451 0.4988432616463883	0.126503
H	0.5538927070120989 0.6120486412332039 0.5097271440032703	0.094390
H	0.6124935711427847 0.5524882493685773 0.4987996692308796	0.120634
H	0.7168623681769138 0.4490337252529372 0.4997296545111392	0.107995
H	0.7763891173336076 0.3913061979745997 0.5000970112390204	0.114219
H	0.9432771146625776 0.2327024317007520 0.5082983151382647	0.096367
H	0.8832738388728381 0.2896445352643162 0.4988549687616540	0.126378
H	0.9449347711342901 0.8881855506176358 0.0082595666081244	0.097778
H	0.8870056271212970 0.9475007823309511 0.9985941970365717	0.122048
H	0.7827996961320197 0.0514493861955335 0.9998129288475354	0.108309
H	0.7232169100547184 0.1091132557873502 -0.0000060361407310	0.114504
H	0.5555431906086199 0.2676453859083642 0.0097719093929944	0.094245
H	0.6161160397920741 0.2103937096199325 0.9991001428986258	0.125422
H	0.4421177158939469 0.3854356049321337 0.0082806643133157	0.097930
H	0.3862377357795010 0.4467763118077798 0.9985820905046551	0.121628
H	0.2830347321482056 0.5517254511759463 0.9997936299264643	0.107837
H	0.2229274478994266 0.6088197384038008 -0.0000018953736968	0.114676
H	0.0590897760936228 0.7713633165588047 0.0097253418414682	0.094516
H	0.1173811984921125 0.7116749470606638 0.9990728156019576	0.125072
H	0.0576618907332752 0.8846034201866062 0.0097965271869615	0.095761
H	0.1139327859786617 0.9464948483063834 0.9987841502618887	0.119557
H	0.2168073309444776 0.0515032419459962 0.9997449564344422	0.107802
H	0.2766456109814428 0.1088630925838182 0.0000087105007595	0.115139
H	0.4442045897640520 0.2674683753567152 0.0098021038474366	0.094774
H	0.3836703226647075 0.2101574888114475 0.9991097639625111	0.124227
H	0.5576031870266185 0.3853617257883707 0.0082390433538210	0.097895
H	0.6135578681853038 0.4466355197331577 0.9985809886862278	0.121380
H	0.7168232701787353 0.5514257085146150 0.9997837593620914	0.106757
H	0.7766684471630479 0.6088085749970946 0.0000520072586012	0.115158
H	0.9433385576955854 0.7675883461585398 0.0082682528915268	0.096875
H	0.8834580445971065 0.7105413035561016 0.9988530280388083	0.125908
H	0.9450023865652801 0.1120977902445925 0.5082291078366685	0.097962
H	0.8871841181567985 0.0527013137732527 0.4985857520997947	0.122267
H	0.7830362102044656 0.9486968520230066 0.4997599357434036	0.106909
H	0.7231859962918411 0.8913270396975557 0.5000586079458160	0.115140
H	0.5590283766656184 0.7298252978203692 0.5082632124216235	0.096872
H	0.6171747315603612 0.7886967431427083 0.4988288435331254	0.126740
H	0.4458503290167889 0.6119059653330201 0.5096814974935963	0.095872
H	0.3873427320322291 0.5522758089138778 0.4987951996895254	0.120665
H	0.2830152124003195 0.4487368358700801 0.4997380541887410	0.107657
H	0.2231732207364047 0.3913724633132586 0.5000304500212364	0.114697
H	0.0591885810030327 0.2289170537645664 0.5097419100588744	0.094445
H	0.1175691755039778 0.2884992228524872 0.4991127864506572	0.125543
H	0.9449363023165387 0.8881858802278491 0.4917511704620997	0.097670
H	0.8870075671276507 0.9474998389208630 0.5014040959533658	0.122018
H	0.7828017665606744 0.0514473560819171 0.5001872528568041	0.108303
H	0.7232188336166910 0.1091108308905322 0.5000025222124521	0.114528
H	0.5555477625186604 0.2676462664539279 0.4902276150813233	0.094248
H	0.6161199676288699 0.2103940620764481 0.5008992125270314	0.125421
H	0.4421192162733023 0.3854327718196781 0.4917232693493688	0.097898
H	0.3862391094049312 0.4467735886549365 0.5014195113201405	0.121641
H	0.2830369432074080 0.5517229991272117 0.5002135073437539	0.107768
H	0.2229295577929906 0.6088172889682758 0.5000072778073207	0.114674
H	0.0590844929085179 0.7713588858474724 0.4902546907111444	0.094607
H	0.1173789655057572 0.7116725619022808 0.5009244462766191	0.125091
H	0.0575797188884770 0.1156813336090289 -0.0097979475007930	0.095352
H	0.1137122520019004 0.0536695560247296 0.0012201428761457	0.119900
H	0.2166303954453621 0.9486137893284772 0.0002873458866137	0.107030
H	0.2767045584777222 0.8914945291908942 -0.0000797586646737	0.114651
H	0.4407232896567761 0.7298281312767942 -0.0082956331931057	0.097431
H	0.3826526525371386 0.7888528972441671 0.0011491946633326	0.126555
H	0.5538928576810151 0.6120468617309959 -0.0097382286507565	0.094333
H	0.6124936694703115 0.5524875530934176 0.0012025990889829	0.120596
H	0.7168649756618378 0.4490320908080694 0.0002713614461463	0.107975
H	0.7763919498548416 0.3913047027058009 -0.0000936694503755	0.114220
H	0.9432781272084768 0.2327027895682963 -0.0082899976284485	0.096338
H	0.8832743223298340 0.2896436707678313 0.0011351242608857	0.126347
Cd	0.4999023922840921 0.6736099320044306 0.7500065104068377	0.825183
Cd	-0.0006861942851114 0.1732380649317735 0.7500150551884414	0.825168
Cd	0.4998909275782152 0.3275088085024973 0.2499898404159563	0.825055
Cd	-0.0006464453315974 0.8270283491437422 0.2500219541560973	0.825097
In	0.4999318598340141 0.6754218932580183 0.2499993541335336	1.558771
In	-0.0021038662327137 0.1731148103357136 0.2499937845440249	1.558170
In	0.4995641590916557 0.3294717285483337 0.7499842877896314	1.558098
In	-0.0020546486790790 0.8270659173476720 0.7500387241705182	1.557140
F	0.4992311722275292 0.6067705059467431 0.2500087924391212	-0.623667
F	0.9622496106457469 0.2312862854439287 0.2499351647734772	-0.614647
F	0.9633862985101187 0.1142865871048535 0.2500486084437320	-0.611187
F	0.4994079174225593 0.2607737250250319 0.7499156504956794	-0.627327
F	0.9622485013027031 0.7689441562239224 0.7500574165474504	-0.613763
F	0.9636694887192212 0.8860573827843454 0.7499846017030092	-0.611181
F	0.5568305815001714 0.7117115228865926 0.2500241952040886	-0.613406
F	0.0648487040573769 0.1737014896504176 0.2499903842321970	-0.626966
F	0.4426492408560014 0.3656415523970684 0.7499979723041992	-0.612970
F	0.4426899554992130 0.7109948332978149 0.2499848622696063	-0.615212
F	0.5564812638562512 0.3654169936029402 0.7500044788017884	-0.612456
F	0.0649027813379355 0.8263947559526905 0.7500200605606344	-0.626507
F	0.4998085523096907 0.6734705105954456 0.4922880818450110	-0.569386
F	-0.0003202732137274 0.1730559772639474 0.4923315229573666	-0.570051
F	0.4996519194093818 0.3274706052136006 -0.0075341721588685	-0.569865
F	-0.0003238296704457 0.8272960247218913 -0.0074842581454582	-0.569912
F	0.4997981953394618 0.6734860084441957 0.0077198433632062	-0.569356
F	-0.0003193323552058 0.1730398092318024 0.0076454980836941	-0.569978
F	0.4996525756724561 0.3274716195410163 0.5075038479857154	-0.569881
F	-0.0003119509608944 0.8272734574901932 0.5075265249392109	-0.570063
N	0.5563100494961786 0.7279074089707137 0.7500042234604849	-0.243369
N	0.9466793449208277 0.1149504807895078 0.7499994406648502	-0.242759
N	0.0565570387117832 0.2276079041022917 0.7500027670667702	-0.236292
N	0.4469568869711673 0.6146429673113346 0.7499959170200791	-0.236479
N	0.4455859031327270 0.2700766107733439 0.2500020701858316	-0.236130
N	0.0553585726515556 0.8830953740509170 0.2499886440548135	-0.233541
N	0.9452695065981584 0.7703142220294452 0.2500016841818202	-0.240835
N	0.5550883823198446 0.3833644939867373 0.2499984471541916	-0.241645
N	0.4434282864743817 0.7279557249189453 0.7499992557281153	-0.239675
N	0.0552784158060452 0.1172083976313140 0.7499908614461482	-0.235132
N	0.9452120148016422 0.2299859375934927 0.7500036023733400	-0.240106
N	0.5527883648513291 0.6147838820166256 0.7499953437804533	-0.239164
N	0.5541084111693089 0.2702192955988538 0.2499991315800653	-0.240221
N	0.9466141771881882 0.8853364341110086 0.2500041474611007	-0.240662
N	0.0564730009209856 0.7726687205736771 0.2499913240759832	-0.236533
N	0.4446168753186609 0.3834081851972199 0.2500009968201425	-0.240195
	  	
