#======================================================================

# CRYSTAL DATA

#----------------------------------------------------------------------

data_VESTA_phase_1


_pd_phase_name                         InFFIVE_4_Co_i
_cell_length_a                         23.20585
_cell_length_b                         20.21395
_cell_length_c                         9.75004
_cell_angle_alpha                      89.99760
_cell_angle_beta                       90.00234
_cell_angle_gamma                      90.00420
_symmetry_space_group_name_H-M         P 1
_symmetry_Int_Tables_number            1

loop_
_symmetry_equiv_pos_as_xyz
   x, y, z

loop_
   _atom_site_label
   _atom_site_fract_x
   _atom_site_fract_y
   _atom_site_fract_z
   _atom_site_charge
C	0.4193994242912228 0.5976230720095669 0.6319031688418176	0.093010
C	0.3754943252212240 0.5512007928459907 0.6300922614759427	-0.159175
C	0.2788323881439332 0.4485108271206499 0.6293493494355265	-0.115941
C	0.2318003094891362 0.4060921008845910 0.6283254101576303	-0.112857
C	0.1291360003286811 0.3185804444218597 0.6275415386852758	-0.167207
C	0.0823500230670328 0.2759169184879534 0.6306072022350079	0.087481
C	0.9194297545780875 0.0975751284913159 0.6318901460750740	0.092578
C	0.8755130287140767 0.0511679371790233 0.6300906663406166	-0.158834
C	0.7788166600857986 0.9485242836979219 0.6293486022863571	-0.115802
C	0.7317836818141830 0.9061112297140792 0.6283329581270171	-0.112943
C	0.6291058594627067 0.8186281339809222 0.6275530694602539	-0.167284
C	0.5823141452712977 0.7759737990409425 0.6306222617584017	0.087673
C	0.5809302239835814 0.4019757314803064 0.1319270739771676	0.090394
C	0.6247158995177248 0.4485712308878617 0.1300602495835325	-0.165832
C	0.7215271935508200 0.5510884199663318 0.1293743137966578	-0.111372
C	0.7683698212302089 0.5937243013683740 0.1282948240142444	-0.111992
C	0.8706727617999535 0.6815565783752447 0.1274622146041830	-0.166017
C	0.9175221661930162 0.7241274650129409 0.1305112495855349	0.085602
C	0.0808911458599984 0.9020325871535938 0.1319401007322502	0.090823
C	0.1246922133429852 0.9486078678667140 0.1300546263711457	-0.166020
C	0.2215529708011771 0.0510697303071859 0.1293709096135917	-0.112046
C	0.2683948034067704 0.0937058420042414 0.1282994541018378	-0.110921
C	0.3706978711535481 0.1815057220054346 0.1274601540493546	-0.166184
C	0.4175544066512233 0.2240655301278902 0.1304940464355810	0.085700
C	0.5810430982219708 0.5978364015824633 0.8680829669283090	0.093422
C	0.6248368290527992 0.5512479094956757 0.8699545400936792	-0.167419
C	0.7215768841996194 0.4485972436059403 0.8706569870053804	-0.115925
C	0.7685432216701138 0.4061313762337325 0.8716816364308911	-0.109418
C	0.8713784265830337 0.3190368826098070 0.8724710698598953	-0.163697
C	0.9182083861326334 0.2764292001984819 0.8694422079757924	0.086516
C	0.0810598870026722 0.0978570759820641 0.8680805178797020	0.093639
C	0.1248563401420813 0.0512740270884490 0.8699595623393227	-0.167367
C	0.2215623065325783 0.9485821181394039 0.8706634934704480	-0.116203
C	0.2685283859480232 0.9061156440491063 0.8716817239784689	-0.109490
C	0.3713854679446829 0.8190585802276673 0.8724817639003326	-0.163789
C	0.4182231026133822 0.7764603747515515 0.8694676083597542	0.086873
C	0.4195857169663523 0.4024027271858628 0.3680804139094635	0.090556
C	0.3756927042525336 0.4488233836842860 0.3698933737683798	-0.162539
C	0.2786624118380262 0.5510108024441343 0.3706474826529510	-0.113315
C	0.2318121965444815 0.5936775657540106 0.3717046428481461	-0.115961
C	0.1297205500531869 0.6819585350709740 0.3724958116389307	-0.165944
C	0.0828354475949199 0.7244881661820081 0.3694433900091604	0.084636
C	0.9195615351291976 0.9023783049383354 0.3680816169857026	0.090509
C	0.8756656504052753 0.9487934700215223 0.3698796940938345	-0.162796
C	0.7786747361641422 0.0510155464360596 0.3706299627580199	-0.113403
C	0.7318293904933950 0.0936897006771998 0.3716937249447960	-0.115867
C	0.6297203902972988 0.1819599867597868 0.3724777417925449	-0.165878
C	0.5828296254657792 0.2244820734892257 0.3694059803553122	0.084949
C	0.5809175965114366 0.4019721356858642 0.3680257441567875	0.089956
C	0.6247057293658163 0.4485692430188144 0.3699265516092493	-0.165853
C	0.7215285596191896 0.5510920520419615 0.3706190951120875	-0.111589
C	0.7683723883908045 0.5937280170133866 0.3716940299483145	-0.111800
C	0.8706752704675049 0.6815586141691938 0.3725201206713548	-0.166173
C	0.9175264904337035 0.7241296742910882 0.3694677817188875	0.085693
C	0.0808874847497513 0.9020304922644742 0.3680425022500460	0.090677
C	0.1246877265047742 0.9486082186751649 0.3699294248589691	-0.166169
C	0.2215511593584482 0.0510726216125876 0.3706248813454063	-0.111832
C	0.2683937717774117 0.0937077734448027 0.3716982708372026	-0.111242
C	0.3707071472325116 0.1815164898770528 0.3725188703768585	-0.166258
C	0.4175658112725543 0.2240764221071098 0.3694394138588891	0.086095
C	0.4193937801044636 0.5976209868331334 0.8680991578473285	0.092942
C	0.3754890017203575 0.5511997746892568 0.8698963569340402	-0.159251
C	0.2788298263355655 0.4485159181910955 0.8706316346628976	-0.115759
C	0.2317990913802380 0.4060950571234178 0.8716501632307051	-0.112559
C	0.1291370641717744 0.3185806322101470 0.8724344160677125	-0.167035
C	0.0823507443266184 0.2759158559362289 0.8693658791801471	0.087566
C	0.9194309837192489 0.0975784336422314 0.8680950534401844	0.092692
C	0.8755122029569840 0.0511720639757652 0.8698991445833875	-0.159066
C	0.7788150421196960 0.9485264231114808 0.8706387408643981	-0.115833
C	0.7317826136097648 0.9061126626274436 0.8716532794137939	-0.112813
C	0.6291051996771253 0.8186326980851576 0.8724406706476390	-0.167303
C	0.5823123285199432 0.7759803826973333 0.8693820989228381	0.087630
C	0.4195695444392434 0.4024175285699839 0.1319098360345026	0.090494
C	0.3756772454272910 0.4488348819069259 0.1301325304032051	-0.162778
C	0.2786609469750151 0.5510104109767312 0.1293733671118966	-0.113173
C	0.2318104075475572 0.5936776675582744 0.1282988073564398	-0.116036
C	0.1297195801591904 0.6819590677551963 0.1274970671061471	-0.165896
C	0.0828362105430249 0.7244877349397764 0.1305352387022510	0.084677
C	0.9195567368176712 0.9023855472565994 0.1319093217392932	0.090496
C	0.8756616966901298 0.9487999306246531 0.1301106963190752	-0.162496
C	0.7786738193500937 0.0510199158049280 0.1293554142978516	-0.113305
C	0.7318286417861809 0.0936950112666195 0.1282909865533073	-0.116100
C	0.6297251303133854 0.1819592318740687 0.1274832304874450	-0.165921
C	0.5828373700128368 0.2244810509920676 0.1305150452504777	0.084855
C	0.5810400331376256 0.5978467508554999 0.6318893806328069	0.093267
C	0.6248339911050059 0.5512558870058366 0.6300172095696672	-0.167226
C	0.7215730098732311 0.4485985645742565 0.6293124114099687	-0.115885
C	0.7685396289531053 0.4061328434570627 0.6283003475976381	-0.109664
C	0.8713750007407612 0.3190398575014737 0.6275127209770830	-0.163829
C	0.9182046606072736 0.2764326471843717 0.6305397110373463	0.086516
C	0.0810579713589942 0.0978608444095075 0.6318942234079885	0.093489
C	0.1248553842597480 0.0512784242270783 0.6300263542398634	-0.167312
C	0.2215589189762655 0.9485851579578952 0.6293218937472814	-0.116076
C	0.2685252035204462 0.9061196129259322 0.6283081891971659	-0.109649
C	0.3713837429575789 0.8190566998445019 0.6275236797322018	-0.163830
C	0.4182200179844170 0.7764577321212783 0.6305666418841885	0.086642
C	0.3512333287336107 0.5242383312540375 0.7499907021259123	0.112649
C	0.3037736245916285 0.4740285803314705 0.7499886833008523	0.071319
C	0.2056746465672835 0.3843809296380226 0.7499876894894403	0.063126
C	0.1547347294620953 0.3407033655958885 0.7499881043354971	0.103258
C	0.8512392032032803 0.0242295657931360 0.7499950798756821	0.111694
C	0.8037623483937872 0.9740387156627437 0.7499930998854181	0.071090
C	0.7056554707458923 0.8844082273317028 0.7499932001019970	0.063374
C	0.6547153858681354 0.8407332576363923 0.7499945261840482	0.103490
C	0.6490149488012551 0.4755590461448194 0.2500003044698132	0.115082
C	0.6965632788182864 0.5256361967440565 0.2499980069725648	0.070331
C	0.7942908255323045 0.6155972251206334 0.2499927368325733	0.065972
C	0.8451291823996641 0.6594185877554957 0.2499935982963160	0.100669
C	0.1490208602160841 0.9755686712206623 0.2499922289656142	0.114300
C	0.1965817134267133 0.0256253024380121 0.2499977775284605	0.070078
C	0.2943107448371083 0.1155751523698961 0.2499998579816327	0.065774
C	0.3451482370333938 0.1593919684047248 0.2499994236091171	0.100860
C	0.6490889384870936 0.5242033801503251 0.7499870024702326	0.109676
C	0.6966053223701335 0.4740391970620922 0.7499821715563495	0.066636
C	0.7946002576025392 0.3844232807964546 0.7499924238901988	0.068085
C	0.8456376857367930 0.3409011486736915 0.7499909001535812	0.099441
C	0.1490962266808963 0.0242218049910478 0.7499949538644415	0.109322
C	0.1965977988309417 0.9740394699283832 0.7499916111910191	0.066989
C	0.2945910225710502 0.8844159789188033 0.7499959651194843	0.068006
C	0.3456416183469534 0.8409112966147183 0.7499992539942441	0.099480
C	0.3512657329402404 0.4756006759782362 0.2500208606525684	0.119132
C	0.3036603069026545 0.5255835053440547 0.2500145791112615	0.074424
C	0.2059044270601802 0.6156406139649222 0.2499984294317664	0.063521
C	0.1551696434574586 0.6596344019877283 0.2499967592808143	0.101020
C	0.8512572122902343 0.9755735425221094 0.2499958507313794	0.119605
C	0.8036680423732409 0.0255805378019718 0.2499918056495826	0.074263
C	0.7059191616118080 0.1156512965877532 0.2499929883303880	0.063677
C	0.6551784866500159 0.1596384375735962 0.2499903519684992	0.100781
H	0.4376734518972342 0.6172626787772473 0.5369652090628354	0.106651
H	0.3618133032907040 0.5381660171160393 0.5283400644779059	0.104416
H	0.2955545150257767 0.4607330887463300 0.5295985761975650	0.085992
H	0.2157211404585138 0.3900280656951034 0.5287530889424675	0.103341
H	0.1454379304173654 0.3335892183358449 0.5276654418462010	0.119871
H	0.0620172512785681 0.2568675718893285 0.5374024113884693	0.109135
H	0.9377387694397942 0.1171841632852900 0.5369574240110335	0.107110
H	0.8618382962034798 0.0381207872207894 0.5283387581335363	0.104198
H	0.7955340493663454 0.9607481192531655 0.5295954753979317	0.085784
H	0.7157031592653069 0.8900439829785898 0.5287616038341635	0.103388
H	0.6453883942575473 0.8336675579191570 0.5276797346282276	0.119859
H	0.5619405856787598 0.7569623791920328 0.5374333222958503	0.108998
H	0.5624823696141894 0.3817300241990538 0.0376581141021339	0.109952
H	0.6386012640937294 0.4618722601252490 0.0286056815825726	0.101759
H	0.7050212222392338 0.5387218995020620 0.0295520866667966	0.084664
H	0.7845640290393916 0.6097829169329101 0.0288773704131317	0.105183
H	0.8545657138424217 0.6668747934845816 0.0271580819174763	0.122817
H	0.9374010664971678 0.7429516486969698 0.0365784438836338	0.108522
H	0.0623886670486182 0.8818382048585499 0.0376873066598177	0.109461
H	0.1385521842677438 0.9619358999925904 0.0285975012406613	0.101793
H	0.2050599552539495 0.0386956340221356 0.0295372114840763	0.084723
H	0.2845920082244098 0.1097705396175440 0.0288950268516432	0.105124
H	0.3546118015737904 0.1668000241115136 0.0271576247586806	0.122762
H	0.4374535171508813 0.2428565629205311 0.0365632240120500	0.108373
H	0.5629844149951653 0.6181004198453391 -0.0372399832023880	0.109692
H	0.6387792676252163 0.5383671640532964 -0.0283748303111563	0.104372
H	0.7050957544569580 0.4610339156743874 -0.0295050586704445	0.085480
H	0.7847144791275716 0.3900986913982353 -0.0288395728467110	0.104710
H	0.8555055015873489 0.3342880266580979 -0.0273994594463244	0.121097
H	0.9386217375565823 0.2580342023264869 -0.0368857510898368	0.109223
H	0.0629979693676968 0.1181560232737345 -0.0372757694863805	0.109657
H	0.1388346773108618 0.0384147772220095 -0.0283864098462366	0.104310
H	0.2050733818377945 0.9610094800308504 -0.0294972464824205	0.085459
H	0.2846973639173741 0.8900775061248145 -0.0288396882876032	0.104641
H	0.3555007478295527 0.8343226237655469 -0.0274102518592986	0.121160
H	0.4386687227448782 0.7580712439307101 -0.0368899330909294	0.109179
H	0.4383341598239592 0.3828896426258601 0.4626525897954946	0.107443
H	0.3622670718780511 0.4624423028088373 0.4714921288580088	0.103528
H	0.2952446016670258 0.5385805511976202 0.4704027043390157	0.085114
H	0.2156717984744004 0.6097163788309697 0.4711933995664514	0.104433
H	0.1462062884138757 0.6674811979895006 0.4725830188527534	0.121561
H	0.0629854673170934 0.7437405089739223 0.4630574288085346	0.109462
H	0.9383257097447057 0.8828441799890889 0.4626277111058092	0.107668
H	0.8622137130462143 0.9624166644124079 0.4714538862931207	0.103587
H	0.7952583206289258 0.0385850906402475 0.4703866793491763	0.085130
H	0.7156954578205692 0.1097317220783267 0.4711791367094246	0.104328
H	0.6462193553301887 0.1674700098336660 0.4725450081265625	0.121273
H	0.5629587898208559 0.2437500687579874 0.4629827110823027	0.109339
H	0.5624662459857647 0.3817267232332237 0.4622941356351443	0.109951
H	0.6385817483026889 0.4618714396458629 0.4713896419414009	0.101760
H	0.7050237541905243 0.5387269925693809 0.4704481282159233	0.084733
H	0.7845665141407918 0.6097881411412558 0.4711005835643609	0.105177
H	0.8545704986630382 0.6668779336645891 0.4728276820084114	0.122839
H	0.9374083059259843 0.7429592681670482 0.4633896801539301	0.108537
H	0.0623847791969462 0.8818369545214990 0.4622925751278993	0.109437
H	0.1385459289624709 0.9619414843930701 0.4713857258523608	0.101789
H	0.2050569745776804 0.0386999912773664 0.4704551273006353	0.084728
H	0.2845911136506299 0.1097749683970207 0.4711014642556997	0.105161
H	0.3546293338343646 0.1668163275275622 0.4728328277381661	0.122718
H	0.4374764502347660 0.2428731670121605 0.4633569036726242	0.108341
H	0.4376719089608305 0.6172593563653200 -0.0369687400373727	0.106692
H	0.3618048439898467 0.5381633223027644 -0.0283517387362132	0.104350
H	0.2955500660739585 0.4607431800851919 -0.0296196848397471	0.085884
H	0.2157211496217067 0.3900304854780364 -0.0287728898587111	0.103240
H	0.1454380298777868 0.3335896458781603 -0.0276886457695605	0.119768
H	0.0620200001569320 0.2568644746187372 -0.0374301649528717	0.108989
H	0.9377380465640205 0.1171884306420583 -0.0369745313680769	0.107005
H	0.8618377235717608 0.0381295349730013 -0.0283462220256228	0.104359
H	0.7955323141674616 0.9607538833067282 -0.0296031145811636	0.085815
H	0.7157026288063449 0.8900461399588240 -0.0287775114146921	0.103435
H	0.6453888553023238 0.8336762208432141 -0.0276851447977225	0.119843
H	0.5619387160853206 0.7569720352575791 -0.0374337832801648	0.109131
H	0.4383127202906593 0.3829119614032119 0.0373381302221513	0.107614
H	0.3622412394649500 0.4624604252920509 0.0285419369316872	0.103540
H	0.2952424348217092 0.5385802068016753 0.0296193979740852	0.085048
H	0.2156685730741287 0.6097164305226873 0.0288068988058613	0.104440
H	0.1462037497510192 0.6674854315486677 0.0274155217765666	0.121546
H	0.0629862487589181 0.7437430658415971 0.0369143459934880	0.109458
H	0.9383181057791955 0.8828579491790246 0.0373623281724941	0.107724
H	0.8622104008602737 0.9624279209719806 0.0285329275561470	0.103427
H	0.7952541371838514 0.0385950294860256 0.0296042976152237	0.085157
H	0.7156914970809664 0.1097408179816882 0.0287998744105592	0.104379
H	0.6462280143743665 0.1674689057443192 0.0274266956044255	0.121462
H	0.5629760823902822 0.2437553948710584 0.0369299164573696	0.109423
H	0.5629868756353796 0.6181129305486740 0.5372081388940360	0.109736
H	0.6387776046465421 0.5383792523020007 0.5283493404323514	0.104333
H	0.7050914985462191 0.4610352630237018 0.5294719910408413	0.085516
H	0.7847104668715591 0.3901006003626384 0.5288247278538835	0.104802
H	0.8554987947591852 0.3342961075564966 0.5273799401185963	0.121180
H	0.9386167001758566 0.2580432622863255 0.5368652035566701	0.109314
H	0.0629952010946574 0.1181610456904147 0.5372500932317764	0.109694
H	0.1388335632618784 0.0384200816969729 0.5283756712836598	0.104294
H	0.2050683239899892 0.9610150898275222 0.5294796843941912	0.085350
H	0.2846922322492700 0.8900838361324620 0.5288319964610485	0.104756
H	0.3554964792923362 0.8343179488642896 0.5274115210404060	0.121118
H	0.4386629715919157 0.7580556145122817 0.5369369187731412	0.109261
Co	0.5001199336438669 0.6880657398464125 0.7500294885064805	0.571943
Co	0.0001204259671020 0.1880573953870719 0.7499793594136223	0.571469
Co	0.5000596334059305 0.3116977669520711 0.2499183582146780	0.572341
Co	0.0000567949994162 0.8117101297400425 0.2499644852250341	0.572096
F	0.5001687144179422 0.6861116586277526 0.4723621374850843	-0.603653
F	0.0001477502539039 0.1859502313339258 0.4724760065512258	-0.603810
F	0.4993928876326809 0.3141105574677381 -0.0271737631374711	-0.603848
F	-0.0004784574582719 0.8141667522291413 -0.0272137245320620	-0.603590
F	0.5002002639313907 0.6859838234292126 0.0274540580746221	-0.603649
F	0.0001447631726010 0.1859864469312172 0.0275837435190533	-0.603734
F	0.4994110131394696 0.3140473806040069 0.5275390269719051	-0.603993
F	-0.0004908178166629 0.8141432764732319 0.5274506441269805	-0.603606
F	0.4723685541848632 0.7782382349102772 0.2494211486890132	-0.635254
F	0.5811736530961895 0.6511290246729431 0.2499727079501246	-0.627766
F	0.9700272511066135 0.2776888121617683 0.2502966354197860	-0.635943
F	0.0819520623105718 0.1545775028187833 0.2499930058896860	-0.628101
F	0.5824035309293171 0.2938535864798116 0.7505928416977325	-0.634663
F	0.4712080448026670 0.4122475204942989 0.7501770423011005	-0.624681
F	0.0820879365164698 0.7901846274885644 0.7501334185940365	-0.634697
F	0.9744388219792768 0.9132384609070918 0.7501396242182807	-0.624871
F	0.4363599801397458 0.6107375868290933 0.2500380683938436	-0.620244
F	0.9377100023190785 0.1094712622808923 0.2499892109998879	-0.621161
F	0.4337036210386681 0.2469372846340933 0.7503383980186065	-0.633558
F	0.9324281664140539 0.7491015804135344 0.7501130841906217	-0.633608
N	0.4414909792064879 0.6208942195853165 0.7500022746183597	-0.182916
N	0.5596812953152223 0.7543558658269405 0.7500028906827095	-0.189084
N	0.9415152925466010 0.1208572283120045 0.7499903928277882	-0.182190
N	0.0596995836109420 0.2543138262058595 0.7499869365466951	-0.188809
N	0.5588197982801463 0.3787175341545625 0.2499673201658707	-0.180190
N	0.4402967466458779 0.2455326450853305 0.2499542761187236	-0.191341
N	0.0587952417942940 0.8787512122026310 0.2499877784554151	-0.180279
N	0.9402708870292945 0.7455766442115734 0.2499842836021939	-0.191056
N	0.5588871204814526 0.6210234006780055 0.7499852677791088	-0.179679
N	0.4406938141247068 0.7546252049038348 0.7500212228015168	-0.191086
N	0.0588935962714927 0.1210250253968182 0.7499846926129032	-0.178846
N	0.9406838767499898 0.2546012023687727 0.7499897180139276	-0.191013
N	0.4415483982242119 0.3789848922799297 0.2499832006600670	-0.182676
N	0.5599256289929085 0.2457031069522407 0.2499498424230480	-0.189000
N	0.9415389861745552 0.8789720062670212 0.2499943648744304	-0.182332
N	0.0599292076960550 0.7457154962173964 0.2499866988662571	-0.189323
In	0.4979979260124093 0.6823502939056795 0.2499172117624079	1.546874
In	-0.0020262442768288 0.1825862498515500 0.2500288776770637	1.548357
In	0.4970572649224202 0.3161645070407762 0.7502309969888499	1.551937
In	-0.0024044060771331 0.8162313591278825 0.7500941818714870	1.551228
	  	
