#======================================================================

# CRYSTAL DATA

#----------------------------------------------------------------------

data_VESTA_phase_1


_pd_phase_name                         InFFIVE_14_Fe_i
_cell_length_a                         13.40818
_cell_length_b                         13.39548
_cell_length_c                         8.29843
_cell_angle_alpha                      88.15781
_cell_angle_beta                       87.93326
_cell_angle_gamma                      89.21342
_symmetry_space_group_name_H-M         P 1
_symmetry_Int_Tables_number            1

loop_
_symmetry_equiv_pos_as_xyz
   x, y, z

loop_
   _atom_site_label
   _atom_site_fract_x
   _atom_site_fract_y
   _atom_site_fract_z
   _atom_site_charge
C	0.5722609740339131 0.2642498290977034 0.3632161780945564	-0.179207
C	0.4688274611389023 0.2677425546149148 0.3667122045485193	0.110202
C	0.9379744141215032 0.2878303094725844 0.4117333148205617	-0.173989
C	0.0410888724786413 0.2818691586218248 0.3945931432397218	0.109503
C	0.2624822761318272 0.5722409326357695 0.3651808004901561	-0.178776
C	0.2654783164999073 0.4686785898782393 0.3693623545976791	0.110144
C	0.2962706550966558 0.9380462289960152 0.4079737140559210	-0.173783
C	0.2899387684316484 0.0412953239972662 0.3915385395020981	0.108760
C	0.9298205028571073 0.2348456153661286 0.1371393712361808	-0.183814
C	0.0333144513491367 0.2312169213677519 0.1306695947776217	0.108782
C	0.5664478965128624 0.2097280874022060 0.0892494836249082	-0.168859
C	0.4631926729891118 0.2175393827030411 0.1020674185657006	0.104342
C	0.2115138910282904 0.5656874849142903 0.0896679832505438	-0.170255
C	0.2190538534856372 0.4623892505721753 0.1030169206790007	0.104274
C	0.2317576783824319 0.9293982475766464 0.1407983121885483	-0.183842
C	0.2280787043079704 0.0329584361965900 0.1348227287019801	0.109854
C	0.4297532033340158 0.7364273238843405 0.6382386423410992	-0.182797
C	0.5332080720992518 0.7329818550808788 0.6317436894331340	0.110908
C	0.0662173194162877 0.7282483134517949 0.5807230252635018	-0.166580
C	0.9629312039355213 0.7333950670200562 0.5952806940229340	0.103621
C	0.7368021932518628 0.4296975372698369 0.6376059685042027	-0.184335
C	0.7339748782096870 0.5332633172003600 0.6311319273308839	0.112260
C	0.7166630660054238 0.0660183701065069 0.5850006976259290	-0.166009
C	0.7230876415157650 0.9626683045722166 0.5982421239626609	0.104163
C	0.0717318947622730 0.7583535788078710 0.8655289774257490	-0.180626
C	0.9682227937022161 0.7599001373577682 0.8700416360261766	0.110059
C	0.4378717705899790 0.7801372438827905 0.9175189492147552	-0.169871
C	0.5409770468009604 0.7746809807944401 0.9000736678889391	0.111414
C	0.7801887664183267 0.4381556710779123 0.9167999616200221	-0.172347
C	0.7751888768417929 0.5413112030382420 0.8994420584214511	0.111118
C	0.7624142355889585 0.0718682020373264 0.8633180933010449	-0.177435
C	0.7648757724105253 0.9683290278055400 0.8669015806872342	0.111214
C	0.6227568167666352 0.2354492611557791 0.2203523552313078	0.193423
C	0.8805027193323962 0.2626484404702497 0.2815915863583874	0.193714
C	0.2357459555006627 0.6223686678465454 0.2213984796947742	0.193531
C	0.2654232273236060 0.8803263941095006 0.2813713059466270	0.192966
C	0.3804236320356940 0.7602240449957250 0.7848371134473209	0.192842
C	0.1223863193449225 0.7423398145483913 0.7170797571783146	0.193469
C	0.7599609382015200 0.3805443145620273 0.7841835053963484	0.193534
C	0.7381113879475927 0.1223546531127727 0.7184778668990150	0.192555
H	0.6131870086989847 0.2798845005952637 0.4703494731785863	0.108054
H	0.4268802020977025 0.2860708579613024 0.4768292983304584	0.088817
H	0.9023313377266664 0.3109695393234702 0.5245359875309658	0.125938
H	0.0883502780566255 0.3008492805716435 0.4927675893044759	0.084748
H	0.2766901547548236 0.6137543367877778 0.4725127103182411	0.109107
H	0.2817408407614951 0.4271899585906479 0.4805399156696912	0.090231
H	0.3243498113574624 0.9026198396269969 0.5173988451371725	0.126032
H	0.3135666894953011 0.0887842695888442 0.4868066176071019	0.086053
H	0.8876219760058298 0.2194444787419686 0.0312409044006264	0.109163
H	0.0739482591922556 0.2097489943370400 0.0205070754492141	0.090555
H	0.6031657351173254 0.1847817684271343 0.9784791738265103	0.124921
H	0.4180169698412157 0.2001822931818240 0.0002870377043707	0.093927
H	0.1883344457303364 0.6019374072444558 0.9777875000839199	0.125674
H	0.2034210783525017 0.4169575734901582 0.0006021324444468	0.093917
H	0.2120133103428662 0.8868605362368062 0.0372966827660225	0.110624
H	0.2024651608875077 0.0735883495810237 0.0276172481417343	0.090697
H	0.3878344068870799 0.7234460217946372 0.5309709840469514	0.106118
H	0.5740878312864887 0.7144424019095116 0.5203320278303530	0.089019
H	0.1030701559043100 0.7142173084866786 0.4647258635526484	0.124410
H	0.9180949899585744 0.7238759371955624 0.4901281823917756	0.091769
H	0.7241671737886575 0.3874709527335211 0.5303612667052561	0.106831
H	0.7160153669917791 0.5741102252114016 0.5197776042984802	0.089760
H	0.6959282832444583 0.1028339087996259 0.4723012723444526	0.125200
H	0.7086155032403356 0.9176763214728672 0.4948283449241830	0.091983
H	0.1123722417047274 0.7661763256640449 0.9757518786212303	0.105900
H	0.9264969368427611 0.7679543269874183 0.9840757496966822	0.090706
H	0.4022018092982727 0.7991974968546254 0.0324293463768727	0.126158
H	0.5880665370420929 0.7896074632028112 0.0002680135170180	0.082258
H	0.7989233390488506 0.4025587035321794 0.0315938691846522	0.127114
H	0.7901047154336677 0.5886025006983798 -0.0003718195608674	0.081761
H	0.7756528643803209 0.1126486579793881 0.9718538632203061	0.106503
H	0.7795445426949061 0.9264441999501423 0.9783587367018732	0.091026
N	0.7760954845370478 0.2719956459617406 0.3027668653378673	-0.122368
N	0.2756260603895003 0.7757643211036560 0.3007840961239728	-0.122207
N	0.7271516185701183 0.2258898862953994 0.2006919488818952	-0.111748
N	0.2261747488939880 0.7268236447956268 0.2028224536834435	-0.113699
N	0.2267597896930444 0.7350170577259626 0.6945266249371517	-0.107075
N	0.7295306252823655 0.2268152229326662 0.6974629639832193	-0.111662
N	0.2759769284971313 0.7686591677026358 0.8084529408338517	-0.118819
N	0.7684272555775810 0.2760834010011787 0.8068139640497755	-0.117005
N	0.4144207822766997 0.2465966210094062 0.2383277846032776	-0.250866
N	0.0888270281878338 0.2534717283796880 0.2573536006646543	-0.247769
N	0.2460433259438421 0.4139161965730841 0.2403170827207099	-0.253714
N	0.2557130290039986 0.0886963675261725 0.2582614349297961	-0.247764
N	0.5888238744893024 0.7517584790986133 0.7601462520160175	-0.247173
N	0.9138465160417312 0.7488702412649588 0.7374441691291017	-0.252305
N	0.7526515806587116 0.5890361188239418 0.7595979649276139	-0.248083
N	0.7468705892783348 0.9137868528701816 0.7367557767377816	-0.252104
F	0.3864183167994064 0.1901322719309041 0.7402125929693054	-0.589044
F	0.2044775261335372 0.3887603014453080 0.7414100722415219	-0.588152
F	0.1347971863073667 0.1430916863376211 0.7745657356491016	-0.596034
F	0.6961194534204876 0.8889218608628913 0.2411000753948954	-0.584192
F	0.8881676914535765 0.7008225147664218 0.2407793137992628	-0.581030
F	0.6392199090753661 0.6403664637323332 0.2688438449512279	-0.593674
F	0.2526282927036991 0.2516043761377996 0.4905670415429315	-0.540752
F	0.2492748360364745 0.2477430666808011 0.0080395282881156	-0.538725
F	0.7474460851157397 0.7479559711820334 0.5077543437987194	-0.536356
F	0.7531633402764746 0.7536960874063666 -0.0099261490607090	-0.538129
In	0.2451649472739008 0.2432734377489364 0.7502988978254128	1.554238
In	0.7442313260654402 0.7459708095921314 0.2497104401232920	1.551450
Fe	0.2515995100958977 0.2512395223428145 0.2486968998007835	0.866759
Fe	0.7513116665737937 0.7513957134075274 0.7482822647750971	0.868899
	  	
