#======================================================================

# CRYSTAL DATA

#----------------------------------------------------------------------

data_VESTA_phase_1


_pd_phase_name                         InFFIVE_15_Fe_i
_cell_length_a                         30.07945
_cell_length_b                         29.32782
_cell_length_c                         8.24064
_cell_angle_alpha                      89.99995
_cell_angle_beta                       90.00011
_cell_angle_gamma                      89.99391
_symmetry_space_group_name_H-M         P 1
_symmetry_Int_Tables_number            1

loop_
_symmetry_equiv_pos_as_xyz
   x, y, z

loop_
   _atom_site_label
   _atom_site_fract_x
   _atom_site_fract_y
   _atom_site_fract_z
   _atom_site_charge
C	0.9315437559047564 0.1013814900148548 0.8905569098806613	0.097932
C	0.8999459874750833 0.0669125369232777 0.8964246885249820	-0.168068
C	0.7697215222631573 0.9362432020258190 0.8981233354189625	-0.117594
C	0.7358079030941486 0.9043045083638512 0.8979144464813397	-0.116562
C	0.5693666300783411 0.7434414316263739 0.8904328838758313	0.094607
C	0.6029091606136356 0.7759119521384307 0.8960903016307500	-0.170235
C	0.4322136915881588 0.6012419198483520 0.8902411076425559	0.105885
C	0.4004020996230079 0.5669731059030680 0.8964058214602451	-0.167600
C	0.2697342220107342 0.4362356447568520 0.8979663122332857	-0.114294
C	0.2358004457769582 0.4042739141560794 0.8977520592624043	-0.116444
C	0.0694631622555811 0.2427547899245735 0.8901253460190518	0.104492
C	0.1028242591875538 0.2754224691653873 0.8960552294762064	-0.170420
C	0.0683015875272646 0.8985459279835047 0.3903202131985700	0.107175
C	0.0996702534099935 0.9332243983923665 0.3964844819347794	-0.168181
C	0.2303492901307474 0.0638146936986810 0.3980100990566177	-0.114878
C	0.2642823904782976 0.0957509585610571 0.3978440662448454	-0.115084
C	0.4307587860522046 0.2570010384092511 0.3901454042566961	0.104544
C	0.3971131421118790 0.2246422126076100 0.3960663467951679	-0.170759
C	0.5678723693827948 0.3991648616423507 0.3905654974138734	0.098554
C	0.5995412218171017 0.4335641732795317 0.3964226406363732	-0.166975
C	0.7302199184653518 0.5637063088077150 0.3982114372041073	-0.116455
C	0.7641373503404432 0.5956121924361935 0.3979691970053552	-0.115909
C	0.9298793729777134 0.7570276437069056 0.3905425523828084	0.096173
C	0.8964751422034557 0.7244270821393705 0.3961766187208849	-0.170488
C	0.0679899902000588 0.1015492563850701 0.6097492448470546	0.106856
C	0.0994772856620900 0.0669691284966861 0.6035827124170644	-0.168141
C	0.2301849840141006 0.9363895969630589 0.6019641232783188	-0.114812
C	0.2640925302453227 0.9044169678875292 0.6021709124977975	-0.116110
C	0.4306278075189803 0.7434427197664999 0.6095770832597852	0.094806
C	0.3970775373718148 0.7759216887630654 0.6039214772146415	-0.170090
C	0.5677659124396260 0.6012832182748099 0.6097491174765041	0.105127
C	0.5995653937763662 0.5670073715642558 0.6035773133851375	-0.167200
C	0.7301470959749495 0.4363359554305122 0.6019434238687607	-0.113940
C	0.7641091779349344 0.4044256476624606 0.6021555682864030	-0.116899
C	0.9300777940005074 0.2428350568674215 0.6095679657913093	0.095186
C	0.8966295735946554 0.2754211185138587 0.6039185290035425	-0.170294
C	0.9313471543451295 0.8987590688121972 0.1093620543049701	0.097816
C	0.8998149561362767 0.9332855586566420 0.1034969178481534	-0.165674
C	0.7695618629791439 0.0639429290241349 0.1019080197528323	-0.117594
C	0.7356129979451742 0.0958484933449843 0.1020661144056760	-0.116160
C	0.5691998890429981 0.2570316077605217 0.1098515826113700	0.104932
C	0.6028444505120656 0.2246745584219013 0.1039333612500375	-0.170755
C	0.4321187199181175 0.3991514105539110 0.1094437224017304	0.098921
C	0.4004429411738986 0.4335597242867508 0.1035933987539692	-0.166547
C	0.2696560090265788 0.5638034465872935 0.1018966880454862	-0.117164
C	0.2357550271917120 0.5957672305028424 0.1021358928367481	-0.115227
C	0.0696364617907744 0.7572318784841056 0.1097892460823992	0.104124
C	0.1029357098376151 0.7245141281889627 0.1038709108452152	-0.170931
C	0.0683014366636050 0.8985459124466357 0.1096794579385277	0.107197
C	0.0996701570265414 0.9332244094267018 0.1035155876789635	-0.168209
C	0.2303491795154327 0.0638147049038636 0.1019897731589951	-0.114870
C	0.2642823698953934 0.0957510492653076 0.1021557663423079	-0.115090
C	0.4307587934610282 0.2570011666096423 0.1098544323823807	0.104559
C	0.3971131409423080 0.2246423072570186 0.1039336660339738	-0.170769
C	0.5678725676454808 0.3991648274129566 0.1094335252545731	0.098525
C	0.5995413504519920 0.4335642087897560 0.1035767352873493	-0.166874
C	0.7302198858614268 0.5637062963541669 0.1017885249538933	-0.116467
C	0.7641373243744793 0.5956121886547835 0.1020308067235620	-0.115886
C	0.9298794419516382 0.7570274567633375 0.1094570982584444	0.096158
C	0.8964751527800336 0.7244269752481908 0.1038230588816073	-0.170453
C	0.9315438176363595 0.1013813391338447 0.6094426461917083	0.097882
C	0.8999460287064197 0.0669124510443232 0.6035748497732463	-0.168082
C	0.7697215072344753 0.9362431715880535 0.6018766173187544	-0.117666
C	0.7358078940360381 0.9043044806523304 0.6020854494027277	-0.116543
C	0.5693664432527278 0.7434414921783942 0.6095673058928083	0.094622
C	0.6029091307237197 0.7759120148215343 0.6039099276445585	-0.170270
C	0.4322137018363235 0.6012418673165565 0.6097595216065861	0.105892
C	0.4004021459855023 0.5669731429383166 0.6035944041108339	-0.167602
C	0.2697341983606665 0.4362356342833363 0.6020335880642012	-0.114292
C	0.2358004158592838 0.4042739032627016 0.6022477878701580	-0.116452
C	0.0694630479320483 0.2427548164545270 0.6098743215073210	0.104444
C	0.1028242081816161 0.2754224861146854 0.6039448815577946	-0.170388
C	0.9313472967503561 0.8987587596931502 0.3906377918166051	0.097833
C	0.8998151688784751 0.9332856026119978 0.3965027093677599	-0.165654
C	0.7695619254000531 0.0639428771100878 0.3980921061244926	-0.117609
C	0.7356130549641686 0.0958484393793060 0.3979336761024457	-0.116136
C	0.5691999618295640 0.2570313930654323 0.3901480779087422	0.104878
C	0.6028444186241965 0.2246744497914455 0.3960669220864738	-0.170746
C	0.4321189018920591 0.3991514170682740 0.3905560815609124	0.098915
C	0.4004430317498198 0.4335596871441059 0.3964061169454125	-0.166552
C	0.2696560689358944 0.5638033896229759 0.3981033772676694	-0.117179
C	0.2357550747130969 0.5957671765230522 0.3978638741365136	-0.115189
C	0.0696366722635254 0.7572318479832789 0.3902101678936410	0.104201
C	0.1029358451727550 0.7245141258136251 0.3961292125690773	-0.170936
C	0.0679901119752773 0.1015492702072152 0.8902498334794954	0.106735
C	0.0994773288896288 0.0669691780224136 0.8964173547249458	-0.168115
C	0.2301850527332083 0.9363895419425752 0.8980356483433529	-0.114796
C	0.2640925844457077 0.9044169254706055 0.8978291557210164	-0.116137
C	0.4306279431289414 0.7434426396820303 0.8904226489574204	0.094793
C	0.3970776157618457 0.7759215937353587 0.8960781261665154	-0.170068
C	0.5677660025527212 0.6012831573565283 0.8902506849839038	0.105216
C	0.5995654607707184 0.5670072942855622 0.8964226050634994	-0.167248
C	0.7301471535458482 0.4363358913844225 0.8980563935334384	-0.113974
C	0.7641092271049291 0.4044255924661809 0.8978445901226986	-0.116925
C	0.9300777470007660 0.2428348936758337 0.8904319714506134	0.095170
C	0.8966295355476740 0.2754210474833422 0.8960808599170276	-0.170265
C	0.6547543731402021 0.8260712317908692 0.7500004142604008	-0.103071
C	0.8832549388883907 0.0489722659381686 0.7499998216400685	0.160959
C	0.8214260254322803 0.9854926912803119 0.7500000215983837	-0.102614
C	0.6205805280815576 0.7930839568602993 0.7500001757929572	0.166469
C	0.7872135604414690 0.9526361880435270 0.7500000475580398	0.127948
C	0.7183687687180805 0.8876686530776415 0.7499998704441493	0.137789
C	0.6841792826869483 0.8547273163721949 0.7499999292077294	-0.103960
C	0.8505404105423078 0.0144836762684244 0.7499998141182054	-0.102815
C	0.1544875077504228 0.3259980695101073 0.7500000968669829	-0.107660
C	0.3834973818256101 0.5491455132668903 0.7499999488181932	0.163551
C	0.3214876115452582 0.4856909344970786 0.7499999993972056	-0.095486
C	0.1204091221187484 0.2927997984645828 0.7500000483253348	0.170971
C	0.2872741366860923 0.4527192607367793 0.7500000072509719	0.128167
C	0.2182622452372378 0.3875902078851547 0.7499998799113869	0.137583
C	0.1839650944854532 0.3546472322936796 0.7499999085030035	-0.097919
C	0.3505680128960119 0.5147644516971142 0.7499996811527013	-0.109147
C	0.3452907658645256 0.1743253898965190 0.2499998870659812	-0.107507
C	0.1161959480450916 0.9513802128009846 0.2500000244880279	0.162292
C	0.1784718392671889 0.0145842311854890 0.2500000273574479	-0.097772
C	0.3792818835918557 0.2075817650924786 0.2499998744221212	0.171815
C	0.2128144980707610 0.0473845118712296 0.2499998442859065	0.127388
C	0.2817985155398045 0.1124156901966772 0.2499998583182291	0.137797
C	0.3160263314948653 0.1454457433638149 0.2499997109952301	-0.098002
C	0.1491220282293440 0.9857898496439507 0.2500000868138026	-0.108939
C	0.8450532085636019 0.6738600834205742 0.2499998779659684	-0.103291
C	0.6162048865779409 0.4514987012703886 0.2499998282568046	0.159780
C	0.6785167484471588 0.5144606515514922 0.2499999113034347	-0.104432
C	0.8788533719087709 0.7072627244691254 0.2499998601937003	0.167199
C	0.7127653264958718 0.5473075594406480 0.2499998989028115	0.126375
C	0.7815867536852782 0.6121668195402543 0.2500000588894778	0.138261
C	0.8157851944285642 0.6450425634662585 0.2500000668144344	-0.103565
C	0.6492460163400745 0.4856338410587751 0.2499999196662327	-0.105768
C	0.3452003057257199 0.8261218961863722 0.7499996277477891	-0.101141
C	0.1160727890932183 0.0488527875459180 0.7500001307179101	0.164358
C	0.1783328225331194 0.9856769245966622 0.7499998050072023	-0.098089
C	0.3793957635740403 0.7931035733745668 0.7499996905987409	0.166426
C	0.2126550912073878 0.9528465838679575 0.7499997676900545	0.126330
C	0.2815551245324103 0.8877461084500737 0.7500000955527639	0.139731
C	0.3157626792967214 0.8547836246490423 0.7500001822715513	-0.104438
C	0.1490147301246553 0.0145043075810413 0.7500003987227523	-0.112842
C	0.8451381505014912 0.3260355879826042 0.7499994885885714	-0.102531
C	0.6164487287439601 0.5491746218953283 0.7500001678210536	0.163644
C	0.6784184282177056 0.4857210930411724 0.7499997962424100	-0.094227
C	0.8789599085801337 0.2926229866560414 0.7499996460651631	0.166442
C	0.7126246895578886 0.4527761282925954 0.7499998146271109	0.126617
C	0.7816242708641769 0.3878119811880324 0.7500001361929629	0.139182
C	0.8158645602622803 0.3548787202773389 0.7500001963395960	-0.104074
C	0.6493432101970917 0.5147944912803262 0.7500002598969066	-0.111060
C	0.6546448454443496 0.1743713367149949 0.2500001876949595	-0.109932
C	0.8831667400955066 0.9512308773283596 0.2499999975221742	0.158664
C	0.8213036938655840 0.0147420273503850 0.2500001994892109	-0.102200
C	0.6206679937614625 0.2076202729697196 0.2500000615296422	0.171750
C	0.7870602452802444 0.0475748330325236 0.2500001479553834	0.130696
C	0.7181230100896790 0.1124746723628446 0.2499998231442369	0.134294
C	0.6839027222635193 0.1454953805579861 0.2499998053734188	-0.096255
C	0.8504400603730505 0.9857660281783441 0.2499996498130544	-0.101152
C	0.1545132685275051 0.6739242664523123 0.2500003953711715	-0.108879
C	0.3837680640323727 0.4515051612439998 0.2499997199008663	0.158543
C	0.3214101211728962 0.5144882889909843 0.2500001698199542	-0.104676
C	0.1204561371267520 0.7071426002782564 0.2500001995499548	0.171472
C	0.2871387580279302 0.5473602150478908 0.2500001482491087	0.128207
C	0.2182780078392026 0.6124004423156508 0.2499998063951163	0.137027
C	0.1840033510938530 0.6452982891206166 0.2499997517519705	-0.096709
C	0.3506954530361385 0.4856540552615555 0.2499996300800381	-0.104385
H	0.9451230935696058 0.1150200639729830 0.0031637502764215	0.089686
H	0.8885983041502660 0.0539914493259895 0.0133429215486032	0.120203
H	0.7832248536160040 0.9489592671585457 0.0123255915130806	0.107253
H	0.7223018452285315 0.8916628490824433 0.0120726126531843	0.114383
H	0.5561313292761205 0.7294950317308769 0.0030851014128873	0.088672
H	0.6154248522518793 0.7874637431321573 0.0131031747587709	0.124989
H	0.4461359406377400 0.6150916505455084 0.0018623420441554	0.083195
H	0.3889264714093838 0.5540953594846206 0.0132088763004318	0.120080
H	0.2831913307606087 0.4488947682482584 0.0123113280827235	0.107090
H	0.2223504176459306 0.3916905367543341 0.0120894687990640	0.114256
H	0.0559910640787784 0.2284755796124795 0.0018013219778715	0.082175
H	0.1152907962737835 0.2870923030526012 0.0129541948058123	0.124543
H	0.0557301935026844 0.8833788207899078 0.5018261528284644	0.084028
H	0.1114999288117297 0.9459148349918532 0.5129918246841787	0.119709
H	0.2168748365545169 0.0511483883420754 0.5122567785279111	0.107011
H	0.2777360800177783 0.1083682994168620 0.5120961461472369	0.114263
H	0.4454736806223915 0.2699596358958891 0.5018039911181340	0.081901
H	0.3849886566786239 0.2125690146272823 0.5129323240367238	0.124733
H	0.5554887595281076 0.3843345669703834 0.5031331057386013	0.089036
H	0.6114427346479955 0.4459676572062241 0.5133188150229565	0.119307
H	0.7167033925693110 0.5509779331806699 0.5123501447062124	0.106718
H	0.7776551723946278 0.6082827612887628 0.5120020752360688	0.114728
H	0.9442711759705484 0.7697204707938083 0.5031065916818415	0.088534
H	0.8844414967622289 0.7121797558383248 0.5128719957773269	0.124464
H	0.0553499512429769 0.1166772896744107 0.4981732323784112	0.083004
H	0.1113197311433146 0.0544318157469535 0.4867937194787050	0.119571
H	0.2167156523504832 0.9490314924104434 0.4876065872381685	0.106512
H	0.2775785634932927 0.8917560866924125 0.4880014064864086	0.114915
H	0.4438746951623104 0.7294901950042838 0.4969395457200622	0.088922
H	0.3845764097393827 0.7874682417431180 0.4868767600849949	0.124973
H	0.5538582704341483 0.6151455296800601 0.4981218316009926	0.082678
H	0.6110661861604370 0.5541207656491414 0.4868110738780315	0.120246
H	0.7166793824303834 0.4490044328666954 0.4876274515040592	0.107140
H	0.7776123401538105 0.3917833781794004 0.4879798012095163	0.114709
H	0.9444757500565147 0.2300907186724479 0.4969713948761649	0.088427
H	0.8846517611020028 0.2875500520201459 0.4868996099012096	0.124687
H	0.9449133313722884 0.8851419142609728 0.9968073537055001	0.089568
H	0.8884607173105439 0.9463306360593621 0.9868375403090673	0.119649
H	0.7830849954747936 0.0511919130449850 0.9878228433419270	0.107757
H	0.7221330232539054 0.1084496298247320 0.9878274383808444	0.114436
H	0.5544905607427102 0.2699959888388342 0.9981790979739211	0.081714
H	0.6149868013904497 0.2125939731448387 0.9870759733389037	0.124634
H	0.4445157693701747 0.3843139472980637 0.9968905968677528	0.089265
H	0.3885608646401794 0.4459611696423787 0.9866590648883248	0.119075
H	0.2831700492427662 0.5510699119656935 0.9877244548881328	0.106678
H	0.2222855897696399 0.6083743698909660 0.9879277049774302	0.114281
H	0.0562029334459720 0.7715349370174844 0.9981791154609493	0.081949
H	0.1154540944775157 0.7127242562347413 0.9872601238899306	0.125147
H	0.0557304667623226 0.8833784844962371 0.9981732399365129	0.084043
H	0.1114999365273169 0.9459147976539073 0.9870083178367656	0.119717
H	0.2168747112764263 0.0511482683272420 0.9877427490195330	0.107002
H	0.2777359549696811 0.1083682761818541 0.9879033220826029	0.114267
H	0.4454739758080637 0.2699593622626345 0.9981957429754200	0.081889
H	0.3849886713120637 0.2125689963089680 0.9870677891176275	0.124756
H	0.5554887190006640 0.3843346091338717 0.9968661655277967	0.088993
H	0.6114428296735475 0.4459677537063665 0.9866805752365084	0.119280
H	0.7167033610181608 0.5509779091897463 0.9876497511918844	0.106718
H	0.7776551400785870 0.6082827352584940 0.9879979847089359	0.114731
H	0.9442711616358669 0.7697204581749095 0.9968932158595377	0.088508
H	0.8844414440132041 0.7121796351578774 0.9871275707310807	0.124447
H	0.9451230713803094 0.1150201114745973 0.4968360870521251	0.089688
H	0.8885982672709783 0.0539913714283845 0.4866566138941685	0.120213
H	0.7832248311858531 0.9489592401774600 0.4876744294377341	0.107262
H	0.7223018225456366 0.8916628198136144 0.4879272325595323	0.114399
H	0.5561315396769745 0.7294951349782096 0.4969137170500002	0.088700
H	0.6154250061248163 0.7874638375987182 0.4868967249861614	0.124999
H	0.4461359623705295 0.6150918570519127 0.4981393178231738	0.083184
H	0.3889266440001246 0.5540955413745381 0.4867915129691159	0.120080
H	0.2831913029121451 0.4488947421841795 0.4876886828510987	0.107090
H	0.2223503656023372 0.3916905140395284 0.4879103169534733	0.114256
H	0.0559913190004653 0.2284752794187545 0.4981981246237236	0.082191
H	0.1152907928798434 0.2870922424751580 0.4870459681418494	0.124542
H	0.9449133380627804 0.8851419320946646 0.5031935184102283	0.089574
H	0.8884607782367993 0.9463306085257955 0.5131620345818394	0.119656
H	0.7830850843413750 0.0511918329727029 0.5121774354863301	0.107749
H	0.7221331109811404 0.1084495491689232 0.5121722031030822	0.114436
H	0.5544909908737292 0.2699962212999298 0.5018198837563890	0.081739
H	0.6149868872747318 0.2125939249072722 0.5129238348541078	0.124635
H	0.4445157849655329 0.3843139067790903 0.5031097814867296	0.089311
H	0.3885609442678806 0.4459611028003990 0.5133403498659033	0.119063
H	0.2831701343047429 0.5510698345838418 0.5122757559699983	0.106672
H	0.2222856662815341 0.6083742785136429 0.5120719352964339	0.114285
H	0.0562026359439463 0.7715346101237731 0.5018192659945069	0.081879
H	0.1154540497514153 0.7127242929199723 0.5127400489108280	0.125142
H	0.0553496488884798 0.1166770166459250 0.0018251569840360	0.082994
H	0.1113196754709875 0.0544318482444375 0.0132063712368355	0.119567
H	0.2167157381493019 0.9490314010842320 0.0123930550805902	0.106510
H	0.2775786405987178 0.8917560123879682 0.0119988516648944	0.114934
H	0.4438747089246181 0.7294901852152195 0.0030611112589273	0.088929
H	0.3845764100946798 0.7874681786092611 0.0131228926815019	0.124980
H	0.5538581733131329 0.6151453115727333 0.0018773832644259	0.082636
H	0.6110661607102212 0.5541207292743243 0.0131889480071287	0.120266
H	0.7166794723401816 0.4490043471434433 0.0123721896142874	0.107144
H	0.7776124323654028 0.3917832996916087 0.0120205201919075	0.114730
H	0.9444757295017516 0.2300908141384948 0.0030293775769536	0.088463
H	0.8846517812227029 0.2875500374593876 0.0130999076411262	0.124676
Fe	0.5000235560035653 0.6736955502602829 0.7499999643753860	0.800503
Fe	0.9993058518822345 0.1729381760815073 0.7499991328482488	0.801500
Fe	0.5000145738603204 0.3276817116594365 0.2499998447944104	0.801870
Fe	0.9992392349073803 0.8270146753352140 0.2500004327951036	0.799197
In	0.4999903301678523 0.6713492725157707 0.2500001266359265	1.545897
In	0.0016455672645741 0.1729700993518984 0.2500001551198731	1.547627
In	0.4999536420342366 0.3255946151706618 0.7499999270292992	1.547267
In	0.0014401953795459 0.8269854721916273 0.7500012924027772	1.548063
F	0.4998847977623007 0.6026941253300540 0.2499778491859181	-0.594763
F	0.9699408276565521 0.2336921938778463 0.2499756290932424	-0.585242
F	0.9699555393104617 0.1123361541775745 0.2499795516962212	-0.581542
F	0.4999040015090708 0.2569189038998901 0.7500393400775296	-0.598612
F	0.9695649344126608 0.7663900249967283 0.7499823532881741	-0.585089
F	0.9695961878206056 0.8875158028321929 0.7499783030777029	-0.581334
F	0.5591216138749937 0.7039967559203604 0.2500259127496192	-0.584140
F	0.0686505714166480 0.1730218194951070 0.2500505617693715	-0.598791
F	0.4407404709030650 0.3579817566583309 0.7499833780699605	-0.583678
F	0.4408428096569750 0.7040292863170263 0.2499901791450916	-0.584728
F	0.5592105692269999 0.3579463900372086 0.7499812534763917	-0.583246
F	0.0684529019994863 0.8269377159908837 0.7500534922445944	-0.598850
F	0.4999413529623471 0.6731731814678277 0.5078812672069536	-0.527381
F	0.9998657389429978 0.1729485295168887 0.5079271095141440	-0.528016
F	0.4999549645101873 0.3273191003235212 0.0079695284589247	-0.528407
F	0.9998895595228786 0.8270284361473382 0.0079854907833902	-0.527945
F	0.4999413189695229 0.6731733004561342 0.9921187360533353	-0.527383
F	0.9998674784340699 0.1729492462390554 0.9920726128505932	-0.527987
F	0.4999539950879227 0.3273159914305663 0.4920297982992748	-0.528427
F	0.9998909108007373 0.8270291347512841 0.4920187143097869	-0.527959
N	0.5525381529116308 0.7271374109784308 0.7500002073496580	-0.245991
N	0.9473107553624358 0.1187102955772792 0.7499997537879576	-0.247551
N	0.0525761922553922 0.2264016723105904 0.7499998256547395	-0.242549
N	0.4480187670880379 0.6186368633632908 0.7500003162330107	-0.239909
N	0.4475115548050502 0.2734924594414733 0.2500001188457820	-0.241393
N	0.0524383760468938 0.8812645020268568 0.2499999623223580	-0.239596
N	0.9465217224210407 0.7734827736060402 0.2499998171904137	-0.246294
N	0.5519919100436140 0.3819431182264550 0.2499992772402889	-0.244249
N	0.4474550943701629 0.7271350499025497 0.7499997966718691	-0.245270
N	0.0520547396666468 0.1188098416501653 0.7499994823075627	-0.240217
N	0.9467776765501819 0.2263919969155871 0.7499999678580385	-0.245113
N	0.5519559170388544 0.6186800386733964 0.7499998796281525	-0.240530
N	0.5524435660649419 0.2735212907565441 0.2499996235180209	-0.242832
N	0.9470512506807807 0.8814021232479072 0.2499995942199259	-0.246589
N	0.0527989570905988 0.7735805881427611 0.2499998941749346	-0.241341
N	0.4479956860968629 0.3819271662450704 0.2499998954943533	-0.243215
	  	
