#======================================================================

# CRYSTAL DATA

#----------------------------------------------------------------------

data_VESTA_phase_1


_pd_phase_name                         InFFIVE_7_Fe
_cell_length_a                         19.42554
_cell_length_b                         19.42723
_cell_length_c                         8.24646
_cell_angle_alpha                      89.91637
_cell_angle_beta                       90.08630
_cell_angle_gamma                      90.01852
_symmetry_space_group_name_H-M         P 1
_symmetry_Int_Tables_number            1

loop_
_symmetry_equiv_pos_as_xyz
   x, y, z

loop_
   _atom_site_label
   _atom_site_fract_x
   _atom_site_fract_y
   _atom_site_fract_z
   _atom_site_charge
C	0.6622289444425185 0.8736199727902575 0.6942283522742612	0.099542
C	0.6118378369393610 0.9243649197685342 0.6979148582979153	-0.179239
C	0.5783105074572624 0.8903460881407287 0.4299606908208123	-0.175432
C	0.6292301456362205 0.8403861289896993 0.4363084377720080	0.102481
C	0.8381102830981356 0.6263735591654392 0.6931586673917285	0.104984
C	0.8883261299839597 0.5755107667396858 0.6977660879657951	-0.180278
C	0.9216661515732314 0.6097097802377773 0.4298265263977875	-0.173861
C	0.8708880591584680 0.6598939592435035 0.4353385707541730	0.095969
C	0.6262923565935700 0.6618968846307920 0.6937447706912240	0.103647
C	0.5754595433089629 0.6116019831156562 0.6978257884080297	-0.177691
C	0.6095449101110139 0.5782222194316097 0.4300627329980124	-0.174004
C	0.6596123994215877 0.6291004771535476 0.4359863498479229	0.099646
C	0.8737425889319647 0.8373035711093596 0.6933510556171774	0.102306
C	0.9243948300816348 0.8878061613520623 0.6977362511805341	-0.179659
C	0.8899096875163267 0.9215986906948398 0.4300453471891359	-0.175383
C	0.8396421821152698 0.8709040167547460 0.4362443859919884	0.099741
C	0.3362997274619597 0.3727918263590143 0.3065436783562619	0.102080
C	0.3867534905995827 0.4234278135613996 0.3023924438815938	-0.178555
C	0.4205805044980641 0.3889210580470833 0.5701489790728671	-0.173240
C	0.3700213610626299 0.3385634583931197 0.5637944387818243	0.097858
C	0.1628805454541456 0.1272351274577498 0.3062702242121152	0.102872
C	0.1126317130890542 0.0764224433225975 0.3023221002286847	-0.176832
C	0.0792587315977170 0.1104809540930081 0.5702312322139053	-0.173786
C	0.1299863324609020 0.1606443451900175 0.5641545136647368	0.101204
C	0.3726012243289215 0.1633134036753872 0.3057816587914561	0.099188
C	0.4233282102989265 0.1129675535926898 0.3022579416539354	-0.177139
C	0.3892827366675624 0.0794474012747726 0.5703363372798780	-0.173541
C	0.3392333477749007 0.1302233207416302 0.5638208699288217	0.103024
C	0.1274028951584412 0.3370117404185784 0.3068145525813549	0.103653
C	0.0765591718801701 0.3871791467289394 0.3023564237166819	-0.177977
C	0.1107547370582532 0.4205576463755523 0.5704226993961810	-0.173201
C	0.1610209256757100 0.3699203319730657 0.5647642306381719	0.097146
C	0.4334200320671373 0.0697694775441731 0.4371671735892217	0.138718
C	0.4868825902481706 0.0172557867163463 0.4339007460590266	-0.122812
C	0.0665010879472865 0.4302885044605503 0.4371184636424428	0.139900
C	0.0129543488920426 0.4827555800249833 0.4338130536251945	-0.122804
C	0.4301093465281407 0.4333330598640419 0.4370721508501740	0.141207
C	0.4826350428504493 0.4868385485649270 0.4338388909893791	-0.125124
C	0.0695215131373431 0.0663373555316588 0.4370757562888250	0.137195
C	0.0170152794747759 0.0128040931087812 0.4338510789990282	-0.121030
C	0.5653735808930002 0.5684363481109976 0.5631701470446858	0.138041
C	0.5117733992090434 0.5158825507465000 0.5659925446442290	-0.121013
C	0.9343182285139752 0.9311960244770146 0.5631246079474471	0.142622
C	0.9878871286161974 0.9837660350220128 0.5660110897805904	-0.125636
C	0.5685855740121288 0.9344853115985579 0.5631156279107392	0.141487
C	0.5160236040261215 0.9880172702438627 0.5659885202989390	-0.123531
C	0.9314668230695268 0.5654395088493764 0.5630782449973939	0.141150
C	0.9839866599788130 0.5118252643682450 0.5659591116122631	-0.123297
H	0.6961035300409670 0.8653912276494462 0.7983469698023071	0.094665
H	0.6068672487280625 0.9564000008405591 0.8057413310808096	0.117172
H	0.5455327577784009 0.8935415699749449 0.3229731311092970	0.115004
H	0.6374528716740664 0.8054489914234499 0.3349585093750483	0.086637
H	0.8039053771201318 0.6348457681748462 0.7959070080765235	0.086739
H	0.8933882571585479 0.5434663828405616 0.8057778743827148	0.115207
H	0.9543973067544688 0.6066528856625445 0.3229712823126307	0.117130
H	0.8630715269771927 0.6946526002646224 0.3327786807860940	0.094465
H	0.6351720316543890 0.6951651861635458 0.7979812752485742	0.091769
H	0.5435989068137679 0.6064575760065896 0.8059266471135642	0.116267
H	0.6063017184245163 0.5456984070216113 0.3228741937207726	0.116854
H	0.6936756943726795 0.6376555580036878 0.3331452194277009	0.092408
H	0.8660944600598384 0.8022899646115940 0.7955259904763374	0.089651
H	0.9566642208554922 0.8927701701226781 0.8054094690798023	0.115679
H	0.8929621986624408 0.9545957014371551 0.3234133976439291	0.116082
H	0.8038040497701826 0.8635688749036777 0.3356561338060461	0.089254
H	0.3012860263079943 0.3650953175674349 0.2044980370364134	0.090266
H	0.3919230192562596 0.4557576241473685 0.1948463446690692	0.115519
H	0.4536595299394937 0.3920158615070859 0.6766449664374282	0.115494
H	0.3626561890207002 0.3025536916197187 0.6638880155801967	0.089806
H	0.1961620105126038 0.1361624808065502 0.2022107511029653	0.092075
H	0.1072649812597587 0.0445288306723905 0.1943369601675901	0.115731
H	0.0466686515792370 0.1071901519354792 0.6772723031151150	0.116991
H	0.1385740561294532 0.1949126092644398 0.6664724355490573	0.092005
H	0.3643405363135340 0.1971689591238832 0.2017994366726116	0.094450
H	0.4554190744416128 0.1077649552463442 0.1945505905056066	0.116565
H	0.3925269533523896 0.0465768327909127 0.6771710785216994	0.114672
H	0.3040624486159411 0.1385079555771838 0.6645659380704851	0.086295
H	0.1359481758716432 0.3027745821390079 0.2043007196238450	0.087509
H	0.0444533175918566 0.3924747556006472 0.1944471596617282	0.114531
H	0.1076584212242879 0.4533806372068903 0.6771173707005378	0.116960
H	0.1959458081999262 0.3620663871130127 0.6668449998160567	0.093894
H	0.5052830265382846 0.0029758544963906 0.3131684774572376	0.102504
H	0.9944670404692132 0.4972884999413812 0.3130913391843259	0.101998
H	0.4971119165463435 0.5053277778268912 0.3132020404365838	0.102930
H	0.0026139229655137 0.9943296390631098 0.3131649911922468	0.101610
H	0.4931371427403212 0.5012590330120573 0.6863297200047279	0.101591
H	0.0065407106012516 0.9984666596960788 0.6862990165973643	0.103587
H	0.5015019642261580 0.0065822986256333 0.6863416999947787	0.102702
H	0.9987578413339080 0.4931601667560364 0.6862858640147247	0.102384
Fe	0.2497777208183504 0.2497970269905511 0.4339273447336517	0.800935
Fe	0.7497985477543538 0.7497995364586612 0.5659655226974969	0.795982
In	0.2507592795886701 0.2508564831138159 0.9342477669764699	1.559150
In	0.7508768921575965 0.7507387933210737 0.0656879646504937	1.558934
F	0.2502870276536593 0.2494653707651996 0.1912409532378706	-0.536749
F	0.2491911950214764 0.2502310135074280 0.6771527512132048	-0.536147
F	0.7495319405498443 0.7503706920775347 0.8080749374930655	-0.535701
F	0.7502395553034265 0.7494128503142756 0.3234878012223535	-0.535543
F	0.1764071396214732 0.1778835342275447 0.9348705034814609	-0.608780
F	0.2257413659851960 0.3518717949465681 0.9369279680588990	-0.609823
F	0.3513500782407001 0.2241771597644923 0.9311119015052725	-0.609699
F	0.7239965249453718 0.8513697952345004 0.0685643279961709	-0.609549
F	0.8519797811049928 0.7256141383165954 0.0632453716259890	-0.609482
F	0.6778570025153172 0.6763068266733754 0.0650582538209168	-0.608386
N	0.3307576690415441 0.1719665578416160 0.4344883440307767	-0.246793
N	0.1693329446709304 0.3282158788255508 0.4353660492297604	-0.246255
N	0.3279503894467416 0.3305479049140133 0.4347946138276238	-0.244079
N	0.1716328328147845 0.1690600730825774 0.4348244595163895	-0.251246
N	0.6681317847565277 0.6708134367104219 0.5652219208999018	-0.250089
N	0.8314997771666979 0.8287737290262442 0.5651234099630140	-0.243530
N	0.6710442103210152 0.8317869695817912 0.5655285794000136	-0.245854
N	0.8291347007379478 0.6683102377138950 0.5646530845881064	-0.244942
	  	
