#======================================================================

# CRYSTAL DATA

#----------------------------------------------------------------------

data_VESTA_phase_1


_pd_phase_name                         InFFIVE_16_Zn_i
_cell_length_a                         25.18486
_cell_length_b                         25.18481
_cell_length_c                         8.16673
_cell_angle_alpha                      90.00338
_cell_angle_beta                       89.99624
_cell_angle_gamma                      89.99909
_symmetry_space_group_name_H-M         P 1
_symmetry_Int_Tables_number            1

loop_
_symmetry_equiv_pos_as_xyz
   x, y, z

loop_
   _atom_site_label
   _atom_site_fract_x
   _atom_site_fract_y
   _atom_site_fract_z
   _atom_site_charge
C	0.4785724670519104 0.3865293234730291 0.3740071197230604	0.099997
C	0.4778531494956730 0.3313794373424813 0.3692739856478106	-0.171725
C	0.9553632672868499 0.6129535646813118 0.9437700036419578	-0.123999
C	0.9554993329018817 0.5577920543224117 0.9445055733556453	-0.126175
C	0.5212170101331559 0.6137915291918783 0.3730771486566887	0.105062
C	0.5221612839056392 0.6688992228156257 0.3680476525452588	-0.170041
C	0.0446626253966206 0.3872127404366700 0.9437537317002116	-0.125179
C	0.0445106914561101 0.4423655510279411 0.9444635588045454	-0.125770
C	0.6137267612061270 0.4787552293416957 0.3749536150856907	0.099753
C	0.6688539013962999 0.4778913113238979 0.3700145449010959	-0.171442
C	0.3872117472809319 0.9553556024069487 0.9437823096721097	-0.124629
C	0.4423617070513172 0.9554909011767345 0.9445394125725052	-0.125575
C	0.3865932070927676 0.5213603001602390 0.3744415477972152	0.101687
C	0.3314817746306441 0.5221466757741577 0.3688473268860771	-0.171429
C	0.6129478616447435 0.0446484644636309 0.9437717983875509	-0.124007
C	0.5577864017828844 0.0444945765968383 0.9444642704543317	-0.126643
C	0.5213608682889713 0.3865927933544031 0.6255568066518309	0.101669
C	0.5221471457830213 0.3314813271327525 0.6311515371609344	-0.171519
C	0.0446483388274077 0.6129477256168009 0.0562257452340375	-0.123945
C	0.0444946221985577 0.5577862056460849 0.0555332603669783	-0.126737
C	0.4787545857691859 0.6137262742288394 0.6250492967121358	0.099758
C	0.4778902611853629 0.6688534719428146 0.6299853786367069	-0.171385
C	0.9553554788813066 0.3872112982379655 0.0562161224465231	-0.124632
C	0.9554907697602749 0.4423615337642775 0.0554599032876159	-0.125635
C	0.3865289363039849 0.4785707940383915 0.6259906461824576	0.100055
C	0.3313789998462188 0.4778520590308392 0.6307255943208013	-0.171711
C	0.6129534909073719 0.9553632591437120 0.0562281594157292	-0.124020
C	0.5577920721288938 0.9554993060031214 0.0554923333162028	-0.125963
C	0.6137925995779360 0.5212172101328892 0.6269262988585994	0.105144
C	0.6689002632260529 0.5221618957124394 0.6319529989080430	-0.170133
C	0.3872127263727800 0.0446627961363410 0.0562446320518538	-0.125113
C	0.4423653904535439 0.0445106106748520 0.0555349397589390	-0.125776
C	0.5446598472339487 0.8872116177979090 0.5562399072998080	-0.125069
C	0.5445054597486173 0.9423668209119349 0.5555266902971199	-0.125767
C	0.0212091321632587 0.1137947299009035 0.1268995193066523	0.104784
C	0.0221558951924981 0.1689031671792073 0.1319502771003446	-0.170174
C	0.4553629673912786 0.1129582939995703 0.5562336539079797	-0.123841
C	0.4555022229556832 0.0577958324979501 0.5554940698388205	-0.126166
C	0.9785693730577193 0.8865267216994656 0.1260126025025202	0.100146
C	0.9778495015510549 0.8313726770018420 0.1307364599472053	-0.171505
C	0.1129501982883839 0.5446492167827975 0.5562267863318208	-0.124002
C	0.0577877858899227 0.5444934240148995 0.5555294213090624	-0.126604
C	0.8865882522984470 0.0213641841420131 0.1255326120489285	0.101703
C	0.8314718428697880 0.0221488602946630 0.1311461123272336	-0.171510
C	0.8872077149222077 0.4553578619674133 0.5562117060497047	-0.124503
C	0.9423596875816072 0.4554961062397734 0.5554519137926218	-0.125663
C	0.1137274941005675 0.9787553652415288 0.1250477550847242	0.099793
C	0.1688559225251582 0.9778876338371126 0.1299638863222524	-0.171619
C	0.4553584539817063 0.8872076735898878 0.4437864152309660	-0.124501
C	0.4554965020913463 0.9423596502424665 0.4445469195316477	-0.125685
C	0.9787555040577378 0.1137270342724631 0.8749536214403477	0.099735
C	0.9778877823301091 0.1688556817628670 0.8700350447292758	-0.171578
C	0.5446494170301091 0.1129501625278161 0.4437714208582555	-0.123912
C	0.5444936005869304 0.0577877490064246 0.4444693127178730	-0.126643
C	0.0213643073965400 0.8865895269484594 0.8744664132174018	0.101637
C	0.0221490109198621 0.8314728756652562 0.8688525290904791	-0.171515
C	0.8872117903666448 0.5446595300251806 0.4437580498866566	-0.125104
C	0.9423669673110424 0.5445054041503656 0.4444719445909668	-0.125675
C	0.1137946319753973 0.0212093173451978 0.8731012321478496	0.104781
C	0.1689029054650167 0.0221559267731539 0.8680479963933107	-0.170223
C	0.1129583462772990 0.4553627055198901 0.4437646620035244	-0.123966
C	0.0577960227346266 0.4555021378388828 0.4445049605267007	-0.126035
C	0.8865267234616616 0.9785700561868761 0.8739883834874981	0.100272
C	0.8313730692612855 0.9778501663398692 0.8692646032316310	-0.171597
C	0.4999580738795559 0.3025346971883850 0.5003400309721794	0.176386
C	0.4999776260890786 0.2462194694348477 0.5004745641635874	-0.117355
C	0.5000175193291841 0.1977835477108850 0.5002165502550368	-0.092235
C	0.5000138393610499 0.1414669665877143 0.5000508691332465	0.122466
C	0.4999980045806635 0.0293184532232890 0.4999902632595670	0.067461
C	-0.0000409514779111 0.8025309371938381 -0.0003485793305358	0.176228
C	-0.0000204661103602 0.7462172999900752 -0.0004877356249300	-0.117323
C	0.0000202213616225 0.6977827351929273 -0.0002206811911209	-0.092329
C	0.0000145610466051 0.6414626093720105 -0.0000517716793235	0.122631
C	-0.0000030928076161 0.5293194424486983 0.0000089935598276	0.067441
C	0.4999742396826140 0.6977172004129133 0.4990136456302521	0.173843
C	0.4999853763373424 0.7540190200350934 0.4991882692213392	-0.115031
C	0.5000199196100512 0.8024318007527588 0.4996357654253947	-0.094579
C	0.5000189076745591 0.8587243789777108 0.4999420207843047	0.125257
C	0.5000003554503608 0.9708209372104838 0.5000202605974881	0.065840
C	-0.0000301786331385 0.1977213179181065 0.0010058393991150	0.174037
C	-0.0000170615993827 0.2540151861105325 0.0008331828016443	-0.115058
C	0.0000218619899114 0.3024309596143689 0.0003787734582692	-0.094778
C	0.0000195744526387 0.3587255205058091 0.0000598046628907	0.125450
C	-0.0000006700717044 0.4708179066512345 -0.0000190811528654	0.065680
C	0.6977174513545461 0.4999749131586491 0.5009863050289735	0.173987
C	0.7540194449047877 0.4999858821385428 0.5008094993921591	-0.115070
C	0.8024316909336219 0.5000195063231544 0.5003613372664615	-0.094594
C	0.8587240896893158 0.5000183604259327 0.5000556704055578	0.125248
C	0.9708211300491686 0.5000002613581812 0.4999791876028493	0.065680
C	0.1977216232946762 -0.0000302997706763 -0.0010084403243179	0.174024
C	0.2540148292223803 -0.0000171079021198 -0.0008371258661195	-0.114995
C	0.3024314944065922 0.0000217035363432 -0.0003829697522726	-0.094795
C	0.3587255081278439 0.0000196265022733 -0.0000615858759130	0.125445
C	0.4708182625876475 -0.0000006693662837 0.0000175116691626	0.065611
C	0.3025347353666246 0.4999577339542496 0.4996592209674821	0.176273
C	0.2462194401212826 0.4999775664270744 0.4995255362662841	-0.117326
C	0.1977835561889890 0.5000171990817130 0.4997829253258188	-0.092257
C	0.1414670401607933 0.5000135432544097 0.4999474610734989	0.122532
C	0.0293186325365035 0.4999979727187162 0.5000089081870320	0.067497
C	0.8025303452106256 -0.0000409314120511 0.0003475783115576	0.176269
C	0.7462169199787659 -0.0000207902512166 0.0004859778816086	-0.117258
C	0.6977827893460574 0.0000201912781698 0.0002190700162741	-0.092392
C	0.6414627059855460 0.0000146135926193 0.0000496123328169	0.122616
C	0.5293195437337045 -0.0000031399210308 -0.0000115088988176	0.067355
H	0.4620336084094172 0.4100163987778911 0.2736830017818866	0.098119
H	0.4604625801876197 0.3108357149726163 0.2649033130250181	0.127250
H	0.9209282687938068 0.6346508265097685 0.8986114014123495	0.111828
H	0.9211978986174392 0.5361804291964881 0.8975034988160966	0.107171
H	0.5371582020227955 0.5901615951078053 0.2727989936550828	0.093347
H	0.5394744706648710 0.6894336143622052 0.2636090576057051	0.125604
H	0.0790847721097499 0.3654831919932971 0.8986101299763649	0.111297
H	0.0788081810667981 0.4639800082454699 0.8974828011623243	0.106322
H	0.5903037008336847 0.4631426737600984 0.2734302394071442	0.099635
H	0.6892889829470149 0.4606788957320412 0.2651938017367363	0.127862
H	0.3654674803384199 0.9209439161923112 0.8986505587210115	0.111836
H	0.4639590660248323 0.9211853738769825 0.8975358865663651	0.106629
H	0.4104233870133788 0.5382254314438086 0.2756313886808833	0.092893
H	0.3109825721300941 0.5395803238628099 0.2644948028107817	0.125461
H	0.6346353129148186 0.0790919407441889 0.8986163261015928	0.111295
H	0.5361643942889662 0.0787905807011395 0.8974698307984609	0.106856
H	0.5382246808048026 0.4104226910724252 0.7243683516860616	0.092939
H	0.5395803299873572 0.3109813453212374 0.7355039082991160	0.125482
H	0.0790914739302142 0.6346352339239427 0.1013812752912260	0.111270
H	0.0787904309793820 0.5361639367032375 0.1025277872873742	0.106858
H	0.4631404864198532 0.5903029921576877 0.7265719337300406	0.099576
H	0.4606772398943692 0.6892888687878661 0.7348052111398404	0.127840
H	0.9209437306902875 0.3654671155274539 0.1013485920991491	0.111896
H	0.9211853596208235 0.4639591718553623 0.1024622299215795	0.106622
H	0.4100159545813608 0.4620309210096299 0.7263139293659701	0.098091
H	0.3108347875555699 0.4604618672829032 0.7350964895376940	0.127214
H	0.6346505457358574 0.9209280743003668 0.1013876388139138	0.111788
H	0.5361805919584414 0.9211977148341601 0.1024950943582904	0.107098
H	0.5901635291913954 0.5371587228079037 0.7272055253510389	0.093328
H	0.6894351306538471 0.5394752472421249 0.7363896257090623	0.125654
H	0.3654835097647485 0.0790849805114172 0.1013888125693818	0.111281
H	0.4639799042801052 0.0788080362159670 0.1025160632457830	0.106325
H	0.5790843231826422 0.8654842522880066 0.6013873595875425	0.111209
H	0.5788040604199526 0.9639796827339320 0.6025061321450604	0.106243
H	0.0371496545572618 0.0901589939193463 0.2271615223965354	0.093378
H	0.0394667972128275 0.1894417157904305 0.2363891891678736	0.125643
H	0.4209219137962348 0.1346569191166838 0.6013946663423323	0.111697
H	0.4211985881116789 0.0361864205740483 0.6024935593740461	0.107139
H	0.9620184097138906 0.9100159808384992 0.2263316630184227	0.098082
H	0.9604591236217968 0.8108265885576960 0.2351018386304893	0.127125
H	0.1346365050955030 0.5790967729877303 0.6013859247053942	0.111280
H	0.0361661952178814 0.5787923661788641 0.6025253581814527	0.106795
H	0.9104194649243746 0.0382302183189576 0.2243349734328127	0.092929
H	0.8109728433605013 0.0395813298848669 0.2355193249340013	0.125493
H	0.8654638209157186 0.4209423625957359 0.6013461905769129	0.111885
H	0.9639550256795881 0.4211912905320213 0.6024528316980667	0.106573
H	0.0903007671272102 0.9631375399934260 0.2265643558291390	0.099588
H	0.1892970624171633 0.9606781090038831 0.2347699329253431	0.127910
H	0.4209431957930485 0.8654636374563176 0.3986525086117129	0.111879
H	0.4211919528498519 0.9639551770745292 0.3975462668119322	0.106548
H	0.9631376439734662 0.0903001017960989 0.7734376984073658	0.099552
H	0.9606784399549110 0.1892966320984051 0.7652280555045913	0.127932
H	0.5790969305828130 0.1346366273580527 0.3986124296721370	0.111246
H	0.5787922729604844 0.0361660350552461 0.3974730793805403	0.106789
H	0.0382302238682856 0.9104211619968114 0.7756651005316328	0.092932
H	0.0395814665534890 0.8109745453177158 0.7644792879612468	0.125492
H	0.8654845166670543 0.5790842764297344 0.3986107382553742	0.111217
H	0.9639797013228480 0.5788043635422628 0.3974921696814697	0.106223
H	0.0901589830883158 0.0371498616833504 0.7728397508938029	0.093382
H	0.1894412172839080 0.0394666562352043 0.7636079703300236	0.125675
H	0.1346567724827099 0.4209214856895895 0.3986037080241602	0.111733
H	0.0361866816952885 0.4211987568262398 0.3975054209444594	0.107093
H	0.9100162303206378 0.9620196404475759 0.7736684717027646	0.098009
H	0.8108274067205058 0.9604599393720965 0.7648966858098519	0.127172
Zn	0.5001929371183278 0.5001919268590609 0.5000021761385894	0.738520
Zn	0.0001795265504048 0.0001803232653964 0.0000045510680561	0.738206
In	0.4989584014261635 0.4989616968574682 0.0000041524930947	1.562228
In	-0.0010678579208076 -0.0010661811820747 0.5000030181824321	1.562674
F	0.5017051977477571 0.4985385795132943 0.2545319186513163	-0.553356
F	-0.0013935505300502 0.0016624621856824 0.7545149582968961	-0.553441
F	0.4985322063481843 0.5016985039181967 0.7454686141745748	-0.553333
F	0.0016577760340547 -0.0013936730418614 0.2454897445724494	-0.553415
F	0.4417525080043500 0.4417259967705423 0.0000118686517286	-0.622157
F	0.9417677686269376 0.9417712629299365 0.5000074729794928	-0.622201
F	0.4765395255454632 0.5767066926195711 0.0084726886963264	-0.623199
F	0.9764310251813757 0.0765650242806153 0.4917082469729242	-0.623072
F	0.5767074387394598 0.4765598734707195 0.9915697344676279	-0.623206
F	0.0765631408450918 0.9764340779902999 0.5082929991063728	-0.623066
N	0.4999574103124103 0.4137298635583198 0.4998946521979021	-0.226196
N	-0.0000431069604736 0.9137297814568109 0.0001457289027079	-0.226160
N	0.4999721696113619 0.5865785846654588 0.4988237804735727	-0.231743
N	-0.0000303024526831 0.0865731880331785 0.0011526684318192	-0.231501
N	0.5865797185777676 0.4999721283825389 0.5011814009948842	-0.231874
N	0.0865734093714774 -0.0000301780188859 -0.0011503094915113	-0.231550
N	0.4137297474605072 0.4999558410677890 0.5001037180526700	-0.226161
N	0.9137290668924901 -0.0000428150023967 -0.0001447231935487	-0.226319
	  	
