#======================================================================

# CRYSTAL DATA

#----------------------------------------------------------------------

data_VESTA_phase_1


_pd_phase_name                         InFFIVE_3_Cd
_cell_length_a                         15.12864
_cell_length_b                         15.12827
_cell_length_c                         8.47605
_cell_angle_alpha                      89.99865
_cell_angle_beta                       89.99940
_cell_angle_gamma                      91.64133
_symmetry_space_group_name_H-M         P 1
_symmetry_Int_Tables_number            1

loop_
_symmetry_equiv_pos_as_xyz
   x, y, z

loop_
   _atom_site_label
   _atom_site_fract_x
   _atom_site_fract_y
   _atom_site_fract_z
   _atom_site_charge
C	0.2569453847333004 0.4555538730241969 0.6244561746546583	0.057817
C	0.2337347608806876 0.0478233301252366 0.6442813661027423	0.063716
C	0.2351328258334294 0.4555142726823422 0.3545679819293449	0.054338
C	0.2565178486134604 0.0475826642098419 0.3751010358314961	0.057623
C	0.0475708701452675 0.2565292252412850 0.3751091480758482	0.057640
C	0.4555159466526653 0.2351400098255650 0.3545628888341827	0.054626
C	0.4555633115781284 0.2569575778738661 0.6244542958325591	0.057789
C	0.0478094848623650 0.2337442088140745 0.6443020422996271	0.063573
C	0.9555156574600768 0.2351281287198639 0.6454434635201204	0.054523
C	0.5475603144007984 0.2565384642447895 0.6248886220250756	0.057683
C	0.5478025239369191 0.2337519396824072 0.3557033002666832	0.063508
C	0.9555697226986654 0.2569588343254691 0.3755487823168832	0.057807
C	0.7337563777771111 0.0478153607788804 0.3556984662404501	0.063719
C	0.7569587744331292 0.4555763479455799 0.3755348584317224	0.057919
C	0.7565399166275971 0.0475601627754740 0.6249076141395188	0.057645
C	0.7351413347924838 0.4555270629965057 0.6454338106615501	0.054586
C	0.4555085256656711 0.7351470479433529 0.6454352672680537	0.054432
C	0.0475607794530359 0.7565332005670166 0.6248951266313533	0.057564
C	0.0478172280304233 0.7337500879441133 0.3557166132180767	0.063589
C	0.4555520351776020 0.7569685209086553 0.3755448525013677	0.057950
C	0.2337406529182123 0.5478192407351326 0.3557099582261626	0.063600
C	0.2569518849305981 0.9555589063328247 0.3755488955955080	0.057797
C	0.2565157382933819 0.5475742974353470 0.6248990875760178	0.057774
C	0.2351307724982336 0.9555155061316263 0.6454313580433304	0.054307
C	0.7569599508651197 0.9555686002509373 0.6244620217350393	0.057820
C	0.7337515342029085 0.5478074065127959 0.6442937367244662	0.063505
C	0.7351423387725028 0.9555342483889309 0.3545512055591142	0.054511
C	0.7565303988062899 0.5475642530440082 0.3750907970291633	0.057548
C	0.5475571281258477 0.7565415255771799 0.3750958048324320	0.057526
C	0.9555223430430285 0.7351437169189486 0.3545657534954808	0.054279
C	0.9555545968802274 0.7569662942072920 0.6244423466293826	0.057789
C	0.5478016694292486 0.7337536086936411 0.6442776351203925	0.063556
H	0.2643188850302400 0.4179088765521077 0.7330487265785915	0.112321
H	0.2219049347168293 0.0851442877938552 0.7524471602691184	0.112592
H	0.2270246965393251 0.4190560335539528 0.2437056353025658	0.115167
H	0.2640509353492402 0.0855114654638953 0.2663170269798201	0.110042
H	0.0855089985590861 0.2640606004930390 0.2663351496722024	0.109925
H	0.4190526824591920 0.2270279963200266 0.2437039971946960	0.115074
H	0.4179155100902241 0.2643345035216499 0.7330515749204702	0.112309
H	0.0851283847423645 0.2219211038331297 0.7524606321097813	0.112637
H	0.9190548263756436 0.2269963772188401 0.7563090268311371	0.115034
H	0.5855025856605243 0.2640755935997223 0.7336575525811894	0.110044
H	0.5851318746216126 0.2219234915808146 0.2475545035490964	0.112733
H	0.9179197723164889 0.2643433186638037 0.2669707384295945	0.112275
H	0.7219255209316426 0.0851561378994054 0.2475650526002405	0.112638
H	0.7643359189054891 0.4179219437375806 0.2669516350102180	0.112270
H	0.7640736035291020 0.0855018353783390 0.7336706670651910	0.109930
H	0.7270221246968501 0.4190513137798916 0.7562914933564646	0.115102
H	0.4190480472618048 0.7270320948476218 0.7563027350668902	0.115181
H	0.0854901267152243 0.7640636323856388 0.7336856125201477	0.109975
H	0.0851413503563318 0.7219225435019188 0.2475591020189646	0.112614
H	0.4179068134677030 0.7643478404810705 0.2669492686216092	0.112256
H	0.2219173387246947 0.5851407231903405 0.2475485674925058	0.112603
H	0.2643268863055668 0.9179165808193154 0.2669577993034055	0.112324
H	0.2640455811126938 0.5855024912299184 0.7336791189142302	0.109981
H	0.2270082729149988 0.9190543690642463 0.7563078224687227	0.115062
H	0.7643311167218796 0.9179081624999417 0.7330318865479386	0.112346
H	0.7219229236311925 0.5851379462634626 0.7524477112050014	0.112719
H	0.7270276268532345 0.9190623074329035 0.2437028378890787	0.115142
H	0.7640517363183862 0.5855154762429543 0.2663183864453056	0.110013
H	0.5854921970653880 0.7640781116480572 0.2663120233011385	0.110057
H	0.9190739082730855 0.7270258096670846 0.2436873122973462	0.115114
H	0.9179072765672337 0.7643484794951864 0.7330357845421756	0.112263
H	0.5851276172541421 0.7219258139485859 0.7524309311605104	0.112639
Cd	0.2513713902391105 0.2513719153871685 0.4966687716366615	0.822882
Cd	0.7513642680479770 0.2513684268776970 0.5033103160968097	0.822664
Cd	0.2513594585322063 0.7513828263839994 0.5033694031519409	0.822723
Cd	0.7513658592850349 0.7513628007547986 0.4966374803772699	0.822786
In	0.2545205990998092 0.2545613040407070 -0.0051251252167732	1.547009
In	0.7545556691619594 0.2544438672902834 0.0051117620652702	1.547031
In	0.2544557172962018 0.7545663397288916 0.0051540436976212	1.547274
In	0.7546126994206847 0.7544184898347082 -0.0051753555518778	1.547303
F	0.2739208302947990 0.2739644388900256 0.7512610169399447	-0.566228
F	0.2334657046056131 0.2335256357585844 0.2379153144243529	-0.571079
F	0.1613321808545029 0.1614108484600906 -0.0644537767665619	-0.589537
F	0.2229494720328704 0.3832785373020933 0.0169449689920191	-0.595553
F	0.3832271358355675 0.2229579059046131 0.0169371765434361	-0.595516
F	0.7332017412987019 0.2334361980245507 0.7621418464730958	-0.571010
F	0.7740408584015216 0.2740026183761778 0.2486727026924018	-0.566232
F	0.6613790814645013 0.1612698775933757 0.0647417693570823	-0.589759
F	0.7229862790381507 0.3831703015624814 -0.0169563291766988	-0.595536
F	0.8831717630775654 0.2227920143914587 -0.0170544418105163	-0.595240
F	0.2333801836840317 0.7333810896080734 0.7621458908616547	-0.571076
F	0.2739083302656102 0.7740239436208791 0.2487619035376002	-0.566347
F	0.1613742968849272 0.6612873785900037 0.0645160835725922	-0.589665
F	0.2228891782308632 0.8832360372336309 -0.0169241611638530	-0.595421
F	0.3832011158740609 0.7229879595385682 -0.0169647830751306	-0.595641
F	0.7739928534129965 0.7740042427604110 0.7512683969030665	-0.566231
F	0.7334280773745206 0.7333458674987803 0.2378250245986941	-0.571152
F	0.6615291187350120 0.6611025725536944 -0.0645406538838430	-0.589697
F	0.7229912366689603 0.8831223105050862 0.0169192426251329	-0.595665
F	0.8832890926098007 0.7229284836337653 0.0169262370245831	-0.595549
N	0.4099800011574060 0.2471638946733921 0.4888564302946119	-0.205948
N	0.0933268718961336 0.2453921809206639 0.5093140935516740	-0.203703
N	0.2471570998450055 0.4099918404255792 0.4888610168497163	-0.205811
N	0.2453788685360086 0.0933218391945225 0.5092965405014734	-0.203780
N	0.9099844593671322 0.2471623294134353 0.5111486816857529	-0.205782
N	0.5933223965146650 0.2453995398468956 0.4906868194878972	-0.203750
N	0.7471676306764766 0.4099799088931218 0.5111413983261325	-0.205771
N	0.7454025927229944 0.0933358048991883 0.4907044632035324	-0.203868
N	0.4099777232073448 0.7471756679616729 0.5111464136762853	-0.205773
N	0.0933193540336065 0.7453960524288206 0.4907077283658755	-0.203589
N	0.2471608547341023 0.9099963661465434 0.5111451041844548	-0.205575
N	0.2453811748465480 0.5933188235315188 0.4906989664303018	-0.203794
N	0.9099859146719642 0.7471747098675533 0.4888454864294556	-0.205554
N	0.5933105454814928 0.7454045217358928 0.5092933918405365	-0.203592
N	0.7471662504933418 0.9099823016706893 0.4888498881028693	-0.205823
N	0.7453917565024459 0.5933351413204858 0.5092971965503905	-0.203867
	  	
