#======================================================================

# CRYSTAL DATA

#----------------------------------------------------------------------

data_VESTA_phase_1


_pd_phase_name                         InFFIVE_13_Co_i
_cell_length_a                         15.19668
_cell_length_b                         15.19838
_cell_length_c                         8.29674
_cell_angle_alpha                      90.83196
_cell_angle_beta                       89.04147
_cell_angle_gamma                      89.55124
_symmetry_space_group_name_H-M         P 1
_symmetry_Int_Tables_number            1

loop_
_symmetry_equiv_pos_as_xyz
   x, y, z

loop_
   _atom_site_label
   _atom_site_fract_x
   _atom_site_fract_y
   _atom_site_fract_z
   _atom_site_charge
C	0.5443640267698878 0.6837919930719544 0.8827414672543500	0.104257
C	0.5479761299618795 0.7749801998559304 0.8808674130770268	-0.148429
C	0.4580570971564960 0.3185384412096056 0.8859755403739361	0.100338
C	0.4552017847753094 0.2272450444284987 0.8866230491449060	-0.141367
C	0.8234945391522924 0.9673004652228991 0.3700409728313185	0.096598
C	0.7319479889307582 0.9662568772134438 0.3655650457805192	-0.133648
C	0.3198739723891388 0.5464414018596057 0.8831684811876002	0.099217
C	0.2286184847431787 0.5505489090799999 0.8801970537323497	-0.148795
C	0.1812290241380196 0.9795454419089199 0.3637205619692638	0.085655
C	0.2728573910028894 0.9778619454343747 0.3607830311133445	-0.131742
C	0.6851431534838122 0.4624315344528829 0.8828364810957130	0.100818
C	0.7764183509241457 0.4593216901284867 0.8821813482860592	-0.140473
C	0.4560251507144635 0.6860057746297186 0.1145904432652655	0.100091
C	0.4527214450096198 0.7772885111800060 0.1173403347741332	-0.137908
C	0.5455423357447235 0.3221810915614177 0.1138626970989952	0.097700
C	0.5491966246421859 0.2309677075214589 0.1190424211465418	-0.148702
C	0.1773474219688640 0.0170136517198174 0.6358982011762099	0.101365
C	0.2687777271988715 0.0177598596336290 0.6424077870622665	-0.132696
C	0.6808196794455667 0.5473697847616636 0.1185234246440840	0.104366
C	0.7720083671501016 0.5512684963028445 0.1226205048286061	-0.147340
C	0.8205751395696423 0.0275982909796251 0.6285907632609424	0.094278
C	0.7290642970844863 0.0283412897209477 0.6340121181973434	-0.134466
C	0.3170613943316871 0.4558164176658505 0.1072430093768054	0.099419
C	0.2257620124334225 0.4532679448542421 0.1084472794082929	-0.140615
C	0.9672098232207603 0.8211563423922505 0.6263710909335058	0.096584
C	0.9657902135049256 0.7296550755328287 0.6306404297154881	-0.134530
C	0.9842196769066666 0.1786190263295479 0.6390982024922045	0.083545
C	0.9831667153680210 0.2702433925414030 0.6433083148864959	-0.134446
C	0.0268658851472631 0.8184820429067308 0.3671399597727925	0.094655
C	0.0273562055046539 0.7269479416137941 0.3615741099204878	-0.133325
C	0.0209222518033029 0.1758017070292543 0.3664438725281485	0.100908
C	0.0222778738976160 0.2672235519563986 0.3611839964252198	-0.133851
C	0.0024137991337901 0.3161447210052512 0.5018927653821257	0.057654
C	0.0013268357192963 0.4130813908122241 0.5006442342432335	0.252902
C	0.5003922991206121 0.8222785781852823 0.9993262470863256	0.059547
C	0.5010209062512111 0.9187603460459104 0.0022709537782082	0.250602
C	0.9969593136944394 0.6808034598444619 0.4964276154567865	0.054463
C	0.9982467709256296 0.5836973058180240 0.4975237117433879	0.244915
C	0.5021662575886828 0.1830173916138205 0.0046530785324882	0.059097
C	0.5019219689894799 0.0865169835584248 0.0072586233869673	0.251497
C	0.6830351468175303 -0.0026548765347109 0.4998389060103133	0.054609
C	0.5859230705825215 0.9967664284606105 0.5014008822066905	0.244822
C	0.1810987705676073 0.5023174361512110 0.9938306462453319	0.059414
C	0.0846170285586412 0.5033533001231161 0.9955090192609553	0.251165
C	0.3182425266114724 0.9973987327799990 0.5024431441110860	0.055233
C	0.4152112685489467 0.9966406745952492 0.5035118953543963	0.254383
C	0.8202998979469003 0.5052970180499931 0.0034557819110240	0.058835
C	0.9168248433341785 0.5049163891848091 0.0033392156118903	0.251890
H	0.5769522836484060 0.6432029990792858 0.7900834745136686	0.101491
H	0.5859486808523933 0.8085408298554375 0.7880470887087753	0.126087
H	0.4258736268496609 0.3563057815332673 0.7924188561174170	0.107436
H	0.4192833832410641 0.1907614074474937 0.7951834462302888	0.123916
H	0.8628714275984252 0.9430004207122431 0.2674106263187742	0.099485
H	0.6999053970251021 0.9415434047242329 0.2576490425527219	0.128981
H	0.3604923641767864 0.5801693762965073 0.7939536217060892	0.104266
H	0.1953113126374491 0.5895684873821767 0.7901209230791678	0.127980
H	0.1452434795687369 0.9668250548944072 0.2531994727638156	0.100733
H	0.3074590475915486 0.9623079926734655 0.2477583925570133	0.123842
H	0.6475498124851669 0.4322089905964410 0.7861820404897645	0.109626
H	0.8132894389723122 0.4244903244121124 0.7869733396042435	0.122579
H	0.4244659498953112 0.6475771617211548 0.2089519799921839	0.109979
H	0.4167586589179622 0.8132325411458802 0.2122967191469477	0.122257
H	0.5782034039221112 0.3631323738262252 0.2035276633832343	0.104139
H	0.5866227305015775 0.1979811666348838 0.2117129316108608	0.127922
H	0.1373412807781919 0.0299988993255188 0.7434408623766104	0.096491
H	0.3001729866894957 0.0325709109936459 0.7566147981052520	0.127922
H	0.6394881952950218 0.5782225720422284 0.2120675251374595	0.101990
H	0.8045382618926076 0.5879540593248472 0.2180290450434346	0.127222
H	0.8582148810857261 0.0502178490714907 0.7313895485027443	0.093644
H	0.6945389057610586 0.0522244549678095 0.7422983364046961	0.126697
H	0.3553001383525681 0.4223003323555301 0.1984825144676723	0.107164
H	0.1895373995142703 0.4163473879495365 0.1991278492427659	0.122295
H	0.9435432257430638 0.8605021171248772 0.7293891513272581	0.100054
H	0.9412551390205544 0.6974619113498771 0.7386862948372022	0.128864
H	0.9713376706964418 0.1422982467320865 0.7493684658676986	0.100546
H	0.9682092520890724 0.3043204982996286 0.7570062229601729	0.127173
H	0.0494709105137682 0.8561767365716357 0.2641541642617357	0.093182
H	0.0509614870156824 0.6926623904075028 0.2528301309920347	0.126248
H	0.0332941211436237 0.1361729982551371 0.2583452438273672	0.098478
H	0.0369785711826068 0.2991911753796263 0.2472819370931335	0.127760
N	0.9577303020207449 0.5430584817742159 0.6219006172881973	-0.157657
N	0.4226543496887701 0.0470899920556329 0.0111791666960855	-0.157180
N	0.5429666688815822 0.0378054722293729 0.6256270811270955	-0.159027
N	0.9572348613163895 0.4254730291611255 0.0000936097032960	-0.150729
N	0.0405565881243366 0.5405688981444796 0.3749057199847968	-0.158110
N	0.5807351399136841 0.0450096123950858 0.0063831274494340	-0.158577
N	0.9573498870727291 0.5835968352207983 0.0043690591011639	-0.154951
N	0.5451189147338541 0.9540887157731912 0.3800014077290113	-0.155937
N	0.0430265928027819 0.4537215924406827 0.3776163937103876	-0.154279
N	0.5802896348308570 0.9582177160649191 -0.0005982341310810	-0.154954
N	0.4582623256151980 0.9535135582179667 0.3818348790046940	-0.152530
N	0.0441469292789704 0.5827477189031841 0.9962290006834775	-0.159099
N	0.9584107236493437 0.4562050001098995 0.6224325596483645	-0.153008
N	0.4222628188809538 0.9603189632095150 0.0122579595589601	-0.147601
N	0.0440520405252749 0.4247094035558097 -0.0005733106667326	-0.155145
N	0.4560047865859836 0.0382839993511102 0.6261373489178338	-0.157785
N	0.0019692396631827 0.1315775787243183 0.5026642341654792	-0.182483
N	0.5002516580662532 0.6404799151961625 0.9983494730809378	-0.188538
N	0.9981623033420925 0.8654737500856531 0.4973458340460179	-0.178981
N	0.5013484264604439 0.3646897360709760 -0.0010418164306863	-0.184575
N	0.8676928072026115 -0.0019384024291219 0.4990911031030906	-0.179042
N	0.3628181936637712 0.5006583796368702 0.9955059619929592	-0.183908
N	0.1336216585889309 0.9981373233837475 0.4993011172798318	-0.183031
N	0.6385183476364836 0.5047259729971343 0.0001371691949841	-0.190423
Co	0.0003400715446776 0.9982920069243446 0.4996682558961605	0.653540
Co	0.5004956703360601 0.5024934308226331 0.9984935898467282	0.600118
In	-0.0056489949927457 0.9923992139516110 0.9998970079992610	1.539723
In	0.4937665701777301 0.4974465572657629 0.4989625867945868	1.562462
F	-0.0000966721390974 -0.0019910867197221 0.2500807565288745	-0.527521
F	0.5045858007041558 0.4991696169178997 0.7543513488681988	-0.573696
F	-0.0026967810356278 0.9958503561776925 0.7492823083847876	-0.526749
F	0.4941685064404125 0.5062870682870660 0.2428558655023952	-0.574688
F	0.9003924571124708 0.8984544044453764 0.0029846297996870	-0.590765
F	0.4042162893713211 0.3994725028218530 0.5014067717714767	-0.626373
F	0.9568505230061131 0.1212831859070300 0.9963104257867897	-0.584441
F	0.4457259616434558 0.6220882484285036 0.5140210113885280	-0.626381
F	0.1228474099640624 0.9534967031863963 0.0015204438383309	-0.585627
F	0.6221916071984037 0.4611165088309583 0.4817877690529686	-0.626991
	  	
