#======================================================================

# CRYSTAL DATA

#----------------------------------------------------------------------

data_VESTA_phase_1


_pd_phase_name                         InFFIVE_4_Cd_i
_cell_length_a                         24.38250
_cell_length_b                         21.34438
_cell_length_c                         9.45304
_cell_angle_alpha                      90.00098
_cell_angle_beta                       90.00026
_cell_angle_gamma                      89.95780
_symmetry_space_group_name_H-M         P 1
_symmetry_Int_Tables_number            1

loop_
_symmetry_equiv_pos_as_xyz
   x, y, z

loop_
   _atom_site_label
   _atom_site_fract_x
   _atom_site_fract_y
   _atom_site_fract_z
   _atom_site_charge
C	0.4108818591396883 0.5924491828886366 0.6288792756112163	0.105665
C	0.3683175359627906 0.5492957770966331 0.6264884998971234	-0.171480
C	0.2761631908432437 0.4503207381483417 0.6259794543265600	-0.118433
C	0.2323274491810045 0.4088498865421742 0.6248350871330481	-0.114376
C	0.1356177514673792 0.3243912785123543 0.6235204563938032	-0.172007
C	0.0906533771763261 0.2845132093213061 0.6275541921343086	0.100484
C	0.9109178669097180 0.0924036606246526 0.6288877701834716	0.106472
C	0.8683420523623412 0.0492615616154165 0.6264937037395152	-0.171848
C	0.7761360930062727 0.9503421898134407 0.6259910955427012	-0.118534
C	0.7322871488384404 0.9088873554005842 0.6248489254182721	-0.114380
C	0.6355800863869059 0.8244372664189776 0.6235144834093065	-0.172067
C	0.5906201201508353 0.7845481346100612 0.6275460617736373	0.100729
C	0.5896415328887571 0.4067972777200273 0.1291275440580299	0.104370
C	0.6318817290091028 0.4503940149759222 0.1264444440938283	-0.176104
C	0.7242739802028907 0.5491471424163796 0.1260267702643135	-0.117068
C	0.7678843628906562 0.5908817622778397 0.1248337061948413	-0.113630
C	0.8638995184328779 0.6760571808852930 0.1234094157087747	-0.169964
C	0.9087488991175501 0.7160997100039297 0.1271794546356978	0.098974
C	0.0895372993286928 0.9069901574141299 0.1291519139433055	0.104966
C	0.1318210917522387 0.9505251288371869 0.1264550288122662	-0.176276
C	0.2243079566951031 0.0491381341771004 0.1260306563426003	-0.117177
C	0.2679384058114221 0.0908479226303891 0.1248267571858458	-0.113105
C	0.3639675482749499 0.1759987878862836 0.1233939198800885	-0.170512
C	0.4088248930069116 0.2160311482584843 0.1271510582467031	0.098759
C	0.5902915640639710 0.5936879415718982 0.8711248482480248	0.103661
C	0.6322872834424585 0.5496976679817444 0.8736211101206429	-0.176605
C	0.7243445643146825 0.4503700564544124 0.8740179786192348	-0.121125
C	0.7682398046057572 0.4089420754899608 0.8751616244783765	-0.110889
C	0.8653244188444229 0.3250465060112712 0.8765393590095435	-0.169345
C	0.9105119824079484 0.2854008968004972 0.8727085724647604	0.098990
C	0.0903121977739483 0.0937281881304638 0.8711317345336743	0.103577
C	0.1323117537509373 0.0497470842932187 0.8736225810362158	-0.176775
C	0.2243206649946164 0.9503537626310172 0.8740240029467440	-0.120986
C	0.2682126019114516 0.9089190400570248 0.8751655846670628	-0.110895
C	0.3653208147349453 0.8250622560229657 0.8765486808449722	-0.169764
C	0.4105175601382702 0.7854243718601245 0.8727148293611452	0.099261
C	0.4119314452862113 0.4085609857196500 0.3710361091821362	0.105203
C	0.3690048192820845 0.4513152969365682 0.3735120307567515	-0.173971
C	0.2759794567335175 0.5493001497648551 0.3739819493939076	-0.117731
C	0.2322892162096567 0.5910221824461104 0.3751790014561184	-0.114423
C	0.1365292960640259 0.6768773843987465 0.3765671748982639	-0.169919
C	0.0918001338527984 0.7171791962789139 0.3726998287974979	0.097166
C	0.9119349829670323 0.9085448254123283 0.3710957096407805	0.105220
C	0.8689995214848064 0.9512925934169141 0.3735632326543447	-0.173914
C	0.7759882906401739 0.0492896033140792 0.3739855266888472	-0.117802
C	0.7323045297138909 0.0910058192088867 0.3751688981558532	-0.114561
C	0.6365363769781539 0.1768401301594034 0.3765539744691287	-0.170886
C	0.5917943756524058 0.2171266866799422 0.3726588254853402	0.098177
C	0.5896463585993098 0.4067893216832759 0.3708330172894035	0.104332
C	0.6318862048777206 0.4503861235662420 0.3735405357596701	-0.176117
C	0.7242763855253728 0.5491424738282045 0.3739949931705094	-0.117116
C	0.7678864591051383 0.5908798952720590 0.3751972048365823	-0.113556
C	0.8639011591619234 0.6760575283641513 0.3766213924534496	-0.169919
C	0.9087508717699539 0.7160997486925216 0.3728447544396517	0.098647
C	0.0895364841530835 0.9069883229487035 0.3708552169323384	0.104904
C	0.1318202373084479 0.9505228307563571 0.3735616031470489	-0.176114
C	0.2243137024432736 0.0491366663432297 0.3740076586093982	-0.117245
C	0.2679441655492329 0.0908467356530707 0.3751912664781974	-0.113016
C	0.3639678254638644 0.1760000023220907 0.3766115047955213	-0.170441
C	0.4088262947702551 0.2160337718465504 0.3728223487746866	0.098903
C	0.4108819334459365 0.5924585201381097 0.8711190163470107	0.105769
C	0.3683175711810232 0.5493053773724704 0.8735277743443322	-0.171655
C	0.2761558520835358 0.4503274205105255 0.8740234468385317	-0.118218
C	0.2323214138632939 0.4088540496146330 0.8751638329313096	-0.114373
C	0.1356191997273351 0.3243944001726704 0.8764769487743543	-0.172135
C	0.0906550236481481 0.2845149098441553 0.8724517254655489	0.100471
C	0.9109235347469018 0.0924006460868813 0.8711290006703309	0.106603
C	0.8683489675375770 0.0492569574085741 0.8735330034241369	-0.171637
C	0.7761389797942340 0.9503368382011083 0.8740344632994591	-0.118361
C	0.7322897959486317 0.9088845922473446 0.8751794955215126	-0.114470
C	0.6355809365431755 0.8244334853650799 0.8764916990603530	-0.172207
C	0.5906208886852113 0.7845436161694814 0.8724611421277695	0.100671
C	0.4119241180717090 0.4085655732163271 0.1288650134892688	0.105311
C	0.3689989230835340 0.4513212149718447 0.1264425040149696	-0.174144
C	0.2759800627670537 0.5493037095559746 0.1260426172380002	-0.117780
C	0.2322899703735903 0.5910259815953343 0.1248493242019646	-0.114344
C	0.1365336335641299 0.6768785986175970 0.1234575492207894	-0.170146
C	0.0918056408659273 0.7171817389330389 0.1273098795875449	0.097408
C	0.9119372189896551 0.9085474846083356 0.1289436170012358	0.105306
C	0.8690026613012050 0.9512960872257848 0.1264784219384009	-0.173987
C	0.7759942303194810 0.0492882632224326 0.1260414165792606	-0.117678
C	0.7323100410766354 0.0910058338008743 0.1248485752457841	-0.114650
C	0.6365341616469741 0.1768344721553489 0.1234320389548560	-0.170783
C	0.5917889380596395 0.2171176399985092 0.1273199724828532	0.097918
C	0.5902874380454113 0.5936805789204980 0.6289013235829624	0.103294
C	0.6322814318159969 0.5496877795845133 0.6264053546853104	-0.176518
C	0.7243393725958349 0.4503623547773609 0.6259947566503715	-0.120957
C	0.7682360673964326 0.4089353567072314 0.6248431959937328	-0.110662
C	0.8653281989421806 0.3250492878045469 0.6234618473989078	-0.169456
C	0.9105156637619199 0.2854036543100184 0.6272916855025051	0.099082
C	0.0903164504233891 0.0937306569414273 0.6289038528384566	0.103432
C	0.1323155022771349 0.0497476799531656 0.6264165111251850	-0.176715
C	0.2243205937321153 0.9503550794023489 0.6260000599594862	-0.121079
C	0.2682123667636230 0.9089214161540859 0.6248532674063026	-0.110877
C	0.3653206311088532 0.8250676436907028 0.6234573905767565	-0.169625
C	0.4105184896733715 0.7854319032932973 0.6272855265822719	0.099108
C	0.3448872179526883 0.5236484379563690 0.7500039072595898	0.112424
C	0.2997055957358513 0.4753979713043517 0.7500065801886018	0.069184
C	0.2078065182011924 0.3875834233078825 0.7499956603808858	0.064652
C	0.1598058384890102 0.3453993651701848 0.7500020224644804	0.106444
C	0.8448998193200198 0.0236264559537769 0.7500080550911145	0.111857
C	0.7996958964814082 0.9753983739091897 0.7500166426501661	0.069076
C	0.7077639103627115 0.8876243106946849 0.7500098516667645	0.064882
C	0.6597654872260554 0.8454373014723841 0.7500115766998943	0.106473
C	0.6553800082726192 0.4760464528209986 0.2499971751939828	0.113936
C	0.7006414189791399 0.5241728374505665 0.2500065984168180	0.067638
C	0.7921688883341501 0.6124094632562451 0.2500171974760999	0.069498
C	0.8399034596654513 0.6549395679352203 0.2500130755564273	0.100894
C	0.1553433490930872 0.9761370709861782 0.2500150591470379	0.113770
C	0.2006561132292775 0.0241964465929024 0.2500151346200196	0.067719
C	0.2922278971720590 0.1123704939605502 0.2500094045695635	0.068713
C	0.3399587697293663 0.1549002371165966 0.2500012331617527	0.101575
C	0.6556042545755481 0.5238213620367017 0.7500141271218642	0.108177
C	0.7007323811260503 0.4754106753634290 0.7500051209935276	0.065260
C	0.7927945051950162 0.3877421315591217 0.7500054942386211	0.069952
C	0.8410006670860628 0.3457893387160836 0.7499967308572476	0.102263
C	0.1556170885862063 0.0238601747263347 0.7500237940774517	0.108348
C	0.2007237977565813 0.9754187651151910 0.7500129555228165	0.065157
C	0.2927781915024925 0.8877309778246427 0.7500122664620082	0.069687
C	0.3409940619199033 0.8457917270092020 0.7500029843087632	0.102707
C	0.3452429927880452 0.4766004098634985 0.2499845299828126	0.116974
C	0.2996869524771971 0.5243988494383097 0.2500101284307454	0.070452
C	0.2080044252051038 0.6126385788979508 0.2500134439901116	0.064602
C	0.1603868785514125 0.6554408233143747 0.2500154439444017	0.104045
C	0.8452481575905765 0.9765757718151850 0.2500219580822031	0.116958
C	0.7996928268350061 0.0243791488907178 0.2500187005363934	0.070466
C	0.7080161542582221 0.1126139360241493 0.2500012765861214	0.064487
C	0.6603949971426388 0.1554066724493635 0.2499986015086998	0.105100
H	0.4281242261043417 0.6104190738365474 0.5301549139424409	0.100195
H	0.3552561573590958 0.5376194235461165 0.5213845233204629	0.105081
H	0.2913233010932852 0.4620090549858442 0.5226625422810515	0.088009
H	0.2174726839625493 0.3934006765818329 0.5219001014431726	0.102508
H	0.1512722355849429 0.3385420159561264 0.5205929854993038	0.115979
H	0.0711990857783104 0.2670160811193579 0.5311619509993958	0.098577
H	0.9281967972910922 0.1103287638174128 0.5301614221230346	0.099993
H	0.8552933403149169 0.0375866901278068 0.5213751017404419	0.105039
H	0.7912994164244295 0.9620112021431387 0.5226777012044266	0.087978
H	0.7174245395173497 0.8934445836133251 0.5219284378206986	0.102554
H	0.6512243609606582 0.8385924879593860 0.5205765127715724	0.116206
H	0.5711582610493434 0.7670486402351467 0.5311623990353581	0.098640
H	0.5723312173701497 0.3881692070520194 0.0311302926981025	0.100344
H	0.6448563412010436 0.4626495416163985 0.0215410187887234	0.101952
H	0.7094838728698756 0.5371131725441659 0.0226276610298077	0.086945
H	0.7828231084096664 0.6063235097679484 0.0220060080613733	0.104128
H	0.8484248213506400 0.6620243974701636 0.0201911011716193	0.119303
H	0.9278171017019207 0.7333936145339861 0.0299806329000609	0.100451
H	0.0721417022084849 0.8884249048807309 0.0311926313463272	0.100136
H	0.1448048610079426 0.9627616525667104 0.0215482863555568	0.102016
H	0.2095241377837670 0.0371038309056354 0.0226221076799916	0.086975
H	0.2828931594180067 0.1062743894992411 0.0220072895985546	0.103807
H	0.3485247695180695 0.1619325507887289 0.0201830208799780	0.119548
H	0.4279455141004317 0.2332778976592288 0.0299698051732581	0.100779
H	0.5733647283734851 0.6124181514618802 -0.0304171716363375	0.103805
H	0.6452442385782319 0.5376342519794810 -0.0213340305404251	0.105282
H	0.7093142790395995 0.4621472783719460 -0.0226182887629166	0.088143
H	0.7831601517083244 0.3934976701451589 -0.0219857318837546	0.103968
H	0.8498163633050804 0.3392603238290393 -0.0204007399157557	0.117370
H	0.9301586105986472 0.2686270357691498 -0.0303653072720871	0.101489
H	0.0733743856609847 0.1124541592350831 -0.0304108037425539	0.104011
H	0.1452879671047776 0.0377213086826056 -0.0213227869705005	0.105631
H	0.2092769466257623 0.9621178568985587 -0.0226132572704629	0.087940
H	0.2831276139501667 0.8934636483112670 -0.0219867941932409	0.103859
H	0.3498089937995084 0.8392591154740288 -0.0203877341370569	0.117569
H	0.4301799318924212 0.7686379737358151 -0.0303984981511627	0.101484
H	0.4298011476585149 0.3910194494007451 0.4694642559734090	0.100699
H	0.3560135550124420 0.4633182748716953 0.4785249510479457	0.103633
H	0.2909072664662938 0.5373144627699943 0.4773136912291481	0.087148
H	0.2173736370274972 0.6064519724126389 0.4780657259632483	0.102898
H	0.1522654282698821 0.6629836517639844 0.4796157202516366	0.117324
H	0.0729569925336545 0.7351809745665265 0.4695338269121279	0.100800
H	0.9298302862021678 0.8909998112362585 0.4694821312073942	0.101106
H	0.8559832603479931 0.9632890547581174 0.4785626179549710	0.103434
H	0.7909297839651678 0.0373188422804968 0.4773180489396111	0.087234
H	0.7173910909040220 0.1064433351092022 0.4780463870322121	0.102859
H	0.6522938605346318 0.1629387294398759 0.4795849162539272	0.117221
H	0.5729331393778156 0.2351545772636084 0.4694394186802697	0.100621
H	0.5723491481348970 0.3881595136663099 0.4688329293689958	0.100343
H	0.6448597016514325 0.4626313089264096 0.4784574208263663	0.101846
H	0.7094878457299340 0.5371036590376154 0.4773944661248075	0.086823
H	0.7828260336717598 0.6063187220341605 0.4780283674598022	0.104170
H	0.8484288674582430 0.6620260333814274 0.4798384652348675	0.119390
H	0.9278186300502371 0.7333922773683106 0.4700507580911357	0.100573
H	0.0721395099247055 0.8884236065622114 0.4688074887239135	0.100128
H	0.1448074636122993 0.9627551937832648 0.4784766790920791	0.101989
H	0.2095357794895887 0.0370990420044591 0.4774172398018700	0.087047
H	0.2829020380967469 0.1062723353510217 0.4780141158611387	0.103792
H	0.3485299569855404 0.1619398714473233 0.4798324845101682	0.119543
H	0.4279418820104410 0.2332809796189187 0.4700079145507586	0.100719
H	0.4281255796105501 0.6104381966529250 -0.0301602075282066	0.100241
H	0.3552565432507727 0.5376339862909043 -0.0213711723925099	0.105091
H	0.2913093458182155 0.4620206298628204 -0.0226539236133500	0.087978
H	0.2174650519083048 0.3934074911141112 -0.0219067679008971	0.102536
H	0.1512740679311091 0.3385478823210502 -0.0205909865539998	0.116043
H	0.0712023483759650 0.2670182353279589 -0.0311603703576510	0.098610
H	0.9282013298847941 0.1103224512176038 -0.0301390121536292	0.099895
H	0.8553048191770563 0.0375796809138950 -0.0213499915962394	0.105016
H	0.7913053779986452 0.9620031536330667 -0.0226509946748253	0.087989
H	0.7174266707201887 0.8934380880548638 -0.0219060617495264	0.102632
H	0.6512208696222446 0.8385914484582050 -0.0205601676602160	0.116207
H	0.5711581739005074 0.7670455223444649 -0.0311618891218427	0.098598
H	0.4297942814533114 0.3910237690760687 0.0304359606344764	0.100749
H	0.3559961296415432 0.4633263690894572 0.0214424053067423	0.103630
H	0.2909116866596166 0.5373201004348773 0.0227182641725340	0.087181
H	0.2173772060311581 0.6064570484741008 0.0219627255018789	0.102903
H	0.1522742171664456 0.6629834193961496 0.0204161533606137	0.117329
H	0.0729682110405663 0.7351835848702712 0.0304657611362533	0.100684
H	0.9298342395342429 0.8910003013213836 0.0305584006673633	0.101158
H	0.8559891460013701 0.9632943932776136 0.0214750149307852	0.103469
H	0.7909438110187966 0.0373159729271033 0.0227204985641999	0.087046
H	0.7174038643098090 0.1064412489399649 0.0219550099601923	0.102921
H	0.6522906662753475 0.1629295231916284 0.0204073605144493	0.117190
H	0.5729132852490524 0.2351409794473452 0.0305490245610866	0.100553
H	0.5733598537916913 0.6124117018036215 0.5304417364386231	0.103858
H	0.6452349593009533 0.5376170614916502 0.5213632148480383	0.105358
H	0.7093070371270239 0.4621309747879559 0.5226245483754467	0.088062
H	0.7831566318300835 0.3934869658717045 0.5219939250664061	0.103863
H	0.8498226208778744 0.3392618220717968 0.5203981030778237	0.117428
H	0.9301657308656378 0.2686275434793792 0.5303739681365892	0.101404
H	0.0733844596676796 0.1124529278007863 0.5304332814520708	0.103976
H	0.1452963241999838 0.0377209266826609 0.5213700360112155	0.105443
H	0.2092782739472307 0.9621166684265455 0.5226360484352987	0.087982
H	0.2831305281324810 0.8934642965057887 0.5220041699702367	0.103928
H	0.3498097884094623 0.8392636739012100 0.5203904960317703	0.117567
H	0.4301816779526440 0.7686586504637549 0.5303903248710901	0.101492
Cd	0.4998330691519853 0.6892961610802837 0.7499696040135964	0.816962
Cd	-0.0001617969773981 0.1892570788384209 0.7500065103033664	0.816964
Cd	0.4994753860345199 0.3097121338162343 0.2497574345553700	0.816710
Cd	-0.0004794432132892 0.8097009692593542 0.2499668937912081	0.816633
F	0.4993381029833919 0.6864136530740284 0.4858286987640841	-0.620721
F	-0.0006547736924074 0.1863522784674412 0.4857610651040552	-0.620608
F	0.4986786960419543 0.3112773063560964 -0.0141770139462835	-0.620308
F	-0.0012655185557247 0.8114228932695008 -0.0139932485656392	-0.620250
F	0.4992319340563277 0.6864980635409917 0.0141970775325591	-0.620774
F	-0.0005618404518673 0.1863711691544162 0.0142063312491658	-0.620588
F	0.4986503431563032 0.3112225874440163 0.5136989683989280	-0.620241
F	-0.0012125707408922 0.8114206906977733 0.5140748026653122	-0.620371
F	0.4731516088414174 0.7736096281405389 0.2502873949214974	-0.628173
F	0.5742624270705897 0.6499492083513172 0.2500010610820165	-0.621646
F	0.9724374853502223 0.2731762125437792 0.2499258832200742	-0.627624
F	0.0742998730967672 0.1497620344099779 0.2500643220676286	-0.622161
F	0.5770552850022553 0.2929282451509042 0.7496903439555211	-0.627006
F	0.4650564740408185 0.4000096381692096 0.7499257383078199	-0.618633
F	0.0766766668199551 0.7887174275302939 0.7501909143880719	-0.626673
F	0.9677005229270239 0.9003995221315220 0.7500280612869278	-0.618854
F	0.4351212748476730 0.6182308306041778 0.2500110709395276	-0.616010
F	0.9358512269934458 0.1171414812018829 0.2497930056348719	-0.615825
F	0.4395356135276871 0.2421433749289163 0.7498323596976306	-0.626231
F	0.9380137006667424 0.7436394796652199 0.7499959416989807	-0.626544
N	0.4325652826081670 0.6138195364184823 0.7500003436423097	-0.229890
N	0.5685533192322796 0.7647384676531354 0.7499967788570812	-0.239611
N	0.9325990915706227 0.1137676832415073 0.7500123561460281	-0.230097
N	0.0685774561455259 0.2647094154856319 0.7500004010244689	-0.239370
N	0.5680725156664039 0.3851535801127380 0.2499764977914229	-0.228955
N	0.4307822002607000 0.2357808581183498 0.2499886228077494	-0.240199
N	0.0679637030478072 0.8853560755641547 0.2499981096640460	-0.229641
N	0.9307186688773615 0.7358386718997941 0.2500138772779280	-0.240131
N	0.5688835194205232 0.6154188006697072 0.7500115853397726	-0.227942
N	0.4325150270422271 0.7656059151835111 0.7499988018254600	-0.239181
N	0.0689034587047673 0.1154474191363088 0.7500122391853459	-0.228061
N	0.9325111396125518 0.2655681708870642 0.7500040301276436	-0.239289
N	0.4336899772172230 0.3872588697767799 0.2499484111580893	-0.232000
N	0.5696777641895008 0.2367942412419332 0.2499830128728403	-0.238278
N	0.9336973474709941 0.8872356496408745 0.2500194696287442	-0.231409
N	0.0697062834022253 0.7368610886885372 0.2500026940138609	-0.237869
In	0.4962788236028327 0.6825914085954741 0.2499988396871840	1.562729
In	-0.0037329451017113 0.1823932074174688 0.2499841278506467	1.562358
In	0.4957921185530908 0.3119429418437079 0.7497236199568746	1.565143
In	-0.0038379554290495 0.8114221152213490 0.7500331780997216	1.564942
	  	
