#======================================================================

# CRYSTAL DATA

#----------------------------------------------------------------------

data_VESTA_phase_1


_pd_phase_name                         InFFIVE_5_Fe_i
_cell_length_a                         20.06312
_cell_length_b                         20.06312
_cell_length_c                         16.30285
_cell_angle_alpha                      90.00031
_cell_angle_beta                       89.99998
_cell_angle_gamma                      89.97421
_symmetry_space_group_name_H-M         P 1
_symmetry_Int_Tables_number            1

loop_
_symmetry_equiv_pos_as_xyz
   x, y, z

loop_
   _atom_site_label
   _atom_site_fract_x
   _atom_site_fract_y
   _atom_site_fract_z
   _atom_site_charge
F	0.2932184791958554 0.1569891225473498 0.3518237548090913	-0.611612
F	0.1527814020557647 0.2634758670187338 0.3505842004546111	-0.620932
F	0.3174020353905214 0.3273711594192256 0.3509319594857481	-0.616684
F	0.6726456565952194 0.6826044511349401 0.1490867761092733	-0.616447
F	0.7365427336325701 0.8472359141878895 0.1493821207459817	-0.620672
F	0.8430098305212996 0.7068017929866749 0.1481737210566953	-0.611489
F	0.6527950642218436 0.7635098822474861 0.6493934513851327	-0.620753
F	0.7931841724208603 0.6569534872261502 0.6482027984951585	-0.611474
F	0.8174637842203132 0.8273209414911900 0.6491081783349469	-0.616434
F	0.1726719858045510 0.1825122780021194 0.8509150324540605	-0.616535
F	0.3430243709071353 0.2068205188349442 0.8518014631837096	-0.611626
F	0.2365047133761531 0.3472017561478355 0.8505976169918336	-0.620914
F	0.2497385723402439 0.2498173648978714 0.4795943848831616	-0.534543
F	0.2499416292877250 0.2490074370050516 0.2221944905460522	-0.535536
F	0.7501814675230390 0.7502645041654314 0.0203925465788363	-0.534589
F	0.7509933269267265 0.7500815165565227 0.2777979381311644	-0.535514
F	0.7497534644398602 0.7498144504721741 0.5203985715627161	-0.534539
F	0.7499418201412040 0.7490034448768392 0.7778004530278175	-0.535495
F	0.2501780974022985 0.2502610304050748 0.9795918549050755	-0.534423
F	0.2509748615199948 0.2500542217692489 0.7221954966043157	-0.535439
N	0.3592233637285772 0.2475170860129489 0.6004169505203165	-0.250074
N	0.1408656675054592 0.2533089611412292 0.6017187345207550	-0.246070
N	0.2525357382644681 0.3591992664852561 0.6011060230417572	-0.247742
N	0.2467488500989309 0.1408508518490047 0.6020857925954460	-0.249856
N	0.6408006445498453 0.7474633851993990 0.8988936141627554	-0.247929
N	0.8591477840929369 0.7532506571212464 0.8979133169092589	-0.250092
N	0.7466923979089116 0.8591327228551447 0.8982779353041649	-0.246325
N	0.7524836128859888 0.6407759609630576 0.8995876865711240	-0.250081
N	0.6408671907335819 0.7533082184566458 0.3982810257375429	-0.246366
N	0.8592244445245144 0.7475175951437394 0.3995832883061769	-0.250296
N	0.7467500049331954 0.6408534229273389 0.3979119036646731	-0.250213
N	0.7525360717577203 0.8591999329432560 0.3988934639390546	-0.247981
N	0.3591477600633563 0.2532511470064983 0.1020863659320361	-0.250035
N	0.1407999071651822 0.2474633188252033 0.1011054226880952	-0.247737
N	0.2524823280576016 0.1407764801513700 0.1004148737453819	-0.250062
N	0.2466914048182424 0.3591338230129442 0.1017178791517501	-0.246125
C	0.3924080370301763 0.2188915963096620 0.6630528969432916	0.101814
C	0.4615586927563999 0.2176543094885335 0.6671112051671964	-0.180516
C	0.4992835114970195 0.2473485175471508 0.6045643009363308	0.103520
C	0.4640599984656677 0.2769770217596704 0.5396478504342247	-0.184034
C	0.3947980069366183 0.2759901704201105 0.5396435189171157	0.099477
C	0.5726241137998036 0.2480671214836598 0.6076063103821538	0.054238
C	0.6083940653491934 0.1926308431574741 0.6367580055905315	-0.129451
C	0.6776468721934584 0.1932801497751934 0.6390481456279160	-0.126072
C	0.7133713913653692 0.2498670719354616 0.6136868282108568	0.067015
C	0.6776693905575358 0.3056934136375415 0.5858394234221274	-0.119811
C	0.6084683223205067 0.3045358523352759 0.5820905204427607	-0.126367
C	0.1076410978856695 0.2818668843220674 0.6642710582886876	0.103027
C	0.0385173397275001 0.2828251816389398 0.6686654309635518	-0.182518
C	0.0008161629290830 0.2528373559476846 0.6062079591909300	0.105779
C	0.0360501452967996 0.2236383544021758 0.5411055250653684	-0.178082
C	0.1052508525574525 0.2250777496625831 0.5409617198105311	0.106837
C	0.9274746594658672 0.2520455036909623 0.6089291035596412	0.056000
C	0.8915797145947800 0.3075336964464140 0.6376093435878368	-0.130019
C	0.8223175734764862 0.3069063915374080 0.6393629527673784	-0.124209
C	0.7867078410658936 0.2502767553862689 0.6138764927678447	0.066870
C	0.8225301016402041 0.1944579462877337 0.5862691643474589	-0.119359
C	0.8917536522797624 0.1955786465566458 0.5830785802301908	-0.128352
C	0.2810719534353343 0.3924392119890923 0.6636134461188562	0.109456
C	0.2823968555895955 0.4615612506396205 0.6676507552667090	-0.177354
C	0.2527598636564372 0.4992428628369677 0.6050128152966103	0.105501
C	0.2231354188728588 0.4640001722957390 0.5401223151972886	-0.182325
C	0.2241627608708173 0.3948032085172226 0.5404087570981108	0.103490
C	0.2520293889528956 0.5725717342083704 0.6078733690901069	0.054303
C	0.3074779070751139 0.6083479401102863 0.6369043953609704	-0.129736
C	0.3068049140336320 0.6776033304262719 0.6390620662081931	-0.125887
C	0.2501961734885463 0.7133148169703291 0.6136824680336197	0.067902
C	0.1943675631753673 0.6776017068871653 0.5858995491087592	-0.118418
C	0.1955479765503972 0.6083979684644428 0.5822968179899712	-0.126835
C	0.2181377903040155 0.1076554104478762 0.6647628127437617	0.099559
C	0.2171544163764157 0.0384808018800355 0.6688421674417844	-0.181668
C	0.2470791852550839 0.0007868885886659 0.6063301790897173	0.101859
C	0.2763499616490405 0.0360478006890188 0.5412929694181416	-0.180984
C	0.2750377873390200 0.1052860998458730 0.5411703197816607	0.099370
C	0.2478886044849241 0.9274271602159165 0.6089575617444631	0.056247
C	0.1924162774970801 0.8915352230606211 0.6376459830790304	-0.130110
C	0.1930918482625344 0.8222691581751178 0.6393559289380204	-0.125379
C	0.2497223860458063 0.7866512072841749 0.6138450078470102	0.066080
C	0.3055338035580000 0.8224635075981123 0.5862274830119560	-0.118924
C	0.3043544332554372 0.8916841751604918 0.5830744614439521	-0.128828
C	0.6075595719260917 0.7189266467185084 0.8363864428527547	0.109442
C	0.5384375427974807 0.7176026118138751 0.8323491576374050	-0.177309
C	0.5007564598727002 0.7472403993282222 0.8949877962502553	0.105777
C	0.5359992098156322 0.7768643098923060 0.9598779358831323	-0.182263
C	0.6051952292179228 0.7758366096074558 0.9595908041980793	0.103419
C	0.4274279250294405 0.7479708643981081 0.8921275007626936	0.054208
C	0.3916515001596217 0.6925221244147886 0.8630966058059918	-0.129751
C	0.3223960927173329 0.6931950949274341 0.8609387714207535	-0.125674
C	0.2866843341892744 0.7498043035347431 0.8863183960162645	0.067882
C	0.3223974009673052 0.8056331450490272 0.9141015463746186	-0.118253
C	0.3916018109533924 0.8044520757786499 0.9177047378206612	-0.126809
C	0.8923440540953183 0.7818613274819092 0.8352356222942255	0.099624
C	0.9615177302364352 0.7828454443314893 0.8311572191377113	-0.181612
C	0.9992118634963613 0.7529206163477463 0.8936694682320350	0.102042
C	0.9639505674736970 0.7236497005517045 0.9587070139999408	-0.180877
C	0.8947125752115924 0.7249626215439922 0.9588284998002045	0.099302
C	0.0725710075329352 0.7521126118928796 0.8910429460452747	0.056181
C	0.1084641525125501 0.8075845096620458 0.8623549953314047	-0.130121
C	0.1777302638837449 0.8069091326914911 0.8606451700651829	-0.125204
C	0.2133481266288314 0.7502781491158197 0.8861561832686964	0.066083
C	0.1775351986456307 0.6944673990218880 0.9137732582425948	-0.118839
C	0.1083145423563584 0.6956467593107951 0.9169266430241728	-0.128700
C	0.7181339198515354 0.8923581863323402 0.8357255858363218	0.103022
C	0.7171755461995513 0.9614816490367696 0.8313335042715212	-0.182459
C	0.7471627149216440 0.9991820036488120 0.8937918409005058	0.105915
C	0.7763617687791209 0.9639485795438215 0.9588939496340901	-0.177900
C	0.7749230292758967 0.8947485196180361 0.9590359758453405	0.106763
C	0.7479544689087669 0.0725238822527650 0.8910724721525243	0.055919
C	0.6924668552952091 0.1084193506094014 0.8623919328970278	-0.130030
C	0.6930938011284071 0.1776815162343930 0.8606386405642014	-0.124111
C	0.7497233797309051 0.2132914935111822 0.8861253570403146	0.067006
C	0.8055412365410589 0.1774696382911428 0.9137328980006691	-0.119315
C	0.8044206866381990 0.1082454609032605 0.9169232498301931	-0.128226
C	0.7811095400525573 0.6075908837219469 0.8369509602033133	0.101830
C	0.7823460886492017 0.5384401472347882 0.8328913772982165	-0.180435
C	0.7526516103278974 0.5007161290371919 0.8954372998399630	0.103766
C	0.7230231896623025 0.5359394831520958 0.9603551892722368	-0.184020
C	0.7240103189381217 0.6052012906588431 0.9603603333364997	0.099432
C	0.7519325563636154 0.4273760069288143 0.8923949279048433	0.054072
C	0.8073689302276686 0.3916051409435016 0.8632428738167138	-0.129409
C	0.8067198894007247 0.3223524838137743 0.8609530166022148	-0.125894
C	0.7501330128820249 0.2866279411540303 0.8863149042561609	0.067076
C	0.6943066978359936 0.3223307378214224 0.9141613146698323	-0.119681
C	0.6954638810492689 0.3915310371811001 0.9179101044777535	-0.126336
C	0.6076410944601177 0.7818655733127267 0.3357289738047538	0.103153
C	0.5385179100768712 0.7828240542944394 0.3313356051210586	-0.182384
C	0.5008171899656104 0.7528370480714198 0.3937939318939824	0.106052
C	0.5360509142000529 0.7236386338563747 0.4588953873632279	-0.177908
C	0.6052512763101988 0.7250776984494861 0.4590383685583164	0.106912
C	0.4274757049711239 0.7520457521481319 0.3910726669093406	0.055773
C	0.3915803802792155 0.8075336233884521 0.3623920906745440	-0.129902
C	0.3223181758343638 0.8069060907682943 0.3606382199773055	-0.124061
C	0.2867080108535021 0.7502767976115693 0.3861245891620379	0.066993
C	0.3225297748734032 0.6944586740178273 0.4137320683693390	-0.119135
C	0.3917541686293510 0.6955792014749478 0.4169227260385741	-0.128193
C	0.8924095134628272 0.7188913943361179 0.3369468383634909	0.101769
C	0.9615602869165026 0.7176543485559012 0.3328885133070850	-0.180128
C	0.9992840287134110 0.7473487974161698 0.3954349279133498	0.103707
C	0.9640610911417942 0.7769772887441866 0.4603524664318336	-0.183856
C	0.8947990103470770 0.7759902595666502 0.4603565396649205	0.099524
C	0.0726240230024294 0.7480674995439579 0.3923937991327666	0.054083
C	0.1083947750484257 0.6926307460301422 0.3632421982732935	-0.129386
C	0.1776475474557430 0.6932799807644199 0.3609526782077156	-0.125862
C	0.2133719080982159 0.7498667797877503 0.3863141298360492	0.067107
C	0.1776693544225004 0.8056931716131834 0.4141610963871766	-0.119578
C	0.1084688545253127 0.8045360831443487 0.4179096574431814	-0.126291
C	0.7181385157656203 0.6076571020689091 0.3352345926234070	0.099638
C	0.7171547369724661 0.5384826893681167 0.3311570096010732	-0.181502
C	0.7470794913361830 0.5007887006239307 0.3936687097830969	0.102032
C	0.7763504533068381 0.5360505152787123 0.4587058186068571	-0.180787
C	0.7750375511272137 0.6052886138657780 0.4588269416729566	0.099501
C	0.7478884096823594 0.4274293159833403 0.3910422647191044	0.056123
C	0.6924162080144421 0.3915363351384371 0.3623544360780122	-0.130077
C	0.6930916446276176 0.3222700166062112 0.3606450200248217	-0.125131
C	0.7497219865708940 0.2866518112068124 0.3861558869492182	0.066186
C	0.8055333244445982 0.3224649315531358 0.4137727155359611	-0.118764
C	0.8043538170803544 0.3916856770230221 0.4169256301528732	-0.128680
C	0.7810730176096196 0.8924409088339194 0.3363872030166782	0.109447
C	0.7823971940730927 0.9615625932899787 0.3323503650754623	-0.177166
C	0.7527594399864966 0.9992433019595817 0.3949893287506920	0.105794
C	0.7231351911631110 0.9640005721133122 0.4598785409662864	-0.182176
C	0.7241619943396859 0.8948044586699628 0.4595909705959486	0.103436
C	0.7520291874979885 0.0725718728948198 0.3921287528309804	0.054191
C	0.8074776333557655 0.1083483507807380 0.3630974139662534	-0.129701
C	0.8068046667309469 0.1776038690316285 0.3609391704823972	-0.125624
C	0.7501957959848797 0.2133155842452696 0.3863186768832021	0.067885
C	0.6943670052475888 0.1776028547147326 0.4141017896969847	-0.118194
C	0.6955481347452732 0.1083983425351761 0.4177052944295834	-0.126772
C	0.3923435420304354 0.2818615240368034 0.1647636766336673	0.099594
C	0.4615178757518908 0.2828450108458718 0.1688434674037783	-0.181764
C	0.4992124102606207 0.2529203479917428 0.1063315725238683	0.101932
C	0.4639514524198720 0.2236494729678380 0.0412937627251179	-0.180957
C	0.3947125742207792 0.2249627997845074 0.0411709224228822	0.099502
C	0.5725720971885515 0.2521112242903455 0.1089581590517538	0.056284
C	0.6084644696290964 0.3075836664637783 0.1376453652115140	-0.130190
C	0.6777304402990572 0.3069080590259207 0.1393552994173946	-0.125449
C	0.7133486397632570 0.2502770765244680 0.1138444976284172	0.066129
C	0.6775357416026059 0.1944663528280287 0.0862271242881410	-0.119002
C	0.6083153994433800 0.1956457154546664 0.0830745961677716	-0.128826
C	0.1075595209052308 0.2189271460785547 0.1636123023499297	0.109552
C	0.0384376077157650 0.2176027910115476 0.1676491259664087	-0.177464
C	0.0007558381110791 0.2472400736133042 0.1050110595092932	0.105550
C	0.0359990998434722 0.2768647023481527 0.0401213965718979	-0.182244
C	0.1051953997706528 0.2758375707561960 0.0404078391950520	0.103358
C	0.9274270628191564 0.2479708925857126 0.1078724141857535	0.054263
C	0.8916515180420937 0.1925222328639517 0.1369042978469973	-0.129711
C	0.8223960089980642 0.1931952952555932 0.1390625135332012	-0.125924
C	0.7866843601616006 0.2498037714879959 0.1136825803564530	0.067830
C	0.8223973734806245 0.3056325246682841 0.0858993801717178	-0.118377
C	0.8916017253262214 0.3044517284159740 0.0822960966186478	-0.126899
C	0.2811083953981170 0.1075924840484361 0.1630518071528992	0.101802
C	0.2823465998564954 0.0384414807542713 0.1671103595384823	-0.180518
C	0.2526517879709995 0.0007163718043375 0.1045636659833169	0.103612
C	0.2230231548180057 0.0359399078342282 0.0396467678398523	-0.184215
C	0.2240099532387857 0.1052015530239344 0.0396418206298661	0.099589
C	0.2519327429508688 0.9273759084054107 0.1076059890559494	0.054174
C	0.3073690815001641 0.8916061694793674 0.1367581064136074	-0.129434
C	0.3067196827902667 0.8223531910289450 0.1390481780762053	-0.126151
C	0.2501329290500168 0.7866287070613215 0.1136870036936492	0.067087
C	0.1943064886138871 0.8223304581936797 0.0858395918007482	-0.119788
C	0.1954640664165475 0.8915315981465869 0.0820905391990487	-0.126419
C	0.2181339721928824 0.3923579850802014 0.1642708588354754	0.103076
C	0.2171758617035178 0.4614818397340274 0.1686654251758497	-0.182569
C	0.2471634016729612 0.4991831587429743 0.1062082336876497	0.105799
C	0.2763617992932479 0.4639495695121314 0.0411054075063356	-0.178135
C	0.2749222895745395 0.3947484102950888 0.0409603558243450	0.106837
C	0.2479543872256762 0.5725252975727430 0.1089291474681572	0.055966
C	0.1924666358058467 0.6084207576489361 0.1376082542294568	-0.130041
C	0.1930938825891440 0.6776820690576585 0.1393626729158703	-0.124254
C	0.2497235753155578 0.7132926582936292 0.1138762768820564	0.066863
C	0.3055418496207554 0.6774696700680929 0.0862688230670656	-0.119266
C	0.3044212079443123 0.6082467526412536 0.0830783850234039	-0.128430
H	0.3624869641737546 0.1980069055741747 0.7126838800556222	0.094955
H	0.4856619057659912 0.1953142536066979 0.7203416512375599	0.115558
H	0.4904736844559699 0.2998573039980016 0.4884748013594840	0.113523
H	0.3663802365069732 0.2982782896630226 0.4894361394879775	0.092544
H	0.5813522343924707 0.1482548488141923 0.6564365044681078	0.099730
H	0.7047504630529561 0.1499690558129392 0.6619307295891619	0.101392
H	0.7047578858732956 0.3495949588469668 0.5647662446680252	0.101923
H	0.5815769864876887 0.3483072440078925 0.5602051527279547	0.102648
H	0.1382499596399829 0.3040618637919811 0.7123706245700827	0.087943
H	0.0141173137928351 0.3053685924022257 0.7215366136318143	0.113130
H	0.0096833033142888 0.2012411974110277 0.4895665029353820	0.114156
H	0.1336959909761390 0.2044540898961504 0.4899791884696408	0.092584
H	0.9184837266418220 0.3520234531105439 0.6571928183471630	0.099642
H	0.7951332991499375 0.3503015640483567 0.6618480835879179	0.102228
H	0.7955389043943023 0.1505848871020203 0.5649240358136829	0.102076
H	0.9187241798407659 0.1518059945894541 0.5613657155775471	0.104099
H	0.3018095393436782 0.3621129633298555 0.7128128138888621	0.090884
H	0.3045313029882583 0.4858167780311404 0.7208729644176896	0.114402
H	0.2003960491928999 0.4904734052362640 0.4888778163682499	0.112131
H	0.2019262897320777 0.3660160857311888 0.4906651829650099	0.088667
H	0.3518980700010630 0.5813209122433017 0.6565432672925258	0.099113
H	0.3501175167084572 0.7047101244073048 0.6618393584947126	0.102490
H	0.1504481988093340 0.7046781256824669 0.5647868311731120	0.101587
H	0.1517611457143609 0.5815081802172848 0.5605530782183256	0.102886
H	0.1961518799719829 0.1378237293486793 0.7135890199610707	0.092628
H	0.1945094717264655 0.0141611140443236 0.7217117284994142	0.113930
H	0.2989425233719850 0.0097910339891561 0.4897772219452480	0.114940
H	0.2959924991907759 0.1333937168355903 0.4899253988509119	0.095877
H	0.1479606370979098 0.9184671554564078 0.6573483824019027	0.100308
H	0.1497343600892143 0.7950830021106993 0.6618861135650920	0.101709
H	0.3494181334869574 0.7954525515319102 0.5648847347353411	0.101878
H	0.3480866484706735 0.9186506408691514 0.5612990922567658	0.104446
H	0.6378861798950419 0.6981884614817264 0.7871877225754175	0.090837
H	0.5141821928940731 0.6954676031220589 0.7791278276664174	0.114496
H	0.5095263581042309 0.7996049986330157 0.0111222586873529	0.112268
H	0.6339833414462485 0.7980736623193500 0.0093343522305244	0.088706
H	0.4186787172819353 0.6481014781902854 0.8434575036842903	0.099160
H	0.2952900872803257 0.6498819234424380 0.8381613620528267	0.102582
H	0.2953218053056113 0.8495531352819783 0.9352146241948048	0.101673
H	0.4184913427044905 0.8482395990985890 0.9394480559985265	0.102904
H	0.8621744010036039 0.8038461520570319 0.7864088569438392	0.092593
H	0.9858372891939740 0.8054902774431326 0.7782880335550763	0.114040
H	0.9902058434883545 0.7010577042601696 0.0102230466373681	0.115101
H	0.8666045844532752 0.7040072685072374 0.0100736333932686	0.095861
H	0.0815321916520443 0.8520404578465717 0.8426515610583799	0.100344
H	0.2049159956412870 0.8502666724606797 0.8381144435738488	0.101795
H	0.2045455799098233 0.6505823507201737 0.9351163686519817	0.102044
H	0.0813479658983046 0.6519144304809912 0.9387022345990845	0.104446
H	0.6959406682022919 0.8617487441434974 0.7876255644193259	0.087920
H	0.6946318947815598 0.9858823169054692 0.7784639596914336	0.113238
H	0.7987572335190225 0.9903146411758496 0.0104338490673955	0.114325
H	0.7955463034920103 0.8663030178580468 0.0100185648894428	0.092605
H	0.6479775449663868 0.0815150209245815 0.8428083814117689	0.099693
H	0.6496990905256287 0.2048659137078130 0.8381535572489476	0.102348
H	0.8494152555834811 0.2044603297839231 0.9350777092989512	0.102190
H	0.8481933725734441 0.0812743570867329 0.9386356295722957	0.104090
H	0.8019939476131525 0.6375128817407602 0.7873195986410836	0.094789
H	0.8046848421771535 0.5143372045212091 0.7796602471102213	0.115656
H	0.7001409569631384 0.5095249867802710 0.0115266918936872	0.113731
H	0.7017223473299291 0.6336193186877909 0.0105677976938087	0.092513
H	0.8517446374553674 0.4186477103071962 0.8435639913502923	0.099755
H	0.8500311934801317 0.2952488352334997 0.8380706342487707	0.101465
H	0.6504050319141480 0.2952419954255897 0.9352348529005297	0.102040
H	0.6516923952717133 0.4184236097162241 0.9397948867687832	0.102690
H	0.6382507656732441 0.8040580176015137 0.2876281179207191	0.088000
H	0.5141178762436722 0.8053670007346273 0.2784650536862592	0.113399
H	0.5096839386781860 0.7012414817094148 0.5104344882206812	0.114402
H	0.6336970679488574 0.7044538271440329 0.5100204497343641	0.092630
H	0.4184843253110173 0.8520232021941372 0.3428085345208435	0.099791
H	0.2951339665576665 0.8503012460346555 0.3381527531962578	0.102401
H	0.2955392831829284 0.6505847902084030 0.4350767688881736	0.102228
H	0.4187243615478080 0.6518066997465936 0.4386352894200976	0.104248
H	0.8624873596761576 0.6980055023656848 0.2873161252349400	0.094907
H	0.9856635121522255 0.6953138918750378 0.2796582710001502	0.115709
H	0.9904743779861535 0.7998580023992879 0.5115257763169743	0.113768
H	0.8663815069546587 0.7982770565251363 0.5105659472320546	0.092578
H	0.0813525545548741 0.6482548458955318 0.3435637634030586	0.099869
H	0.2047510270187269 0.6499682796048636 0.3380702321054483	0.101519
H	0.2047578674622792 0.8495951632989983 0.4352350806850240	0.102070
H	0.0815765750403280 0.8483075013573910 0.4397951395458312	0.102832
H	0.6961526381722853 0.6378269808910123 0.2864094910777911	0.092702
H	0.6945093917668044 0.5141617593331141 0.2782884173207919	0.114139
H	0.7989427574861899 0.5097945147017835 0.5102220940797475	0.115215
H	0.7959922433234895 0.6333967804652337 0.5100721886896168	0.095905
H	0.6479604477723294 0.4184680370362625 0.3426521265100042	0.100467
H	0.6497339387730214 0.2950839650503537 0.3381147510930088	0.101861
H	0.8494178165696613 0.2954543062206419 0.4351161404756539	0.102070
H	0.8480862671151049 0.4186522805808403 0.4387010389071468	0.104606
H	0.8018106207204602 0.8621146427070736 0.2871870672919085	0.090939
H	0.8045313807854259 0.9858177429454055 0.2791283949723886	0.114657
H	0.7003943012337306 0.9904736135836452 0.5111227542905266	0.112368
H	0.7019237531214868 0.8660155888412090 0.5093333313190570	0.088745
H	0.8518978033235473 0.0813207552593302 0.3434582506973475	0.099288
H	0.8501176171127131 0.2047097827815685 0.3381614118737731	0.102650
H	0.6504472750531527 0.2046786037369780 0.4352145337070588	0.101724
H	0.6517608394310436 0.0815087727207735 0.4394484021215113	0.103055
H	0.3621738896744872 0.3038486499935379 0.2135884616981763	0.092646
H	0.4858383699117421 0.3054906470874589 0.2217126638274000	0.113870
H	0.4902081144206816 0.2010581773266656 0.9897768385933267	0.114958
H	0.3666053915647990 0.2040097560189688 0.9899250359017989	0.095838
H	0.5815328216397966 0.3520402713929356 0.1573477637842297	0.100284
H	0.7049165041406409 0.3502657856814316 0.1618852674941822	0.101695
H	0.7045469176921564 0.1505813997020577 0.0648845176011244	0.101947
H	0.5813492270904949 0.1519124289963466 0.0612989985056813	0.104380
H	0.1378853021868832 0.1981905207837062 0.2128117509889855	0.090811
H	0.0141823362850887 0.1954689396803261 0.2208715621548948	0.114358
H	0.0095253597959918 0.2996051389561247 0.9888772614023892	0.112106
H	0.1339827673427420 0.2980758407099813 0.9906661250896281	0.088686
H	0.9186786032259314 0.1481017426337736 0.1565428532169506	0.099075
H	0.7952896099568058 0.1498819477620102 0.1618396971315191	0.102487
H	0.7953212009719085 0.3495523756980785 0.0647865248684422	0.101577
H	0.9184908075901168 0.3482395886776353 0.0605525295876399	0.102861
H	0.3019938046076415 0.1375143376643131 0.2126818012079910	0.094885
H	0.3046864257366103 0.0143381765695395 0.2203409783521161	0.115479
H	0.2001428735054802 0.0095255311896562 0.9884733956040075	0.113604
H	0.2017226584583807 0.1336183421854475 0.9894323133171408	0.092505
H	0.3517449014743892 0.9186482768235612 0.1564362015906173	0.099677
H	0.3500308781914096 0.7952494033802092 0.1619305162275979	0.101386
H	0.1504051147612992 0.7952418344736465 0.0647662268767257	0.101938
H	0.1516929266106879 0.9184233085269683 0.0602048481651120	0.102601
H	0.1959412139939844 0.3617488523727953 0.2123713028195214	0.087926
H	0.1946328412339688 0.4858815598143539 0.2215367706836678	0.113084
H	0.2987590250642343 0.4903167870385538 0.9895668307577203	0.114194
H	0.2955460580721788 0.3663031396484098 0.9899780029383922	0.092661
H	0.1479770733210725 0.5815162832881161 0.1571924715847056	0.099590
H	0.1496987764683488 0.7048670701845071 0.1618481599927585	0.102210
H	0.3494151537766422 0.7044615293372960 0.0649239708764011	0.102077
H	0.3481936961035552 0.5812755243503764 0.0613658639135214	0.104038
Fe	0.2501432538403078 0.2499184446221725 0.6007027308088814	0.791519
Fe	0.7500812169205628 0.7498560973539480 0.8992897125793278	0.792497
Fe	0.7501450808978550 0.7499214025823897 0.3992860964249995	0.792657
Fe	0.2500793702150211 0.2498567473719494 0.1007021388100232	0.791515
In	0.2528877619696496 0.2497399344792510 0.3510044777399351	1.568489
In	0.7502612275028879 0.7471314742135573 0.1489746531288098	1.569022
In	0.7528975806518634 0.7497300903457750 0.6489866715200776	1.568867
In	0.2502385441381672 0.2470889504874464 0.8510123297573146	1.568532
	  	
