#======================================================================

# CRYSTAL DATA

#----------------------------------------------------------------------

data_VESTA_phase_1


_pd_phase_name                         InFFIVE_13_Cu_i
_cell_length_a                         15.16894
_cell_length_b                         15.17013
_cell_length_c                         8.45868
_cell_angle_alpha                      91.03988
_cell_angle_beta                       88.57815
_cell_angle_gamma                      90.09124
_symmetry_space_group_name_H-M         P 1
_symmetry_Int_Tables_number            1

loop_
_symmetry_equiv_pos_as_xyz
   x, y, z

loop_
   _atom_site_label
   _atom_site_fract_x
   _atom_site_fract_y
   _atom_site_fract_z
   _atom_site_charge
C	0.5398032699501514 0.6817323717727641 0.8808814756570599	0.108268
C	0.5435264522678566 0.7733415140235702 0.8796878280844375	-0.142723
C	0.4618999615056243 0.3208348082195576 0.8835670116340968	0.107986
C	0.4593368002330647 0.2291409617125248 0.8834955003543634	-0.141882
C	0.8219616985737686 0.9708775121196099 0.3689747122291238	0.109001
C	0.7304184757414142 0.9697096120944760 0.3653266160949958	-0.135123
C	0.3230928262064625 0.5440988375135783 0.8810715843553882	0.105944
C	0.2314788221491775 0.5479641621881456 0.8792512724450093	-0.146225
C	0.1833531043242811 0.9794619892843135 0.3628552742152011	0.096545
C	0.2749046967936464 0.9776665315597675 0.3610198750374621	-0.132525
C	0.6828165742802367 0.4646526263167270 0.8804984573940672	0.105783
C	0.7744572408162226 0.4618950125907805 0.8792953119228123	-0.139901
C	0.4590090517813210 0.6834697418172514 0.1186173157998180	0.106438
C	0.4558944146866651 0.7751153051912867 0.1216007791711424	-0.136343
C	0.5417491525162915 0.3253102323890197 0.1154418052873051	0.106496
C	0.5452979393879432 0.2337483564020371 0.1196109587900839	-0.146721
C	0.1777799265010245 0.0138314330991734 0.6325952029521549	0.107308
C	0.2691171129884877 0.0149764517161644 0.6399555074233103	-0.131826
C	0.6783492175402784 0.5418935681506574 0.1210330871108871	0.111370
C	0.7699415385256866 0.5458609523266770 0.1242406930829190	-0.142328
C	0.8190257014331984 0.0260856532619861 0.6278005231764905	0.102776
C	0.7274990498305746 0.0270208581283756 0.6339852685137652	-0.134150
C	0.3191036529875344 0.4597177575084194 0.1085173782109596	0.106934
C	0.2274560197990302 0.4571909500721895 0.1104547453900061	-0.139722
C	0.9675131013639551 0.8193846517738733 0.6272874026233474	0.108015
C	0.9660560820117666 0.7278715013452237 0.6311130746306143	-0.135269
C	0.9869436938867430 0.1802472700984240 0.6394313777067444	0.094876
C	0.9858019612810536 0.2718085820348994 0.6428733878507275	-0.133727
C	0.0217569285822306 0.8170491576214542 0.3673678649276418	0.104637
C	0.0225199323657945 0.7255382578812746 0.3613309404479598	-0.134189
C	0.0210170740981736 0.1767674349796285 0.3692312941033158	0.108817
C	0.0227645194343501 0.2681740963908075 0.3633502920249431	-0.132927
C	0.0039658430870241 0.3167191156235201 0.5025307945494663	0.042153
C	0.0021125375684398 0.4131930849936261 0.5011564789842469	0.257905
C	0.5000077726816535 0.8209523202856652 0.0012381595878338	0.059742
C	0.5007630690012359 0.9183318624715369 0.0035859353828563	0.248713
C	0.9947758940319269 0.6798913086299958 0.4963462550340693	0.040749
C	0.9968647285613503 0.5832041748628934 0.4974373477359970	0.250442
C	0.5023296506161210 0.1847542679132558 0.0028575247588646	0.061040
C	0.5019631707885350 0.0874446222652864 0.0052858591744700	0.248802
C	0.6821594646590061 -0.0018763462654467 0.5002112048568603	0.040248
C	0.5854209232620308 0.9968660028025532 0.5019364584921965	0.249809
C	0.1827406543234157 0.5029713294044363 0.9948840702452167	0.060419
C	0.0854605531705579 0.5036546914639752 0.9970361939567106	0.247770
C	0.3187311335460947 0.9961215607626023 0.5016953945818223	0.040315
C	0.4152350200515931 0.9957204975658620 0.5031529830366099	0.258133
C	0.8188789790529242 0.5042814817551029 0.0022210950497724	0.059690
C	0.9163025307012694 0.5043001268106677 0.0022584453830927	0.249010
H	0.5684573002869491 0.6412348047750476 0.7853407365498072	0.102370
H	0.5784923192426660 0.8068717660996375 0.7840954461145296	0.124717
H	0.4328274561890740 0.3583370065070694 0.7890251171520388	0.107673
H	0.4261055969244601 0.1927046132214032 0.7901387114182702	0.124386
H	0.8621054700725904 0.9491286372861049 0.2668507273201551	0.103658
H	0.6975744816210787 0.9468942287100500 0.2591096036409771	0.125265
H	0.3642385374629445 0.5751188747907575 0.7901238443035984	0.102908
H	0.1988761862152271 0.5844382605732076 0.7876843411871496	0.127326
H	0.1474951798323662 0.9679893160619377 0.2540650119935941	0.105730
H	0.3107622983218405 0.9630373700524023 0.2506310125718157	0.118590
H	0.6450187244330882 0.4373062057130788 0.7831643790786059	0.109255
H	0.8109623013195737 0.4295987813693798 0.7821300031937053	0.121921
H	0.4304940333643352 0.6447725648811781 0.2145258398171078	0.109116
H	0.4223033459605923 0.8105496441981046 0.2185849499826590	0.120998
H	0.5710807718673860 0.3667313056815529 0.2069314772497603	0.102280
H	0.5796905011122265 0.2013409104439236 0.2139671897580668	0.126894
H	0.1366095693182623 0.0252230351597496 0.7379669148525152	0.101433
H	0.3006243406404041 0.0287260727139218 0.7519709959381269	0.125200
H	0.6370873575584135 0.5687367412445917 0.2173329703863646	0.101775
H	0.8022719708108859 0.5792866500024506 0.2220736348947196	0.126438
H	0.8575678254694732 0.0460852436809373 0.7292844186093892	0.099482
H	0.6921857326081590 0.0489850688593406 0.7411366414043044	0.121483
H	0.3570385189555363 0.4291217854464929 0.2006523631439455	0.107438
H	0.1911426994813129 0.4223632276840624 0.2028063153394941	0.121763
H	0.9466624483454950 0.8593972522748026 0.7298707566735173	0.105778
H	0.9436216539001696 0.6948271011973634 0.7379983535617846	0.124048
H	0.9747142478962040 0.1437542936360560 0.7478822214492916	0.104760
H	0.9714577451729198 0.3067691782845918 0.7540175640842062	0.122219
H	0.0416381202248757 0.8558577278340782 0.2655610341267609	0.097521
H	0.0442351716764447 0.6906397538869704 0.2537676081399419	0.121126
H	0.0320280875575651 0.1361158904209032 0.2634387331921389	0.102689
H	0.0364515841902222 0.3007856704217748 0.2517762709902195	0.123811
N	0.9592452404646696 0.5423729389497384 0.6230463497146204	-0.132955
N	0.4225676979730170 0.0469904785168485 0.0104778212778365	-0.145851
N	0.5420795262941407 0.0348408560834316 0.6271356701118556	-0.134940
N	0.9569567751086112 0.4250878616383332 0.0008902532495555	-0.140249
N	0.0375057281660474 0.5406692765842115 0.3740414174992038	-0.135147
N	0.5806790133543670 0.0460541672397105 0.0050334204216951	-0.151275
N	0.9576163903637555 0.5831921539959769 0.0030160720865654	-0.146658
N	0.5453101824822313 0.9562449832391341 0.3794302918439232	-0.132800
N	0.0411567677465114 0.4540860144039064 0.3770239505879375	-0.130583
N	0.5801130664026527 0.9588455786444600 -0.0000083474640900	-0.146869
N	0.4586726406058707 0.9550170044143742 0.3807418640483103	-0.127130
N	0.0448429219236165 0.5827872991742612 0.9965326890160280	-0.151178
N	0.9609754669826043 0.4557467384156014 0.6240513599894159	-0.129887
N	0.4220605398945992 0.9598857935549500 0.0132178609141343	-0.137818
N	0.0440879598928925 0.4247832626886963 0.0014970317467940	-0.145037
N	0.4553203696184447 0.0349182860944465 0.6270653050151678	-0.134971
N	0.0034314138485018 0.1338371161953232 0.5045199478489554	-0.214133
N	0.4994699218715410 0.6379827126306770 0.9992870525701519	-0.225217
N	0.9957329605179084 0.8628691490119744 0.4980178804769784	-0.210361
N	0.5014567754292559 0.3675432754625059 -0.0011670866310796	-0.222509
N	0.8651091285970750 -0.0010758958075827 0.4979004957403574	-0.209436
N	0.3656031823490526 0.5016192838532234 0.9947855307211910	-0.219504
N	0.1359370835767306 0.9967525141738913 0.4967428180920401	-0.213432
N	0.6359897305552659 0.5031054331241003 0.0003908804339558	-0.226923
Cu	0.0004638000453087 0.9983634554076118 0.4993378271425315	0.722855
Cu	0.5006130475401196 0.5025843525312814 0.9981378264679224	0.739516
In	-0.0030274268131739 0.9948556128081900 0.9994836992081132	1.543857
In	0.4949753333007662 0.4980122251044177 0.4990445325241100	1.562687
F	0.0014432674690785 -0.0020689029466471 0.2452460042998846	-0.591909
F	0.5089722422821669 0.4959197027045484 0.7444641198282727	-0.604735
F	-0.0034641807483252 0.9954708103495808 0.7533926426847476	-0.591956
F	0.4892147164326412 0.5071114752607266 0.2527120604748679	-0.605613
F	0.9026433282984894 0.8992237571355195 0.0056474353685181	-0.616043
F	0.4030401232576854 0.3993240127640344 0.5051576064088724	-0.637645
F	0.9593362373356132 0.1238990878950770 0.9951305848412491	-0.609562
F	0.4503703887069561 0.6250885881835128 0.5230584755532346	-0.638213
F	0.1273176634173579 0.9615105965227798 -0.0014428996903354	-0.610145
F	0.6253314094759989 0.4640016449541132 0.4705764179997141	-0.638837
	  	
