#======================================================================

# CRYSTAL DATA

#----------------------------------------------------------------------

data_VESTA_phase_1


_pd_phase_name                         InFFIVE_3_Fe
_cell_length_a                         14.50852
_cell_length_b                         14.50833
_cell_length_c                         8.25843
_cell_angle_alpha                      89.99592
_cell_angle_beta                       90.00060
_cell_angle_gamma                      90.83852
_symmetry_space_group_name_H-M         P 1
_symmetry_Int_Tables_number            1

loop_
_symmetry_equiv_pos_as_xyz
   x, y, z

loop_
   _atom_site_label
   _atom_site_fract_x
   _atom_site_fract_y
   _atom_site_fract_z
   _atom_site_charge
C	0.2664938882733783 0.4531323627202840 0.6336844662064064	0.060345
C	0.2301832325681515 0.0491952596545877 0.6368289860041572	0.064195
C	0.2318079799373715 0.4531521737402706 0.3619567186295585	0.053534
C	0.2672622813952926 0.0490573214357280 0.3664606722058069	0.062224
C	0.0490600678228367 0.2672631327338695 0.3664505723652549	0.062414
C	0.4531566593012624 0.2318117363076142 0.3619660218522435	0.053462
C	0.4531425151261723 0.2665044079843291 0.6336887864766968	0.060602
C	0.0492027978876506 0.2301905020654220 0.6368282680849056	0.064120
C	0.9531596836102526 0.2318101366986311 0.6380360576832638	0.053539
C	0.5490617466149595 0.2672686691894459 0.6335334833050712	0.062258
C	0.5491956260740297 0.2301897977522665 0.3631688015450112	0.064173
C	0.9531389745105987 0.2665004713960571 0.3663010886270289	0.060299
C	0.7301856553286785 0.0491974125977948 0.3631532097093822	0.064067
C	0.7665021966248321 0.4531343609282534 0.3663179444626460	0.060436
C	0.7672583891848540 0.0490569146420903 0.6335299815016874	0.062248
C	0.7318113256573610 0.4531466355097138 0.6380525291419933	0.053496
C	0.4531493436354000 0.7318035099842242 0.6380619943564605	0.053705
C	0.0490642974849933 0.7672626680969777 0.6335205446288291	0.061894
C	0.0491985836972839 0.7301866036720686 0.3631505539831240	0.064076
C	0.4531289381597491 0.7664960618454871 0.3663215695980995	0.060263
C	0.2301859175248439 0.5491978188017259 0.3631513748239947	0.064031
C	0.2664983778783991 0.9531374809493275 0.3663159849142343	0.060490
C	0.2672620292711052 0.5490509745541835 0.6335232354403129	0.062191
C	0.2318044697358592 0.9531482655544816 0.6380446665220735	0.053516
C	0.7664950180403964 0.9531369489243213 0.6336905833751493	0.060281
C	0.7301893073315686 0.5492012381264764 0.6368387638285214	0.064089
C	0.7318053325372176 0.9531540119575627 0.3619587913941492	0.053531
C	0.7672642186223252 0.5490607155683280 0.3664675822547916	0.062351
C	0.5490507149771575 0.7672615839875138 0.3664819925740114	0.062312
C	0.9531483022744865 0.7318058037442770 0.3619471489118126	0.053408
C	0.9531416283364899 0.7664994708236398 0.6336731904319899	0.060583
C	0.5491983521493056 0.7301881513760261 0.6368602409731650	0.063922
H	0.2773475616402491 0.4149773835287699 0.7455729299352162	0.103562
H	0.2129799043467329 0.0872633158859033 0.7465529951204674	0.103512
H	0.2191971488766027 0.4156036990343893 0.2493037515079719	0.107689
H	0.2820584661523997 0.0876706295520045 0.2561295919738708	0.098538
H	0.0876726831274174 0.2820574466190738 0.2561146906520075	0.098586
H	0.4155978460520637 0.2191986793232418 0.2493247083416878	0.107716
H	0.4149925387934481 0.2773526316897995 0.7455774377667181	0.103505
H	0.0872847900019958 0.2129774145785722 0.7465434583800752	0.103539
H	0.9156088302511107 0.2191965782613878 0.7506895637207937	0.107651
H	0.5876781310853911 0.2820584735211692 0.7438553306397583	0.098514
H	0.5872699737843685 0.2129851600586975 0.2534511324418572	0.103504
H	0.9149835894598128 0.2773587762950266 0.2544134096187207	0.103609
H	0.7129778962340614 0.0872746100405280 0.2534339490130297	0.103591
H	0.7773525291655262 0.4149932035590644 0.2544276756122544	0.103520
H	0.7820568782729774 0.0876672400100647 0.7438536394488237	0.098618
H	0.7192015519832163 0.4155982007785133 0.7506911473957754	0.107647
H	0.4156012952445364 0.7191943890318510 0.7507142849077830	0.107599
H	0.0876820986649247 0.7820562932638622 0.7438305121933748	0.098662
H	0.0872711875578394 0.7129840617822807 0.2534367804638437	0.103582
H	0.4149787123521124 0.7773532660004725 0.2544374303661255	0.103607
H	0.2129757602335040 0.5872712807490806 0.2534304936892542	0.103572
H	0.2773485162473606 0.9149905687330616 0.2544296290105713	0.103499
H	0.2820599661712132 0.5876612530312365 0.7438501613455836	0.098617
H	0.2191959565462960 0.9155983842536476 0.7506925681798363	0.107639
H	0.7773537047652792 0.9149832427531419 0.7455799866309872	0.103625
H	0.7129888168148871 0.5872603471419275 0.7465574311735633	0.103559
H	0.7191960501991812 0.9156037569567064 0.2493092512058382	0.107730
H	0.7820576149340175 0.5876727730325041 0.2561426872147318	0.098508
H	0.5876658234566957 0.7820522926742388 0.2561561666233924	0.098501
H	0.9156006555588126 0.7191922786256714 0.2493062919198138	0.107740
H	0.9149978701125069 0.7773531331147696 0.7455669045680290	0.103532
H	0.5872728788959847 0.7129812683813057 0.7465686088756334	0.103574
Fe	0.2508439856592106 0.2508226922655062 0.4984791598566472	0.787190
Fe	0.7508336424431571 0.2508369983920150 0.5015247976986599	0.787083
Fe	0.2508399153247930 0.7508360202609551 0.5015359121571442	0.787039
Fe	0.7508370946208773 0.7508307571529073 0.4984783349733974	0.787018
In	0.2491493560278366 0.2491643731097629 -0.0022851959106404	1.543254
In	0.7491396771573030 0.2491583478989192 0.0022963824891034	1.543405
In	0.2491301463802032 0.7491576357281846 0.0023153771895565	1.543192
In	0.7491218125155404 0.7491187077168239 -0.0023165591062411	1.543004
F	0.2555497534351652 0.2554350560474282 0.7382306020014364	-0.535050
F	0.2465604419406353 0.2465888201831926 0.2576064356571560	-0.536915
F	0.1510893330353778 0.1511060313774760 -0.0270181336397732	-0.576055
F	0.2154407041225566 0.3831604849799108 0.0033303805869488	-0.580416
F	0.3831485852398835 0.2154795947129399 0.0034301969528875	-0.580413
F	0.7465578152281912 0.2465814848184120 0.7424100158105079	-0.536890
F	0.7554920848545852 0.2554686059962870 0.2617662257784828	-0.534929
F	0.6510780607948202 0.1511054236701668 0.0270560158553134	-0.576024
F	0.7154816591799603 0.3831606732867863 -0.0033399311133316	-0.580379
F	0.8831547716221204 0.2154828637247982 -0.0033947708399869	-0.580397
F	0.2465501057354652 0.7465855790844900 0.7424222441115860	-0.536900
F	0.2554552594494244 0.7555021259341395 0.2617855303039471	-0.534920
F	0.1510885370848659 0.6511003581554005 0.0270499761677736	-0.575983
F	0.2155044131382885 0.8831758085353801 -0.0032956854730857	-0.580338
F	0.3831358290965741 0.7154672660773381 -0.0034207316770104	-0.580355
F	0.7554478244616114 0.7554390036428674 0.7382051497594938	-0.535009
F	0.7465371997419694 0.7465359843771929 0.2575928221737966	-0.536822
F	0.6510749722708461 0.6510590539474215 -0.0270554474621482	-0.575799
F	0.7155130019072173 0.8831640231052159 0.0032979973823838	-0.580340
F	0.8831449613853165 0.7154649244824270 0.0034119367754358	-0.580389
N	0.4048478640290558 0.2498490362104793 0.4972894112126700	-0.207436
N	0.0975488530517487 0.2490058703973833 0.5013169892559231	-0.207328
N	0.2498456732791705 0.4048419296439984 0.4972808464278335	-0.207271
N	0.2490015322498141 0.0975411362254691 0.5013219829555642	-0.207300
N	0.9048494949910462 0.2498498951520024 0.5027108976685823	-0.207358
N	0.5975495737582520 0.2490043723451110 0.4986707319127578	-0.207304
N	0.7498514103722675 0.4048512575634727 0.5027211585780913	-0.207144
N	0.7490080041212105 0.0975409365565695 0.4986563353600005	-0.207176
N	0.4048482503799128 0.7498473100981000 0.5027368850688863	-0.207216
N	0.0975407243645448 0.7490033992965777 0.4986502765836804	-0.206997
N	0.2498482354283651 0.9048455311390741 0.5027208264301702	-0.207310
N	0.2490043775500675 0.5975428087711425 0.4986588641030458	-0.207185
N	0.9048547189285976 0.7498490866697779 0.4972829576294653	-0.207185
N	0.5975330929165749 0.7490084644117322 0.5013407861753236	-0.207126
N	0.7498498295880233 0.9048488546981632 0.4972879618397918	-0.207248
N	0.7490027355808254 0.5975371185717105 0.5013237725896393	-0.207179
	  	
