#======================================================================

# CRYSTAL DATA

#----------------------------------------------------------------------

data_VESTA_phase_1


_pd_phase_name                         InFFIVE_16_Cu_i
_cell_length_a                         25.22792
_cell_length_b                         25.22786
_cell_length_c                         7.96533
_cell_angle_alpha                      90.00053
_cell_angle_beta                       89.99917
_cell_angle_gamma                      90.00972
_symmetry_space_group_name_H-M         P 1
_symmetry_Int_Tables_number            1

loop_
_symmetry_equiv_pos_as_xyz
   x, y, z

loop_
   _atom_site_label
   _atom_site_fract_x
   _atom_site_fract_y
   _atom_site_fract_z
   _atom_site_charge
C	0.4780888240547788 0.3861259077496473 0.3721876034520470	0.101103
C	0.4774083442391827 0.3310541989773130 0.3669670162991877	-0.169333
C	0.9552784271467711 0.6128520909307276 0.9437542591700029	-0.125461
C	0.9554185296416207 0.5577646279851114 0.9444190834613708	-0.125543
C	0.5218256808004340 0.6141910310568151 0.3710301743253631	0.108536
C	0.5227304175963712 0.6691975749383408 0.3655740678409686	-0.169619
C	0.0447194650616091 0.3872662257323237 0.9436932405030837	-0.126185
C	0.0445684112937991 0.4423462958114234 0.9443592490344764	-0.125489
C	0.6140985371739274 0.4780991567377655 0.3733699026456834	0.099863
C	0.6691253057032568 0.4773434370078047 0.3678177289858555	-0.168295
C	0.3872435478602674 0.9552687483743918 0.9437449589108160	-0.125817
C	0.4423222078697518 0.9554177420487630 0.9444595511955088	-0.125184
C	0.3861749785707156 0.5218266056137788 0.3720275207061369	0.104036
C	0.3311397637383848 0.5226136873824885 0.3661436314947361	-0.171576
C	0.6128604012981568 0.0447183445019272 0.9437212045034709	-0.126130
C	0.5577718366552156 0.0445574760065712 0.9443890941595422	-0.125858
C	0.5218268500462359 0.3861758622171659 0.6279695786378362	0.104018
C	0.5226135554031405 0.3311400794121090 0.6338556580879229	-0.171567
C	0.0447181087604299 0.6128605947654042 0.0562796021384137	-0.126018
C	0.0445572977951383 0.5577720064153555 0.0556105608291869	-0.126006
C	0.4780985583761075 0.6140973228434012 0.6266320240859242	0.099917
C	0.4773434019460123 0.6691250654647909 0.6321825930045708	-0.168411
C	0.9552689795638565 0.3872436692529939 0.0562545620014942	-0.125836
C	0.9554174249427753 0.4423220478932971 0.0555397139113329	-0.125173
C	0.3861252977743491 0.4780882459808492 0.6278102824057481	0.101072
C	0.3310541463284127 0.4774082837024269 0.6330333319471030	-0.169292
C	0.6128513383952137 0.9552779165326309 0.0562452168830859	-0.125469
C	0.5577640721582009 0.9554183205956723 0.0555797949439990	-0.125484
C	0.6141922628852181 0.5218260930303215 0.6289721989445364	0.108556
C	0.6691980141717929 0.5227304631035735 0.6344264027473375	-0.169579
C	0.3872655942633245 0.0447191004156346 0.0563070696299615	-0.126327
C	0.4423457859651209 0.0445684237148765 0.0556406774427199	-0.125335
C	0.5447201040356107 0.8872682947504401 0.5563059857588817	-0.126156
C	0.5445644413147367 0.9423480713874282 0.5556332652048799	-0.125638
C	0.0218163462981540 0.1141872111109646 0.1289727559492188	0.108552
C	0.0227267312488440 0.1692001225554272 0.1344207593152068	-0.169915
C	0.4552762292605701 0.1128499443829688 0.5562495453603754	-0.125427
C	0.4554212970278071 0.0577645108007722 0.5555766527431073	-0.125438
C	0.9780889006571126 0.8861201968520006 0.1278156272737450	0.101176
C	0.9774038378475278 0.8310527549726724 0.1330394639540222	-0.169275
C	0.1128584867748797 0.5447201756221992 0.5562804434078669	-0.125988
C	0.0577713051134571 0.5445543251564088 0.5556054210118193	-0.125917
C	0.8861713712837399 0.0218284769489424 0.1279729616053840	0.104049
C	0.8311373810776448 0.0226127004904394 0.1338575852787835	-0.171457
C	0.8872461500616520 0.4552658361274856 0.5562562741654937	-0.125890
C	0.9423247354006130 0.4554201407366796 0.5555364186087987	-0.125207
C	0.1140931594347889 0.9781035106188165 0.1266531208119631	0.099896
C	0.1691277378283504 0.9773414335442879 0.1322048570467278	-0.168596
C	0.4552663448680225 0.8872466034267351 0.4437444864085793	-0.125996
C	0.4554206816248265 0.9423247800658349 0.4444649665555645	-0.125120
C	0.9781039430688895 0.1140933262723032 0.8733484225910078	0.099934
C	0.9773418980592491 0.1691273834718113 0.8677961322075357	-0.168680
C	0.5447196287149877 0.1128586603807421 0.4437192204961397	-0.125995
C	0.5445538760962204 0.0577717169564621 0.4443938431336505	-0.125884
C	0.0218288699893321 0.8861719711022632 0.8720268803224236	0.104132
C	0.0226124060256468 0.8311387808650510 0.8661418437234205	-0.171511
C	0.8872680534973181 0.5447202991623729 0.4436931334927706	-0.126185
C	0.9423482160553486 0.5445646582630722 0.4443663306585229	-0.125589
C	0.1141875655427329 0.0218165993313291 0.8710291557895812	0.108407
C	0.1692010047406803 0.0227270833152388 0.8655810137034241	-0.169775
C	0.1128502790281914 0.4552763535917059 0.4437501057676146	-0.125432
C	0.0577646423328517 0.4554212231762912 0.4444228422474499	-0.125426
C	0.8861189748511882 0.9780891368292677 0.8721859965046318	0.101090
C	0.8310513075826148 0.9774040554671068 0.8669624812839627	-0.169392
C	0.4999737931146644 0.3022302699685580 0.5005279586256181	0.173260
C	0.5000014721861650 0.2459744626147808 0.5005763701304992	-0.115919
C	0.5000221841174178 0.1976026120221357 0.5002378032884757	-0.094056
C	0.5000055798877596 0.1413563997156106 0.5000290648824068	0.124209
C	0.4999873076342389 0.0292566779273351 0.5000026347914531	0.067273
C	-0.0000275705092802 0.8022278434494350 -0.0005359328922063	0.173162
C	0.0000006677759397 0.7459754520598350 -0.0005817422079373	-0.115968
C	0.0000231200145777 0.6975948551313882 -0.0002401659656276	-0.094093
C	0.0000065927313195 0.6413556704864827 -0.0000260290482874	0.124459
C	-0.0000130534461449 0.5292602952865458 -0.0000017461328481	0.067398
C	0.4999833203528398 0.6979941670802633 0.4988946875547409	0.171524
C	0.5000098706368478 0.7542228722169589 0.4991452728030483	-0.112653
C	0.5000205502392132 0.8025726081982227 0.4996468317331468	-0.098294
C	0.5000025056404709 0.8587847762782264 0.4999595107023151	0.126717
C	0.4999923640379131 0.9708381056390777 0.5000320541896472	0.065516
C	-0.0000193415425570 0.1979917775875724 0.0011068226389940	0.171450
C	0.0000095030546861 0.2542224100511246 0.0008483247827961	-0.112303
C	0.0000218755860525 0.3025784975500281 0.0003521825089271	-0.098626
C	0.0000045335628637 0.3587835822950088 0.0000392978753101	0.126717
C	-0.0000079100976380 0.4708358134175059 -0.0000325691159666	0.065391
C	0.6979946487454117 0.4999835764562900 0.5011053167964582	0.171503
C	0.7542221051533149 0.5000099020045677 0.5008537461015758	-0.112659
C	0.8025734574510532 0.5000197180406352 0.5003520025369831	-0.098260
C	0.8587846466545422 0.5000024316050160 0.5000406910401379	0.126668
C	0.9708376969471419 0.4999924082924030 0.4999679168117029	0.065462
C	0.1979918308786074 -0.0000198186849832 -0.0011065914108192	0.171336
C	0.2542248332450887 0.0000088145030058 -0.0008477065020413	-0.112303
C	0.3025756544167166 0.0000208730959894 -0.0003519119863400	-0.098490
C	0.3587833905803904 0.0000041930886713 -0.0000392824201550	0.126651
C	0.4708357217792005 -0.0000074445123292 0.0000307565841730	0.065369
C	0.3022299421093188 0.4999744742496331 0.4994735438802973	0.173361
C	0.2459773769978091 0.5000027773824323 0.4994280048930672	-0.116235
C	0.1975991917333563 0.5000229846439691 0.4997647853134781	-0.093856
C	0.1413566238222269 0.5000061952256240 0.4999715772334398	0.124268
C	0.0292566771109118 0.4999873211720606 0.4999967590069977	0.067371
C	0.8022267699817273 -0.0000275823386594 0.0005381227260455	0.173103
C	0.7459708285937664 -0.0000000927399858 0.0005868086618944	-0.115620
C	0.6975988263696401 0.0000225190233816 0.0002430673537185	-0.094375
C	0.6413548632257141 0.0000063994407428 0.0000271331902242	0.124540
C	0.5292598934426497 -0.0000130615913224 0.0000012007320820	0.067353
H	0.4610250854701924 0.4095263390341066 0.2700740899281857	0.100347
H	0.4596830275990180 0.3105871403972114 0.2604361381593937	0.127107
H	0.9207402210928650 0.6345056060519658 0.8984760996403576	0.112230
H	0.9209674906707230 0.5362768079023600 0.8970667976372478	0.107071
H	0.5385362472741175 0.5906472686294177 0.2693146959092532	0.094564
H	0.5404755535925485 0.6896802561942948 0.2591840404617769	0.125767
H	0.0792475821526885 0.3655836245232201 0.8984504693899905	0.111985
H	0.0790205061281697 0.4638387016106537 0.8970463240345173	0.106276
H	0.5907543329820496 0.4617954954583656 0.2702980347943931	0.101742
H	0.6894832120739661 0.4597667292410930 0.2608504413873193	0.127195
H	0.3655427485049336 0.9207464183542456 0.8984812369350841	0.112552
H	0.4637938057436259 0.9209667706574000 0.8970992648919967	0.106770
H	0.4099099606450378 0.5392515892512526 0.2714905988374904	0.094754
H	0.3106933875203952 0.5404314839165552 0.2597985550745793	0.126292
H	0.6345168968522360 0.0792665891635906 0.8984515513759412	0.111945
H	0.5362862639017408 0.0790044423339046 0.8970599668661607	0.106931
H	0.5392513716320798 0.4099103509086018 0.7285069312777186	0.094802
H	0.5404312029746164 0.3106935408943834 0.7402003126613295	0.126320
H	0.0792660936352959 0.6345168546443318 0.1015489461946287	0.111952
H	0.0790038999627288 0.5362861804256625 0.1029393439344687	0.106976
H	0.4617942449055485 0.5907540404819939 0.7297038585279741	0.101807
H	0.4597666512797164 0.6894831724365013 0.7391490857205628	0.127228
H	0.9207467150649177 0.3655428510874691 0.1015177910486983	0.112566
H	0.9209665888539494 0.4637939772390130 0.1029003163904839	0.106799
H	0.4095261978168673 0.4610245349283417 0.7299235012604067	0.100362
H	0.3105873483774266 0.4596827465451770 0.7395651949125310	0.127071
H	0.6345049558183466 0.9207399421404415 0.1015232062005422	0.112186
H	0.5362763668265812 0.9209669588445552 0.1029310171347093	0.107065
H	0.5906479330983662 0.5385369643827448 0.7306874193961677	0.094548
H	0.6896810609749523 0.5404763213194373 0.7408154055159438	0.125725
H	0.3655826827068153 0.0792476234703310 0.1015494158478570	0.112010
H	0.4638376555621795 0.0790207965567548 0.1029527190149411	0.106257
H	0.5792484708750526 0.8655795305110020 0.6015472446255771	0.111854
H	0.5790160147814575 0.9638341449605130 0.6029440054181568	0.106390
H	0.0385215658527674 0.0906436165796093 0.2306599760659772	0.094473
H	0.0404697483045240 0.1896827344293674 0.2408148511531083	0.125853
H	0.4207361459376563 0.1345089043876816 0.6015273044864730	0.112098
H	0.4209706654600687 0.0362811278709895 0.6029235980711035	0.107086
H	0.9610206440630655 0.9095262800910660 0.2299132571938601	0.100346
H	0.9596827377575081 0.8105816447521175 0.2395643720457900	0.127170
H	0.1345188816355403 0.5792697696397011 0.6015527765536803	0.111755
H	0.0362891856835183 0.5790006724793539 0.6029297865265442	0.106997
H	0.9099099991067103 0.0392532818189986 0.2284891018165672	0.094834
H	0.8106886424724246 0.0404279212782925 0.2402173810490961	0.126384
H	0.8655399048827306 0.4207418787221919 0.6015217818638142	0.112391
H	0.9637907070608877 0.4209712872546766 0.6028905922214194	0.106815
H	0.0907474285375436 0.9617993319823983 0.2297092713771912	0.101937
H	0.1894867091190517 0.9597684106823576 0.2391524487546300	0.127477
H	0.4207427187398787 0.8655400278685942 0.3984792596013292	0.112419
H	0.4209716480607700 0.9637906343619105 0.3971101949768202	0.106806
H	0.9618002254861860 0.0907481383175706 0.7702925620397955	0.101919
H	0.9597693962137822 0.1894869397686812 0.7608489032930078	0.127483
H	0.5792690882250975 0.1345192811250489 0.3984473162531798	0.111833
H	0.5790003216761420 0.0362897287316139 0.3970697627018572	0.106998
H	0.0392530878545834 0.9099103496134597 0.7715098617876560	0.094801
H	0.0404276100767996 0.8106896249307503 0.7597834095344532	0.126396
H	0.8655798168044263 0.5792486837688156 0.3984516102212964	0.111848
H	0.9638342730159484 0.5790164933214225 0.3970560091207100	0.106382
H	0.0906440251732835 0.0385218073792322 0.7693414253176286	0.094525
H	0.1896828568468376 0.0404698469941954 0.7591843578558679	0.125846
H	0.1345091095410242 0.4207361544368900 0.3984723488516411	0.112080
H	0.0362812270381455 0.4209705773125794 0.3970763254894806	0.107065
H	0.9095256761980741 0.9610205318189758 0.7700895369760186	0.100425
H	0.8105808802946916 0.9596825407662682 0.7604378516925092	0.127236
Cu	0.5002193868261916 0.5002189870341007 0.4999978285165766	0.815851
Cu	0.0002096677646237 0.0002103522621412 0.0000002889768448	0.814967
In	0.4992225403777484 0.4992221552042721 -0.0000025838237858	1.561301
In	-0.0008248248810753 -0.0008260339380501 0.4999990911801608	1.561239
F	0.5015426561853021 0.4988819629277375 0.2627262254427659	-0.591080
F	-0.0010917938776315 0.0015061776281025 0.7626049681700384	-0.591199
F	0.4988810211163738 0.5015426738747151 0.7372725804260761	-0.591123
F	0.0015037752928891 -0.0010900083364691 0.2373932891706462	-0.591192
F	0.4425207772649234 0.4425173891828202 -0.0000089485010751	-0.619514
F	0.9424889133527249 0.9424816121996830 0.4999888232112527	-0.620305
F	0.4768610222657278 0.5761199295136117 0.0084326253915830	-0.620485
F	0.9767019882589980 0.0760016028068338 0.4917272567936230	-0.620725
F	0.5761200812749733 0.4768612745242697 0.9915705851074040	-0.620457
F	0.0760036174947592 0.9766942950713344 0.5082732200172554	-0.620749
N	0.4999334451220425 0.4132181722853341 0.5002303387513064	-0.235899
N	-0.0000661049711029 0.9132114851701182 -0.0002119743520489	-0.236199
N	0.4999364380320270 0.5870637646052125 0.4985435278141088	-0.240908
N	-0.0000642847460452 0.0870682167847375 0.0014278657562152	-0.240929
N	0.5870651914247778 0.4999366964143591 0.5014587842817602	-0.241014
N	0.0870688911298888 -0.0000643991239331 -0.0014255237350564	-0.240657
N	0.4132168537837378 0.4999329087772298 0.4997665132405173	-0.235960
N	0.9132102965981889 -0.0000660371143005 0.0002118624655201	-0.235893
	  	
