#======================================================================

# CRYSTAL DATA

#----------------------------------------------------------------------

data_VESTA_phase_1


_pd_phase_name                         InFFIVE_18_Cd
_cell_length_a                         14.45168
_cell_length_b                         14.34672
_cell_length_c                         8.34183
_cell_angle_alpha                      89.74565
_cell_angle_beta                       96.06213
_cell_angle_gamma                      90.00973
_symmetry_space_group_name_H-M         P 1
_symmetry_Int_Tables_number            1

loop_
_symmetry_equiv_pos_as_xyz
   x, y, z

loop_
   _atom_site_label
   _atom_site_fract_x
   _atom_site_fract_y
   _atom_site_fract_z
   _atom_site_charge
F	0.5040544514299650 0.3349604906283336 0.5360442227024463	-0.593467
F	0.5379638151295841 0.4933557195240346 0.7500766596723800	-0.560714
F	0.3737413697465918 0.5413047295625945 0.5294595891622013	-0.571822
F	0.0022999051162399 0.8347794030542149 0.5285668193598682	-0.596481
F	0.0382386633742353 0.9904874051094494 0.7498880336784262	-0.560634
F	0.8738710397800500 0.0413193560567357 0.5301352255986925	-0.570764
F	0.6184610461624613 0.5484167218472552 0.4673820069430770	-0.570101
F	0.4636971513811544 0.4631108740526202 0.2626981740014580	-0.563209
F	0.1182281165922734 0.0487449675241745 0.4678731508515669	-0.570404
F	0.9633497631490663 0.9658830482965077 0.2611764700239119	-0.564106
C	0.6778791201297057 0.1731347754970035 0.6709239141663191	-0.424532
C	0.7487160159454549 0.1622877164082127 0.8127578350694767	0.206024
C	0.7522787346101800 0.1979730225537013 0.9695767067932534	-0.150882
C	0.6853050773911827 0.2596911046635112 0.0344496020343083	-0.141099
C	0.6745005123063288 0.3564793732823993 0.0033668676120941	0.217905
C	0.7295793195714395 0.4170072218130743 0.9028686465845226	-0.428767
C	0.8771705751177372 0.1853079367405143 0.2187262651164937	-0.436824
C	0.8376291305265712 0.1662105298644881 0.0500093069786170	0.211862
C	0.6197472137252582 0.2369525348695967 0.1406761778245155	0.206558
C	0.5978804983419937 0.1461902567631416 0.2154374207163783	-0.427040
C	0.1782908564022274 0.6731892378218048 0.6709668866490295	-0.423633
C	0.2488641827592939 0.6621508619663734 0.8131793524442776	0.204785
C	0.2522036031775773 0.6978886518328727 0.9699264387738139	-0.150592
C	0.1852396057203378 0.7596555413924614 0.0348509680111987	-0.142143
C	0.1743740943331517 0.8564754480192962 0.0040293226840825	0.218325
C	0.2293885108685757 0.9170550015454798 0.9034799315917961	-0.429864
C	0.3768093749858982 0.6849617276527071 0.2196454878118392	-0.436324
C	0.3373770151585723 0.6659591710797227 0.0508236842350968	0.210935
C	0.1198119616446509 0.7368906626135819 0.1412987536789612	0.206181
C	0.0980625250289541 0.6460973543876054 0.2161050227820799	-0.425209
C	0.3281466198015510 0.1686480977622794 0.3248904387482767	-0.421517
C	0.2539644738738191 0.1607799300058277 0.1875675385026375	0.202500
C	0.2486041815885021 0.1972632501349985 0.0306819867145206	-0.150692
C	0.3153999602328324 0.2585283031068207 0.9631868690356997	-0.146136
C	0.3257428050637205 0.3555042183626217 -0.0082644431666790	0.213313
C	0.2694914225296876 0.4154312244734566 0.0905885283788199	-0.428808
C	0.1193660368442429 0.1914155101356267 0.7881889047572568	-0.433903
C	0.1606522412831722 0.1693488619652601 0.9552534041268149	0.216366
C	0.3802599695380897 0.2364729592424777 0.8557121413496994	0.203817
C	0.4021160253730461 0.1467043771672498 0.7786844060180697	-0.423894
C	0.8286144973501679 0.6684654409802457 0.3247907273872371	-0.422634
C	0.7543465199628034 0.6607295079798776 0.1875552340051385	0.202800
C	0.7487846505731188 0.6972841027273885 0.0306971473912349	-0.150958
C	0.8155427061948097 0.7584839893270274 0.9629795317871718	-0.145937
C	0.8257318386725157 0.8554569342615369 -0.0084150380303975	0.213144
C	0.7693598774227163 0.9151819066232773 0.0905785532821276	-0.429036
C	0.6192826797925814 0.6921673277025117 0.7889442361665450	-0.432047
C	0.6606431403189288 0.6696274845261910 0.9557220794364198	0.216018
C	0.8804129421146175 0.7365380415334472 0.8554764007225160	0.203874
C	0.9023850368952709 0.6468553681633348 0.7784269160117109	-0.424110
H	0.7112840016728179 0.1864521313632347 0.5607559610321728	0.145827
H	0.6308948850252273 0.2313782623480292 0.6879628351601930	0.147013
H	0.6355014493867679 0.1096656125381532 0.6504985227645513	0.132594
H	0.6856271257303179 0.4461590160405000 0.7993979588916857	0.146014
H	0.7859901286419986 0.3763881620669692 0.8590727674350566	0.133098
H	0.7602778027732280 0.4759935128084795 0.9733850437361599	0.133290
H	0.8490379593715112 0.0784652466343702 0.7069077450213482	0.279497
H	0.8592207163122196 0.1302335036833256 0.3022061282952950	0.140130
H	0.8494802049437732 0.2512732325167736 0.2600306137444383	0.137297
H	0.9534076187338770 0.1901982730789100 0.2274206756011459	0.135684
H	0.5731596067726759 0.1562757629206372 0.3340403932850620	0.142817
H	0.6600600787870680 0.1017760667687975 0.2302127179570578	0.152580
H	0.5433964007613392 0.1083251657027572 0.1396658719550224	0.133601
H	0.5234115817987850 0.3296588497542445 0.2383223809503298	0.272034
H	0.2118928091689079 0.6866254803120555 0.5610387236786216	0.146050
H	0.1312926310405948 0.7314402646850225 0.6879702463362402	0.146280
H	0.1358624569369601 0.6097947419123424 0.6500470492962127	0.133002
H	0.1854675653570218 0.9459832124894690 0.7997554564781730	0.146409
H	0.2859367712329723 0.8765399130560437 0.8599324173453519	0.132760
H	0.2599521187362324 0.9761863533733188 0.9738096873674088	0.133343
H	0.3492205333626055 0.5781411135158679 0.7079641886886583	0.278635
H	0.3590059743392655 0.6297983257268783 0.3031324777543106	0.139966
H	0.3490208894787074 0.7508759560019844 0.2609825324524708	0.137772
H	0.4530407442755005 0.6900644549132479 0.2281753359079808	0.135082
H	0.0731374152444261 0.6561521290443586 0.3345843824147651	0.141991
H	0.1603038568761161 0.6017891090771591 0.2309368959066705	0.152276
H	0.0437616290156243 0.6082029902293649 0.1400492289193995	0.133126
H	0.0242397669414088 0.8293196803445885 0.2409591013135951	0.271801
H	0.2981212828886473 0.1777944577331272 0.4392350720835445	0.147151
H	0.3730981549542636 0.2286142760471867 0.3075334356365495	0.141284
H	0.3722394950704272 0.1059185271118001 0.3366500870645108	0.132306
H	0.3130648879064025 0.4480129002567467 0.1906400676890984	0.144264
H	0.2160531381796721 0.3730078864644636 0.1402235456364525	0.132926
H	0.2345109085005748 0.4712753018260658 0.0164837708662739	0.131642
H	0.1514049867527729 0.0826707062346669 0.3006117102376866	0.282015
H	0.1336992582358803 0.1363643174304932 0.7029756077750142	0.142308
H	0.1491611681847680 0.2566103106975370 0.7469441015008302	0.134252
H	0.0435088469153552 0.1991601624789918 0.7826848648867768	0.136625
H	0.4300285047613937 0.1592386335175160 0.6631208860535707	0.142365
H	0.3393124913461714 0.1035356009696809 0.7574711769092750	0.149496
H	0.4544481994531388 0.1063182781377343 0.8555751611335701	0.131366
H	0.4688598737448906 0.3275794600535919 0.7401086853705835	0.268505
H	0.7986155868843202 0.6773645365759735 0.4392269231378718	0.147516
H	0.8735507300990042 0.7285345124648896 0.3079710782854463	0.142074
H	0.8727693060847488 0.6057567400269313 0.3364355851159813	0.131709
H	0.8128299790576077 0.9479586937762533 0.1905758561142415	0.144929
H	0.7160971976954706 0.8725514837620689 0.1403035343096370	0.133078
H	0.7340333068224453 0.9708646397757826 0.0165412262380211	0.131859
H	0.6518530230142724 0.5827350381665440 0.3011332513777951	0.282470
H	0.6335604410079807 0.6373335572065819 0.7033296349737438	0.141634
H	0.6490669949194336 0.7575135431637204 0.7483782058774189	0.133885
H	0.5434430264743033 0.6997985373772925 0.7835576839595841	0.136564
H	0.9301670682758036 0.6594835632858226 0.6628058686474471	0.142753
H	0.8396611769626294 0.6035823254456570 0.7575344412938632	0.149708
H	0.9548176437252130 0.6066248048803543 0.8552788671259837	0.131750
H	0.9691018874786258 0.8280003902628189 0.7407643386979937	0.267802
N	0.8274035601327835 0.1121779146653964 0.8068471637097097	-0.152809
N	0.6059863435039354 0.3902424558997296 0.0835855118337136	-0.258773
N	0.8824778630823717 0.1143430843049861 0.9489203027619989	-0.257162
N	0.5740427634975689 0.3170256613754472 0.1650147875929135	-0.150296
N	0.3275058508368301 0.6118537305280597 0.8077842962870616	-0.150817
N	0.1060689123352567 0.8902511991054719 0.0847450149589844	-0.260576
N	0.3823111865265162 0.6138927597870245 0.9501412492363919	-0.256294
N	0.0741946716989767 0.8169377182873808 0.1660811939170412	-0.148918
N	0.1739587724408388 0.1137706509614931 0.1983473477980717	-0.157823
N	0.3933319732074537 0.3900088880770172 0.9091906559670505	-0.272644
N	0.1160979823238708 0.1185649600590293 0.0594527338094912	-0.265846
N	0.4256963520272847 0.3165554208525524 0.8291600031108594	-0.152756
N	0.6742656570542367 0.6138907925262367 0.1987155486441932	-0.158720
N	0.8932313317340405 0.8901109017658280 0.9090502027967664	-0.270834
N	0.6161435952318546 0.6188882058033274 0.0600675752463870	-0.265752
N	0.9257191791326481 0.8167424180013114 0.8290355631087288	-0.151383
In	0.4992346041376783 0.4779486003812581 0.5074063175300859	1.558066
In	-0.0011096938156641 0.9779337487714026 0.5064123243204162	1.558939
Cd	0.5000360086627444 0.5093359394975731 0.0070959369538506	0.856717
Cd	-0.0000907538982623 0.0095277877073861 0.0058803285511417	0.857352
	  	
