#======================================================================

# CRYSTAL DATA

#----------------------------------------------------------------------

data_VESTA_phase_1


_pd_phase_name                         InFFIVE_5_Cd_i
_cell_length_a                         20.39233
_cell_length_b                         20.39306
_cell_length_c                         16.85568
_cell_angle_alpha                      89.99365
_cell_angle_beta                       90.00326
_cell_angle_gamma                      89.50486
_symmetry_space_group_name_H-M         P 1
_symmetry_Int_Tables_number            1

loop_
_symmetry_equiv_pos_as_xyz
   x, y, z

loop_
   _atom_site_label
   _atom_site_fract_x
   _atom_site_fract_y
   _atom_site_fract_z
   _atom_site_charge
F	0.2937341619823514 0.1440019703878855 0.3595102120243698	-0.616674
F	0.1569897925170880 0.2310789918997526 0.3539312622903225	-0.621556
F	0.3347108367592956 0.3000417613096493 0.3480492328104026	-0.627296
F	0.6993835593931650 0.6656460551252488 0.1522366463147861	-0.627195
F	0.7684024362234076 0.8429696023321009 0.1458020466203174	-0.621490
F	0.8559358148467124 0.7063684333948954 0.1406963844924010	-0.616443
F	0.6571360527475631 0.7309508607589980 0.6456783254095453	-0.621685
F	0.7938851391895907 0.6438327705471466 0.6409604518032613	-0.616579
F	0.8348421591246155 0.7999554769992856 0.6521593992457363	-0.627007
F	0.1995374497051554 0.1654027063012005 0.8477198961027955	-0.627268
F	0.3559557326881829 0.2062525198080631 0.8592526091534488	-0.616608
F	0.2684265157271306 0.3428931644185605 0.8540535690785652	-0.621722
F	0.2490650988439198 0.2646711730403001 0.4708744185053914	-0.568103
F	0.2485236410902457 0.2520974029472215 0.2315220558352589	-0.570448
F	0.7351427964414884 0.7505904415867024 0.0290549217049881	-0.568161
F	0.7479469819397728 0.7515591846320593 0.2685438066869072	-0.570251
F	0.7494413420427616 0.7644784023162099 0.5290129515484114	-0.568227
F	0.7485068463656470 0.7517587065628794 0.7685760155789829	-0.570548
F	0.2355723485039340 0.2507008608082138 0.9709710959718235	-0.567983
F	0.2482854027560767 0.2512738714830073 0.7313230315535009	-0.570248
N	0.3657027124061460 0.2480181612323618 0.6001122867313462	-0.243742
N	0.1343196674936553 0.2553558506364169 0.5976160529304957	-0.240988
N	0.2503541739692969 0.3664301113592178 0.6080545919954079	-0.240029
N	0.2462414361761894 0.1350226608481814 0.6012639316224156	-0.246998
N	0.6335607676914806 0.7496607582490524 0.8918977399592048	-0.240572
N	0.8649515596967940 0.7537841242756635 0.8986795124715307	-0.247293
N	0.7446698587548470 0.8656957691258989 0.9023460443113269	-0.240846
N	0.7520268964333527 0.6343174327776787 0.8997807784885152	-0.243098
N	0.6342906632338773 0.7553747077049272 0.4024469533755250	-0.241093
N	0.8656808742949926 0.7480303286099493 0.3996999291417579	-0.243323
N	0.7462543837420774 0.6350362561463678 0.3985639278285069	-0.246994
N	0.7503945487612073 0.8664475412305931 0.3920512764705563	-0.240247
N	0.3649866401361345 0.2537774723212949 0.1013836456756795	-0.247187
N	0.1336031643989677 0.2496335581651062 0.1080185053075672	-0.240443
N	0.2519859543421462 0.1342896728956499 0.1003244885995680	-0.243475
N	0.2446071785835362 0.3656832473165370 0.0975716087275005	-0.241059
C	0.3987423690122953 0.2260484021751156 0.6641242375622368	0.100713
C	0.4668180358638344 0.2252193040576548 0.6675530593131043	-0.177299
C	0.5031758117799061 0.2489265245305988 0.6030663667515929	0.104730
C	0.4679852996410767 0.2724384938041655 0.5372146494238260	-0.177851
C	0.3997813342756001 0.2707703619823743 0.5375565213650496	0.099917
C	0.5754323102811792 0.2491990054677963 0.6051448044406710	0.055697
C	0.6106352137556620 0.1952900551108424 0.6357397251809084	-0.128989
C	0.6788536411807212 0.1953597386713262 0.6371707651062914	-0.127595
C	0.7139565622780184 0.2499589815966889 0.6101070863534312	0.068369
C	0.6786488486862293 0.3042451794549971 0.5807688692445120	-0.122429
C	0.6104866376166557 0.3035165447007894 0.5772480728060199	-0.125879
C	0.1019387674355816 0.2752809919591257 0.6629032836273857	0.097402
C	0.0339099857482939 0.2762866169945388 0.6675118522952210	-0.185521
C	-0.0030763417695323 0.2540924678460932 0.6027452930061480	0.108246
C	0.0314372899467959 0.2333206621794065 0.5350703537657305	-0.178869
C	0.0996359960380697 0.2354786447559357 0.5341753826383263	0.102569
C	0.9246589342518852 0.2526814964031034 0.6058150363769446	0.053234
C	0.8888164834226204 0.3060610355677406 0.6366298895037579	-0.130521
C	0.8206325507627455 0.3051037574043325 0.6379553833280511	-0.124375
C	0.7862274272880742 0.2501772997163147 0.6105629517271867	0.066934
C	0.8221762696593161 0.1962403350245979 0.5815553416964183	-0.119935
C	0.8903262704315378 0.1978095043776200 0.5781501451219356	-0.128314
C	0.2703394976512630 0.3997092642781021 0.6725150069329219	0.101120
C	0.2723965632578216 0.4679112770520548 0.6738629711406299	-0.179170
C	0.2514836897301345 0.5038969977756033 0.6074075304450094	0.106404
C	0.2296320063922499 0.4683962340922921 0.5413149236770005	-0.187103
C	0.2305821697662207 0.4002937789889693 0.5437292624636342	0.096165
C	0.2515711004587876 0.5761416152954684 0.6075986132735123	0.056923
C	0.3055256570428222 0.6108088747459303 0.6373192747367927	-0.131573
C	0.3052740435438192 0.6790340121400670 0.6375285765118313	-0.124646
C	0.2504673728464886 0.7146005019778245 0.6101488782691876	0.067994
C	0.1963369629072041 0.6798138924545960 0.5811907661787186	-0.121641
C	0.1972477329716178 0.6116314111787140 0.5788565232430093	-0.128443
C	0.2239129179185508 0.1029101594014515 0.6655986998610022	0.098860
C	0.2225060649083296 0.0347926122982245 0.6691523673314310	-0.178212
C	0.2459988466819931 -0.0024191150370310 0.6049452140075543	0.103898
C	0.2690509876995565 0.0319134349071661 0.5385202124742551	-0.177626
C	0.2679761714365591 0.1000649374652557 0.5386072849369319	0.097658
C	0.2471192299220359 0.9252966919025299 0.6071114307095755	0.055476
C	0.1937205498353387 0.8900997132463099 0.6373421703837846	-0.129103
C	0.1948155744240755 0.8218850018488395 0.6379842443447097	-0.126419
C	0.2498766366558647 0.7868435070155645 0.6104330029081170	0.067961
C	0.3037301122207496 0.8220953253682638 0.5816719056317105	-0.122968
C	0.3020180478944791 0.8902578112121972 0.5790053224857015	-0.126909
C	0.6002642300638986 0.7296425166572119 0.8274644360236000	0.101176
C	0.5320622696982510 0.7275851946912958 0.8261380337924924	-0.178809
C	0.4960942728157860 0.7485206364911633 0.8925861673242297	0.106349
C	0.5316165810569008 0.7703882193934967 0.9586551845714808	-0.187562
C	0.5997178048500368 0.7694453577209316 0.9562232265132311	0.096667
C	0.4238481886954137 0.7484390398960742 0.8924115753621247	0.057020
C	0.3891738025402467 0.6944907423204255 0.8626974827497964	-0.131732
C	0.3209446901929871 0.6947406227774026 0.8624912651806901	-0.124410
C	0.2853850311794388 0.7495384048935955 0.8898743332700287	0.067562
C	0.3201782556994218 0.8036658663660606 0.9188297761985382	-0.121298
C	0.3883621094626515 0.8027565636416970 0.9211593531920146	-0.128584
C	0.8970751815425457 0.7760793572811935 0.8343411588297116	0.098707
C	0.9651959799444175 0.7774865209316737 0.8308260317334004	-0.178272
C	0.0023983084117013 0.7540170410528972 0.8950675588889133	0.104085
C	0.9680493603481811 0.7309888127372246 0.9614948172389517	-0.178038
C	0.8998971785562848 0.7320758414951783 0.9613724257206702	0.098265
C	0.0746877880076082 0.7528988123472132 0.8929254048998769	0.055019
C	0.1098854617084590 0.8062963756351704 0.8626852822825197	-0.128653
C	0.1780989141832766 0.8051938420589484 0.8620410157631290	-0.126281
C	0.2131411604354020 0.7501276467941668 0.8895953469182325	0.068304
C	0.1778906291525705 0.6962759986053340 0.9183637580828237	-0.123569
C	0.1097245110674098 0.6979951013463046 0.9210324313292015	-0.126500
C	0.7247469281136237 0.8980933349434362 0.8370595547154767	0.096811
C	0.7237384595629270 0.9661226698123081 0.8324721523587130	-0.185239
C	0.7459285100335515 0.0030869042115640 0.8972511802050581	0.108370
C	0.7666939566488307 0.9685545402383579 0.9649245645650246	-0.178715
C	0.7645403173338446 0.9003589841848871 0.9658056466781794	0.102472
C	0.7473294207757061 0.0753540042308057 0.8941866534299445	0.052894
C	0.6939479055621374 0.1112028701288289 0.8633672743209445	-0.130708
C	0.6949079781246530 0.1793877532233322 0.8620530040997165	-0.123877
C	0.7498311929361061 0.2137915808250415 0.8894549451406309	0.066953
C	0.8037750874003319 0.1778373189955268 0.9184649337032023	-0.120127
C	0.8022040844992111 0.1096859049553143 0.9218657242550081	-0.127833
C	0.7740066511131664 0.6012577548446244 0.8358025651306785	0.100626
C	0.7748198879721253 0.5331811386369261 0.8324276797065286	-0.177081
C	0.7511007216549903 0.4968484484132930 0.8969302702564713	0.104568
C	0.7275823213738484 0.5320590375999752 0.9627444807171479	-0.177635
C	0.7292541238665654 0.6002614579158739 0.9623444072527721	0.099572
C	0.7508233786659949 0.4245908385195543 0.8948814799291224	0.055871
C	0.8047252771370583 0.3893852780521405 0.8642992100229641	-0.129240
C	0.8046526216813714 0.3211652099319782 0.8628626605402737	-0.127416
C	0.7500543068418991 0.2860607506807132 0.8899122309085501	0.068268
C	0.6957682122626804 0.3213710443123575 0.9192471304051462	-0.122613
C	0.6965007730611202 0.3895288786096314 0.9227696478502648	-0.126037
C	0.6018976598593382 0.7753097229594073 0.3371536483588816	0.097403
C	0.5338720064138868 0.7763002963392741 0.3325406986350935	-0.185666
C	0.4969015318745470 0.7540871613192711 0.3973068560391391	0.107783
C	0.5314205225287320 0.7333137814453067 0.4649822473146570	-0.178178
C	0.5996217793569507 0.7354790601089698 0.4658902719669992	0.102151
C	0.4246402360154177 0.7526744105112552 0.3942183873830582	0.053289
C	0.3887965374993328 0.8060560501363836 0.3633912506728891	-0.131076
C	0.3206119217981065 0.8050983723454339 0.3620578900750450	-0.123739
C	0.2862031767695674 0.7501709190743955 0.3894536158332325	0.066710
C	0.3221538205834155 0.6962292096609470 0.4184754421094501	-0.120148
C	0.3903070210487986 0.6977995585781152 0.4218928151928729	-0.127519
C	0.8987449970044354 0.7260819664010348 0.3357131617645280	0.101088
C	0.9668226208702122 0.7252292190291446 0.3323550148037309	-0.177507
C	0.0031520127035142 0.7489078503246643 0.3968821459633242	0.104992
C	0.9679315495652047 0.7724017100114525 0.4626983451566844	-0.177712
C	0.8997315215455697 0.7707416171103286 0.4622966401459389	0.099368
C	0.0754091619077437 0.7491717605293383 0.3948442928854474	0.055512
C	0.1106214401505077 0.6952703409356019 0.3642666979535745	-0.129198
C	0.1788400759569369 0.6953500705002842 0.3628430042053125	-0.127473
C	0.2139317702491530 0.7499486487153606 0.3899035919330210	0.068492
C	0.1786213149881943 0.8042302244170672 0.4192289181529292	-0.122627
C	0.1104604027595412 0.8034933113863018 0.4227367213542675	-0.125863
C	0.7239243207678669 0.6029015602151110 0.3342561817235701	0.099214
C	0.7225124676214384 0.5347801870724207 0.3307713879903483	-0.178625
C	0.7459973320862061 0.4975969282182321 0.3950188816618604	0.104176
C	0.7690512578382966 0.5319545017951316 0.4614149803411337	-0.178032
C	0.7679844099676746 0.6001086450088979 0.4612584020718378	0.097978
C	0.7471119642318210 0.4253160485389446 0.3929002904166661	0.055293
C	0.6937121288611418 0.3901146500857688 0.3626740592920081	-0.128957
C	0.6948112103948386 0.3218989500600836 0.3620351100571223	-0.126147
C	0.7498784365566085 0.2868545793212778 0.3895862979852135	0.068106
C	0.8037307240958385 0.3221096865755070 0.4183549249915534	-0.123379
C	0.8020122411327792 0.3902749581721438 0.4210160446941653	-0.126746
C	0.7703683260882070 0.8997337053378875 0.3275876932897940	0.101628
C	0.7724031538651750 0.9679296894188938 0.3262198781873927	-0.179141
C	0.7514820290717760 0.0039062204894462 0.3926629031660147	0.106206
C	0.7296409872845769 0.9683977200320341 0.4587685385482036	-0.187099
C	0.7306112255692112 0.9002971912168541 0.4563660571126483	0.096112
C	0.7515516156692372 0.0761552315191594 0.3924506882129291	0.057296
C	0.8055035351170541 0.1108219074952997 0.3627155511198140	-0.132026
C	0.8052602721396502 0.1790482713425023 0.3624884906001831	-0.124188
C	0.7504661669990844 0.2146098271096674 0.3898718411791884	0.067580
C	0.6963333569143844 0.1798286229273569 0.4188342764761018	-0.121298
C	0.6972331804257790 0.1116494460817954 0.4211808543607986	-0.128778
C	0.3971329787677782 0.2760922184386703 0.1656995275766330	0.099080
C	0.4652552970795585 0.2775008914106075 0.1692012374406556	-0.178116
C	0.5024429298513995 0.2540263576200588 0.1049602984419795	0.103821
C	0.4680776461272021 0.2309862839370860 0.0385597221992501	-0.177914
C	0.3999196458087849 0.2320601602938162 0.0386944384235767	0.098128
C	0.5747280816456217 0.2529065928370434 0.1070930263588893	0.055324
C	0.6099315372222980 0.3063001503527893 0.1373280521670610	-0.128636
C	0.6781475306220915 0.3052038830594452 0.1379744653364208	-0.126657
C	0.7131948785503022 0.2501428069113346 0.1104212495714553	0.068428
C	0.6779374287590664 0.1962951571994702 0.0816584767608412	-0.123488
C	0.6097674290469340 0.1980118802280305 0.0789861363991561	-0.126884
C	0.1003094294041372 0.2296458114873355 0.1724723781051263	0.101676
C	0.0321109318983928 0.2275955821145683 0.1737994075805354	-0.179273
C	-0.0038555280894032 0.2485261546699854 0.1073444936509394	0.106300
C	0.0316583208304679 0.2703824077770851 0.0412537849057919	-0.186948
C	0.0997555377256944 0.2694209467316283 0.0436891147487008	0.095854
C	0.9238921527421270 0.2484475924175492 0.1075364187211560	0.057160
C	0.8892298808937208 0.1944936589275233 0.1372777078613064	-0.132146
C	0.8210063023858134 0.1947510844344910 0.1375172937064019	-0.124763
C	0.7854411619049585 0.2495524479439160 0.1101364193661869	0.067719
C	0.8202214351545631 0.3036869995241731 0.0811678072533843	-0.121335
C	0.8884029007797131 0.3027736079910138 0.0788033157518924	-0.128665
C	0.2739637781373213 0.1012051457658141 0.1642937402733908	0.101031
C	0.2747995473940904 0.0331258345489807 0.1676455308369639	-0.177180
C	0.2510970617676806 -0.0031875625741119 0.1031248566505936	0.104992
C	0.2275858369573545 0.0320455274583695 0.0373103684942390	-0.177887
C	0.2292418066066722 0.1002447546313629 0.0377329455933506	0.099728
C	0.2508327422824427 0.9245490940644217 0.1051605333941678	0.056049
C	0.3047413861852328 0.8893357392393859 0.1357412246573707	-0.129262
C	0.3046663874316172 0.8211183281771243 0.1371620312833493	-0.127542
C	0.2500591839753207 0.7860253565094496 0.1101050646085125	0.068176
C	0.1957766508646105 0.8213439060700518 0.0807694847759385	-0.122280
C	0.1965099235275354 0.8895009286063564 0.0772620500838666	-0.125966
C	0.2246945357098974 0.3980601055892684 0.1628688936467867	0.097194
C	0.2237186683591158 0.4660844821762894 0.1674846516268939	-0.185507
C	0.2459215405485204 0.5030651458716102 0.1027147646344445	0.108224
C	0.2666728633101799 0.4685529994259022 0.0350348735467140	-0.178469
C	0.2644932303555956 0.4003556735191789 0.0341287079777977	0.102205
C	0.2473379446010416 0.5753246245676403 0.1057977971682224	0.052948
C	0.1939608303497302 0.6111684242937160 0.1366203940658456	-0.130259
C	0.1949160375605292 0.6793490432424537 0.1379536301499389	-0.124610
C	0.2498388089452061 0.7137564722700085 0.1105513978461942	0.066954
C	0.3037778450400070 0.6778130276374321 0.0815389767978008	-0.119754
C	0.3022092526048701 0.6096610714861079 0.0781276693237789	-0.128115
H	0.3697986650341828 0.2096373855646641 0.7147453076616441	0.090603
H	0.4911379920787080 0.2079578205071093 0.7213346605788864	0.118445
H	0.4934450876395450 0.2907218728825798 0.4849954701532348	0.116412
H	0.3713039396139037 0.2874750813996196 0.4862158732977370	0.098710
H	0.5840354731111624 0.1525940767852293 0.6571451994686656	0.101164
H	0.7056302381734966 0.1531111691088068 0.6608000802851309	0.101240
H	0.7052001272499340 0.3466042905095348 0.5583266510673770	0.102138
H	0.5839018666337937 0.3459894329397012 0.5538351532243887	0.105535
H	0.1324650491267036 0.2900502564807917 0.7128607679346740	0.090808
H	0.0098609524399959 0.2923722430753646 0.7219297859280822	0.113047
H	0.0053349370537295 0.2169954308868505 0.4823070519689427	0.116624
H	0.1272845290938949 0.2224681207906617 0.4807441517213739	0.101468
H	0.9147854054630343 0.3492078773220066 0.6580093484780626	0.101623
H	0.7933393997657734 0.3470336541713063 0.6614500899886180	0.103854
H	0.7961858160819856 0.1535406345979137 0.5590762844184389	0.101214
H	0.9174872122907550 0.1557230417448370 0.5547739669446047	0.106246
H	0.2832086692706244 0.3708440957300014 0.7250096950979221	0.100797
H	0.2883393192246875 0.4928488117168643 0.7276086799905780	0.115781
H	0.2133782426599918 0.4936192808740707 0.4877072867405938	0.111692
H	0.2159431374795688 0.3707166950183496 0.4928763178491481	0.093792
H	0.3483383579202473 0.5838155920683155 0.6590703276410413	0.101903
H	0.3474945006177084 0.7054837432507254 0.6605778510720289	0.101685
H	0.1539149757140839 0.7067424840405567 0.5583352099980066	0.101613
H	0.1548694450040060 0.5854014255491126 0.5558638487654139	0.103888
H	0.2079257191027932 0.1326729877444677 0.7161435376305980	0.099915
H	0.2049550016197528 0.0109864605716320 0.7228764231325866	0.117341
H	0.2865181197537859 0.0059158666151420 0.4860177961684315	0.117759
H	0.2842903736819093 0.1270154806975736 0.4862141198240149	0.093192
H	0.1505628421625122 0.9166181576161447 0.6589831823929255	0.102399
H	0.1529502841965419 0.7950128549859719 0.6612277303002263	0.102688
H	0.3464694197719210 0.7955995600306803 0.5589905852070463	0.101413
H	0.3440246778092209 0.9169854189856559 0.5558953145619574	0.104460
H	0.6291145000418455 0.7167155175441899 0.7749885568519813	0.100811
H	0.5070981438244654 0.7116273427144583 0.7724153764403405	0.115650
H	0.5064111708673283 0.7866356546253908 0.0122679809617866	0.111939
H	0.6293084980305528 0.7840925208716368 0.0070692894128317	0.093943
H	0.4161654410410984 0.6516817757605826 0.8409375254476331	0.101905
H	0.2944974569890421 0.6525187486451335 0.8394419518833843	0.101646
H	0.2932540108549060 0.8460817746619472 0.9416904332299663	0.101558
H	0.4145979529249527 0.8451272920264792 0.9441528363858226	0.103955
H	0.8673323386160322 0.7920270275270471 0.7837488269782347	0.100172
H	0.9890143008104599 0.7950221309321812 0.7771035387369063	0.117453
H	0.9940343290364169 0.7135368941941752 0.0140262351170812	0.117868
H	0.8729260217660394 0.7157935592675161 0.0137593011259400	0.092885
H	0.0833688567973530 0.8494521883358827 0.8410286186001886	0.102277
H	0.2049703946965648 0.8470541795901202 0.8387897676804792	0.102599
H	0.2043837549359577 0.6535269851098942 0.9410325665858157	0.101618
H	0.0829995016002602 0.6559846107842588 0.9441434447744966	0.104289
H	0.7099745488069606 0.8675769723035331 0.7870917036612485	0.091133
H	0.7076507414617645 0.9901913249732915 0.7780565267727269	0.112920
H	0.7830032789367822 0.9946410583536760 0.0177026387171986	0.116604
H	0.7775160892882923 0.8727001208142903 0.0192490084255610	0.101576
H	0.6508019244565325 0.0852399525115475 0.8419914782686240	0.101663
H	0.6529727700894113 0.2066861972212026 0.8385592771913474	0.103697
H	0.8464762778786958 0.2038279360041295 0.9409525759507401	0.101237
H	0.8442962975031066 0.0825249051180361 0.9452468568040879	0.106090
H	0.7904146268517390 0.6301720800683763 0.7851521335969855	0.090429
H	0.7920755942648341 0.5088384138370409 0.7786664508249527	0.118508
H	0.7092817604380056 0.5066208586434202 0.0149639698469080	0.116206
H	0.7125057409429770 0.6287727333914287 0.0136251358234640	0.098441
H	0.8474197426885044 0.4159861193693568 0.8429016425516691	0.101222
H	0.8469040370927736 0.2943939187683464 0.8392403358615828	0.101242
H	0.6534140115529896 0.2948157895645888 0.9416912999878051	0.102223
H	0.6540303237953785 0.4161087513354037 0.9461877187085443	0.105665
H	0.6324235637279179 0.7900894071354201 0.2871906192580553	0.091056
H	0.5098125869107075 0.7923768362078645 0.2781219805621110	0.113217
H	0.5053231999443767 0.7169751290891463 0.5177444763260985	0.116342
H	0.6272706994535242 0.7224551185496201 0.5193286005587934	0.101778
H	0.4147664206984457 0.8491988940999597 0.3420156159644102	0.101686
H	0.2933191571988931 0.8470321382526838 0.3385594968626723	0.103676
H	0.2961606684301199 0.6535266134892068 0.4409640296030096	0.101131
H	0.4174633969150308 0.6557106120199094 0.4452788477748053	0.105975
H	0.8698313613013439 0.7097116474360504 0.2850502193497635	0.089832
H	0.9911723042091864 0.7079741391240186 0.2785948350772909	0.118540
H	0.9933614973272106 0.7906690255439772 0.5149481261459191	0.116340
H	0.8712224237628606 0.7874227610954930 0.5136169312104599	0.098681
H	0.0840271268296231 0.6525729027852614 0.3428599716827255	0.101238
H	0.2056210103406452 0.6531055603951754 0.3392265698029890	0.101263
H	0.2051653078811639 0.8465904275994010 0.4416692689147607	0.102263
H	0.0838692838811908 0.8459629674257291 0.4461377712907383	0.105644
H	0.7079203553684885 0.6326420925397993 0.2836784362017081	0.100046
H	0.7049420618863259 0.5109422615074677 0.2770727663079308	0.117415
H	0.7865158567457968 0.5059865012789857 0.5139503861861370	0.118041
H	0.7842907852015373 0.6270933025318000 0.5136201918920216	0.092782
H	0.6505503034274103 0.4166288607286076 0.3410274778193715	0.102357
H	0.6529488869423903 0.2950265892560159 0.3387887970379752	0.102596
H	0.8464757033155278 0.2956110531479779 0.4410317766179088	0.101560
H	0.8440170154175501 0.4169991122599034 0.4441311607744232	0.104403
H	0.7832428346136643 0.8708720711168676 0.2751052984215246	0.100692
H	0.7883253651381856 0.9928808342832963 0.2724731733899119	0.115797
H	0.7133795001050459 0.9936172527854372 0.5123626641586165	0.111682
H	0.7159652088043178 0.8707158781330382 0.5072169766717175	0.093947
H	0.8483087708825111 0.0838206101681748 0.3409538042298505	0.101910
H	0.8474853300882021 0.2054877596065114 0.3394375911301550	0.101662
H	0.6539197387043577 0.2067630662119168 0.4416834542012306	0.101601
H	0.6548567604568493 0.0854222550566191 0.4441754064908319	0.104045
H	0.3673953900983877 0.2920714320863324 0.2162818371524833	0.099923
H	0.4890925675912195 0.2950366812332523 0.2229138160557855	0.117385
H	0.4940395488260749 0.2135288151969608 0.9860258368796359	0.117960
H	0.3729246274664499 0.2157652944564963 0.9863217133480163	0.092914
H	0.5834199087126000 0.3494551632791148 0.1589753864346772	0.102304
H	0.7050204809597687 0.3470621698500976 0.1612227206235872	0.102626
H	0.7044301886464077 0.1535482540499731 0.0589863984317066	0.101612
H	0.5830464078189351 0.1560037338320687 0.0558812845570325	0.104515
H	0.1291567086376662 0.2167722350884647 0.2249744268012021	0.100747
H	0.0071501592683633 0.2116502955861886 0.2275310842436038	0.115884
H	0.0064485545437461 0.2866422142168455 0.9876440088925805	0.111823
H	0.1293478252367025 0.2840687629272670 0.9928490272255619	0.093948
H	0.9162326278888873 0.1516866555851309 0.1590347494438379	0.102300
H	0.7945657315365062 0.1525316008703214 0.1605809407839330	0.101760
H	0.7932880586427269 0.3461056948740030 0.0583141066332679	0.101635
H	0.9146291231666960 0.3451495587755666 0.0558030745422803	0.103970
H	0.2903732632757119 0.1301077903833203 0.2149439096971358	0.090005
H	0.2920731711239868 0.0087668391877790 0.2213931948843036	0.118540
H	0.2093127167027916 0.0066249602104344 0.9850670109214330	0.116362
H	0.2125269276317417 0.1287621634758407 0.9864265054700018	0.098426
H	0.3474423175987562 0.9159245432161595 0.1571492222704007	0.101050
H	0.3469131245365555 0.7943303937417672 0.1607901962044813	0.101414
H	0.1534169819505889 0.7947958219467306 0.0583319220105320	0.102122
H	0.1540410462795717 0.9160907886990480 0.0538617990391636	0.105549
H	0.2099235114236026 0.3675215128428735 0.2128211967764130	0.091058
H	0.2076532427933391 0.4901352322727274 0.2219089760639623	0.112993
H	0.2830003682567635 0.4946584524337868 0.9822723623579990	0.116450
H	0.2774756912187344 0.3727031893653817 0.9806917857300734	0.101894
H	0.1508184146989096 0.5851938823324375 0.1579989796113981	0.101623
H	0.1529873423091989 0.7066422493762026 0.1614522461632405	0.103819
H	0.3464805760667122 0.7038075559534264 0.0590530839762561	0.101128
H	0.3442999849620241 0.5825052697073940 0.0547471710009049	0.106189
Cd	0.2504486121845271 0.2499140875968340 0.6007496260230443	0.821530
Cd	0.7500640074221500 0.7495856537692912 0.8991743075965181	0.821395
Cd	0.7503932792354292 0.7499061676040583 0.3990945932992074	0.821732
Cd	0.2501144132682068 0.2495844734443852 0.1008902964034145	0.821706
In	0.2573270815531160 0.2370104993742143 0.3527205206703570	1.565645
In	0.7628572521745361 0.7426593486146846 0.1473008913755533	1.565339
In	0.7575192512077209 0.7368507600566589 0.6472743910584170	1.565422
In	0.2628936326883086 0.2425354013911870 0.8526608495825551	1.565306
	  	
