#======================================================================

# CRYSTAL DATA

#----------------------------------------------------------------------

data_VESTA_phase_1


_pd_phase_name                         InFFIVE_1_Fe
_cell_length_a                         11.30268
_cell_length_b                         11.11788
_cell_length_c                         8.42395
_cell_angle_alpha                      90.17816
_cell_angle_beta                       89.80892
_cell_angle_gamma                      90.00257
_symmetry_space_group_name_H-M         P 1
_symmetry_Int_Tables_number            1

loop_
_symmetry_equiv_pos_as_xyz
   x, y, z

loop_
   _atom_site_label
   _atom_site_fract_x
   _atom_site_fract_y
   _atom_site_fract_z
   _atom_site_charge
C	0.2528635654508256 0.4581795904206230 0.3724820267018830	0.101317
C	0.1298620330010312 0.4580709187976975 0.3681019376214217	-0.172646
C	0.7481263648182599 0.5404244511286940 0.3735964817228025	0.105833
C	0.8710477422383870 0.5413991206401746 0.3685919045973117	-0.171165
C	0.5418223923610987 0.2566909186386154 0.3749482248513066	0.102683
C	0.5422667528077757 0.1318419176503143 0.3696713785232794	-0.171885
C	0.4588851120391471 0.7435125833103163 0.3734505680833930	0.100024
C	0.4583140721244309 0.8684168699543946 0.3692137846667942	-0.170948
C	0.7477201345136052 0.4593010318762218 0.6271222130243221	0.099699
C	0.8707134828142674 0.4586741898003744 0.6314210164204124	-0.170538
C	0.2525270339053803 0.5412586150479892 0.6256867335306772	0.103581
C	0.1295817471748744 0.5418074273826821 0.6310313659454064	-0.172474
C	0.4577028619639822 0.2569897734435559 0.6269222019616663	0.100157
C	0.4576688870897879 0.1320806362213907 0.6312431177410387	-0.172578
C	0.5409224690550429 0.7438789015711881 0.6257379968866750	0.104460
C	0.5417650064227880 0.8687037277428511 0.6306988173143445	-0.171176
C	0.0656063758539615 0.5000253198212873 0.4996612164993196	0.102181
C	0.9349778870360794 0.5000827477824396 0.4998890951570868	0.097146
C	0.5000423239606200 0.0666727220732110 0.5003609582418698	0.102584
C	0.5000645708144389 0.9338313060565783 0.5000808087759903	0.099390
H	0.3050317380094402 0.4250154869929713 0.2721833378752859	0.094547
H	0.0848798575637864 0.4231421137830025 0.2633681664795236	0.123860
H	0.6959239783931448 0.5708948067434036 0.2730703859874355	0.090942
H	0.9159843807298700 0.5757575371861993 0.2634706660623139	0.120479
H	0.5745748701866823 0.3104484019273623 0.2763158921664580	0.091150
H	0.5769584830746028 0.0861074147109806 0.2647971334295997	0.121811
H	0.4285377999869306 0.6909141975662477 0.2722269370791623	0.095819
H	0.4238359666714799 0.9135101371065091 0.2644039333541472	0.124714
H	0.6960345838904337 0.4288386692342002 0.7288475468533456	0.096284
H	0.9153008933429638 0.4242072059738785 0.7363794697800683	0.123515
H	0.3051839853299573 0.5741300103748496 0.7249326678518929	0.091099
H	0.0844479113298793 0.5765020925995311 0.7361260709152531	0.121169
H	0.4245915269910520 0.3100972725139545 0.7266619393237859	0.095664
H	0.4226890698297353 0.0865218230804419 0.7357747133463904	0.124965
H	0.5713307437100054 0.6905982182022973 0.7256402366517477	0.091325
H	0.5760753599940919 0.9141975720788210 0.7356453430835386	0.121905
Fe	0.5001054230494564 0.5000816186633823 0.5001047381988394	0.807690
In	0.4994081910421515 0.4992233982555097 0.0000230285903071	1.557316
F	0.5010704796243094 0.4998943486193265 0.7514956137456895	-0.550356
F	0.5002342895884587 0.5003810202966968 0.2485323417753318	-0.550344
F	0.3711334705019115 0.3712640662029142 -0.0002078429787413	-0.617040
F	0.6732092078082020 0.4512420200556262 0.0014825067970797	-0.617419
F	0.4510905524775889 0.6754615783658664 0.9988527596042259	-0.617067
N	0.3133810896228557 0.4997535804922003 0.4990245161851761	-0.245096
N	0.6872135622889382 0.4998771148257339 0.5003886180849447	-0.249069
N	0.4997827262196427 0.3187692990888556 0.5009868062252286	-0.244940
N	0.4999190612966291 0.6817362866986294 0.4995607852649676	-0.248569
	  	
