#======================================================================

# CRYSTAL DATA

#----------------------------------------------------------------------

data_VESTA_phase_1


_pd_phase_name                         InFFIVE_18_Fe
_cell_length_a                         14.23938
_cell_length_b                         14.07690
_cell_length_c                         8.15582
_cell_angle_alpha                      90.26858
_cell_angle_beta                       96.39036
_cell_angle_gamma                      90.17824
_symmetry_space_group_name_H-M         P 1
_symmetry_Int_Tables_number            1

loop_
_symmetry_equiv_pos_as_xyz
   x, y, z

loop_
   _atom_site_label
   _atom_site_fract_x
   _atom_site_fract_y
   _atom_site_fract_z
   _atom_site_charge
F	0.4978764915823998 0.3355501032066318 0.4938012205390345	-0.592525
F	0.5235767463002254 0.4944908485106574 0.7566945788035312	-0.533016
F	0.3658406775955660 0.5323079844481848 0.5140399592709332	-0.558542
F	0.9979534490885208 0.8356854609184780 0.4941306042853539	-0.592519
F	0.0235693859096263 0.9943899813714551 0.7568326576308771	-0.532816
F	0.8659723385022270 0.0326364380306226 0.5140195318997475	-0.558386
F	0.6311439527381125 0.5335706725763292 0.4870859289852561	-0.560555
F	0.4749376308959128 0.4961395211028582 0.2439424587930005	-0.531593
F	0.1311462933235347 0.0337128938126830 0.4870683549857043	-0.560421
F	0.9750463558568069 -0.0037985145087279 0.2439592000571351	-0.531988
C	0.6754056741600918 0.1623761856981117 0.6647824973853297	-0.421080
C	0.7489075131187108 0.1554147083882820 0.8089293097401220	0.198946
C	0.7554910566968549 0.1982619602864168 0.9648717656324997	-0.153531
C	0.6871781362426562 0.2618265066999346 0.0287080761133267	-0.143253
C	0.6731694508867768 0.3598255572439186 0.9944229253068958	0.213992
C	0.7277990053584522 0.4214244020886546 0.8904012028586850	-0.425121
C	0.8849943801413732 0.1948816231102550 0.2167859924292490	-0.430815
C	0.8432451684797319 0.1679908435083168 0.0471899001750714	0.215988
C	0.6222115769131953 0.2385240965473758 0.1389540883606783	0.205491
C	0.6020773565738161 0.1461627851061394 0.2163739434270770	-0.426862
C	0.1754506409697422 0.6624301703510974 0.6646921111822661	-0.421590
C	0.2489954718261478 0.6554684133577769 0.8087910648646603	0.198783
C	0.2555725789401297 0.6983671767092068 0.9647058138668542	-0.153318
C	0.1872211038296532 0.7618997627319947 0.0284746154900912	-0.143138
C	0.1731777245138775 0.8598719349270886 0.9943085196152851	0.214483
C	0.2277439661213984 0.9214973456720518 0.8903286077300777	-0.424382
C	0.3850581842276123 0.6951678130338771 0.2167235485550240	-0.431982
C	0.3433432273226492 0.6681332602500268 0.0471310150588685	0.215313
C	0.1222542482598784 0.7385479080388565 0.1387113466115275	0.205641
C	0.1021632562018217 0.6462019371159221 0.2162348540348334	-0.427004
C	0.3258706494032776 0.1633705625442542 0.3333680430496943	-0.422015
C	0.2509070085680962 0.1564079899001436 0.1912569341929862	0.199953
C	0.2445415867048750 0.1973111729233602 0.0344744420064061	-0.154061
C	0.3136694036569715 0.2598111516345675 0.9704256855868536	-0.142384
C	0.3280803591704298 0.3577051453510520 0.0076947944741626	0.216806
C	0.2724615141341113 0.4187674810245813 0.1112787211498217	-0.428762
C	0.1129861634724263 0.1965119912413127 0.7865164297459989	-0.430547
C	0.1552835633952898 0.1689553285590300 0.9547486655525553	0.218202
C	0.3790581246998483 0.2369295281862185 0.8605201426793283	0.207155
C	0.3994637827438681 0.1456938123236921 0.7784819564681932	-0.429526
C	0.8260110589718326 0.6631203949394121 0.3331926383161302	-0.422522
C	0.7509851824282435 0.6562778343670880 0.1911803008631243	0.200209
C	0.7445961724173205 0.6972158076994600 0.0344181576506750	-0.154343
C	0.8137226573197675 0.7597002394777413 0.9703152599521190	-0.142931
C	0.8280759766704582 0.8575691823814576 0.0073521095736738	0.217596
C	0.7724975057401761 0.9186227967957141 0.1108627537120902	-0.428476
C	0.6129339621296320 0.6966302207133159 0.7864784947994928	-0.431675
C	0.6552654233668501 0.6689563143781159 0.9547309405764697	0.218396
C	0.8791225798243092 0.7367844693487328 0.8603754244674223	0.206282
C	0.8995741294377135 0.6455393556409562 0.7783360871141852	-0.429060
H	0.7069067619672678 0.1827965884287393 0.5530361104665080	0.145619
H	0.6228321975235108 0.2160947396053202 0.6878389116165938	0.136898
H	0.6385465815603308 0.0942127377048603 0.6385461754721892	0.133214
H	0.6824332819438927 0.4529022087702573 0.7874825856064718	0.138423
H	0.7826997253591162 0.3791361497366077 0.8404947318625228	0.133344
H	0.7618213410927024 0.4802922849101337 0.9640052372911295	0.132492
H	0.8478879815416751 0.0663549283370571 0.7045840133549999	0.272437
H	0.8623266792019599 0.1460478921752007 0.3098704507923477	0.134859
H	0.8617681295609131 0.2666698949901716 0.2466427632640411	0.132157
H	0.9624685939670127 0.1936589191776953 0.2266436174457245	0.136357
H	0.5707863096940923 0.1569193912549535 0.3319431423174748	0.142447
H	0.6672484043267626 0.1049328444549381 0.2421997705658462	0.151460
H	0.5523837774786785 0.1030176814604335 0.1335681494795055	0.132794
H	0.5266753802280679 0.3294857426340195 0.2463936464468980	0.264899
H	0.2069596168253910 0.6827504625856848 0.5529462652981321	0.145838
H	0.1229352872683867 0.7162254880136530 0.6876830622270161	0.136980
H	0.1385432537599743 0.5943109803924882 0.6385201617980751	0.133398
H	0.1824299225141515 0.9530605082242100 0.7872844923361348	0.138092
H	0.2827416355969891 0.8792906844627159 0.8403342451738849	0.132846
H	0.2618267816576680 0.9804213093011774 0.9639235255611086	0.132160
H	0.3479183614348379 0.5663258778432877 0.7045545968811434	0.272591
H	0.3625078949838874 0.6463484843435798 0.3098140292506027	0.135216
H	0.3617594094833158 0.7669318177399197 0.2462266658678986	0.132897
H	0.4624589613165201 0.6939841627006121 0.2263279303648116	0.136977
H	0.0708484623382250 0.6569713770832575 0.3318334096020175	0.142341
H	0.1673868501514048 0.6050263282173829 0.2420289280269592	0.151320
H	0.0525076853682689 0.6030238359824298 0.1333905983914465	0.132866
H	0.0266046279579060 0.8295127787745449 0.2460938078813904	0.265002
H	0.2950852010589536 0.1770105898563231 0.4487690149710903	0.145336
H	0.3750384845237383 0.2214859104623236 0.3151159666861690	0.139663
H	0.3668622904848962 0.0972196029066958 0.3495210967237973	0.132285
H	0.3180210879205232 0.4586901087787565 0.2046187234015356	0.140402
H	0.2237341052065759 0.3745322986967197 0.1732169763920766	0.135015
H	0.2305614302396511 0.4706069536595078 0.0338373215360310	0.133351
H	0.1502246440380035 0.0702580161294104 0.2984305241682684	0.274139
H	0.1323779351917475 0.1463099150171811 0.6922187247554119	0.134289
H	0.1393379289718569 0.2671417809166619 0.7566157068747158	0.132558
H	0.0355848723712531 0.1986532537459471 0.7793307367556815	0.137843
H	0.4320670228579278 0.1586862525919815 0.6649178573981697	0.143163
H	0.3342734179362634 0.1045787558982192 0.7475506161986729	0.153161
H	0.4481560179172331 0.1013168102791995 0.8595455893369068	0.133627
H	0.4763734370916680 0.3289810751897223 0.7591287681729445	0.265208
H	0.7952725397435981 0.6767387400638174 0.4486100925086490	0.145731
H	0.8752293201613015 0.7212110350020502 0.3150110334833108	0.139416
H	0.8669156754390266 0.5969228215908990 0.3493837667379073	0.132389
H	0.8179663613226400 0.9585636322381619 0.2044675891936570	0.140484
H	0.7236363522045375 0.8744161280024730 0.1726491777386156	0.134729
H	0.7305897071418708 0.9705594189006554 0.0334930145060118	0.133097
H	0.6503519595249458 0.5701726772081510 0.2984956918082641	0.273943
H	0.6321832346726208 0.6463461296819556 0.6923624830283549	0.135068
H	0.6393964688693700 0.7671770835468779 0.7567059753874673	0.133052
H	0.5356124903300076 0.6988207728536459 0.7796334041898463	0.138222
H	0.9321944823848289 0.6585321343767292 0.6647350574048597	0.143284
H	0.8344027680271680 0.6043534261941740 0.7475379284781080	0.153084
H	0.9483067993835766 0.6012573159436131 0.8595108794318789	0.133660
H	0.9762725808449880 0.8289094938091391 0.7585663093197482	0.265691
N	0.8279568564464002 0.1029311467664347 0.8055780959353975	-0.152689
N	0.6032515213048215 0.3937453911044470 0.0763465285773672	-0.267069
N	0.8865329870817933 0.1097764891799034 0.9481866178278898	-0.258290
N	0.5740115738068385 0.3190292395425074 0.1628061700045296	-0.147033
N	0.3280372600507738 0.6029819384947657 0.8055072888059724	-0.152590
N	0.1032699290054807 0.8937820069373125 0.0762656474789790	-0.266609
N	0.3866240969505915 0.6098841782462253 0.9481472062453208	-0.258035
N	0.0740264011454624 0.8190437547767053 0.1626275629856723	-0.147651
N	0.1703726998155952 0.1061741837192995 0.1972263049497866	-0.151707
N	0.3986650118886220 0.3920201131272407 0.9280744886203732	-0.264305
N	0.1110737392730232 0.1128459967630558 0.0554191291094088	-0.262949
N	0.4279107254330467 0.3177728616957264 0.8400904722044326	-0.149754
N	0.6704372016696196 0.6060998048780405 0.1972454663194128	-0.151405
N	0.8986036522139408 0.8918941634011036 0.9276340568516268	-0.265864
N	0.6110573256498012 0.6128357891790730 0.0554557828180473	-0.263358
N	0.9279452047828222 0.8176420502933465 0.8398031349013966	-0.148810
In	0.4984366543495457 0.4807499653734841 0.4998673090653708	1.557079
In	-0.0014885899915959 0.9808852259462242 0.5000471744510910	1.557326
Fe	0.4998707186121319 0.5075613156238177 0.0011609566130164	0.816520
Fe	-0.0001370052853588 0.0075158213402964 0.0011064513835053	0.816880
	  	
