#======================================================================

# CRYSTAL DATA

#----------------------------------------------------------------------

data_VESTA_phase_1


_pd_phase_name                         InFFIVE_6_Ni_i
_cell_length_a                         17.72022
_cell_length_b                         17.72022
_cell_length_c                         16.11492
_cell_angle_alpha                      89.99994
_cell_angle_beta                       90.00017
_cell_angle_gamma                      89.97268
_symmetry_space_group_name_H-M         P 1
_symmetry_Int_Tables_number            1

loop_
_symmetry_equiv_pos_as_xyz
   x, y, z

loop_
   _atom_site_label
   _atom_site_fract_x
   _atom_site_fract_y
   _atom_site_fract_z
   _atom_site_charge
N	0.2439661441031660 0.1315368150781389 0.1278636908125137	-0.239104
N	0.2560331869053971 0.3685427823179337 0.1285955624272226	-0.241033
N	0.3684803676851433 0.2440473921907665 0.1284268672177627	-0.239006
N	0.1314927856434954 0.2560207177244127 0.1275017273896246	-0.240973
N	0.7559517546640920 0.6315209196614631 0.3715702092146716	-0.239021
N	0.7439786510937241 0.8685068677981602 0.3724996528651274	-0.241006
N	0.6314592738152248 0.7439670351866788 0.3714039564929407	-0.241038
N	0.8684623831192810 0.7560342486271712 0.3721339994547161	-0.239052
N	0.7560326650434149 0.8685404025683719 0.8714068446239667	-0.241050
N	0.7439666990221631 0.6315373693459178 0.8721349767707992	-0.239070
N	0.6314934732807781 0.7560199138904273 0.8725019999949400	-0.241168
N	0.8684793806091803 0.7440485166459757 0.8715724592503712	-0.239027
N	0.2439787388158148 0.3685067052955839 0.6274989189216453	-0.240879
N	0.2559512144058318 0.1315208322729085 0.6284297099585459	-0.239120
N	0.3684625041250187 0.2560341209190038 0.6278657446772494	-0.239087
N	0.1314593964946477 0.2439674290174381 0.6285956779957315	-0.241031
C	0.2013794088284324 0.0949690704693275 0.1840002030613655	0.109727
C	0.1931115594020130 0.0170568782110727 0.1837390773050957	-0.179796
C	0.2322948622910131 0.9739635217047401 0.1248735377792478	0.112418
C	0.2778852515026301 0.0125212049473323 0.0677702821945138	-0.179167
C	0.2812793223977457 0.0908024117870259 0.0706383792715734	0.102817
C	0.2263660074199627 0.8911526160859788 0.1237138191246868	0.061120
C	0.2908280842903629 0.8470641194433416 0.1208377168275638	-0.174708
C	0.2864367884432849 0.7675178797998661 0.1219850277463889	0.086044
C	0.1479910360949375 0.7785457689539085 0.1245613397346834	-0.123793
C	0.1543215036521133 0.8558661541985468 0.1267478661401530	-0.135666
C	0.2986549283577942 0.4049973924023602 0.1849377400399816	0.097517
C	0.3068772686253843 0.4829905614737186 0.1845174919803260	-0.183691
C	0.2675905093324717 0.5260788681673003 0.1256179177521902	0.108808
C	0.2222167431021735 0.4874889108800141 0.0684113022292397	-0.180522
C	0.2189428920165258 0.4091780947792377 0.0709629741270921	0.101162
C	0.2736459007556652 0.6088626197747757 0.1241019414361770	0.061668
C	0.2091710821391982 0.6529264808036063 0.1209702645799169	-0.174422
C	0.2135169690259904 0.7324825331763998 0.1219814438139069	0.086183
C	0.3519469126304463 0.7214392372955170 0.1245803488817452	-0.124778
C	0.3457099467742944 0.6441033265016888 0.1269197229489182	-0.136379
C	0.4049989986716028 0.2012420235926761 0.1844471473984842	0.101040
C	0.4829623945855245 0.1930902684970358 0.1843509793435987	-0.183758
C	0.5260581321678920 0.2324932218330600 0.1255811227195793	0.112078
C	0.4874752586132798 0.2779186195458038 0.0684259318136100	-0.176540
C	0.4092075204049440 0.2812551688717503 0.0711210483780306	0.109696
C	0.6088525120755688 0.2264103670159817 0.1241172766566985	0.061509
C	0.6528836747738672 0.2908616868292707 0.1210044389759560	-0.174271
C	0.7324417275645267 0.2864308912659234 0.1220010121781206	0.085740
C	0.7214854723029257 0.1480208237313098 0.1246023042614017	-0.123778
C	0.6441489898890207 0.1543397897351479 0.1269221075514462	-0.135327
C	0.0949652954424003 0.2984903701992293 0.1839318326535921	0.103484
C	0.0170166571088013 0.3067717997607306 0.1835484938183467	-0.181861
C	0.9739434335525847 0.2676631622461559 0.1246484175685698	0.109675
C	0.0125291424269841 0.2221179249891152 0.0674422193453337	-0.181906
C	0.0908796834941480 0.2187531950232527 0.0700384160846782	0.098820
C	0.8911265623808893 0.2735539884834161 0.1236150952691305	0.061001
C	0.8470830868749896 0.2091025109009782 0.1208028406767952	-0.173406
C	0.7675315631587227 0.2135009411810050 0.1220111542521777	0.085711
C	0.7784700031945212 0.3519349995266468 0.1245752018922167	-0.123337
C	0.8557975221904562 0.3456105153391901 0.1267250381043011	-0.136952
C	0.7987576019149873 0.5950024262297556 0.3155489477072381	0.100911
C	0.8069095712348271 0.5170383689816851 0.3156467028574416	-0.183644
C	0.7675068748578934 0.4739435257269879 0.3744171951271754	0.112138
C	0.7220830427660916 0.5125255150894004 0.4315725252168736	-0.176509
C	0.7187447829146527 0.5907932342255746 0.4288783406912273	0.109669
C	0.7735896315225984 0.3911482454884453 0.3758803055197921	0.061461
C	0.7091381606390254 0.3471165480498326 0.3789929621857791	-0.174338
C	0.7135694237123428 0.2675577633777266 0.3779956239814367	0.085791
C	0.8519801624362877 0.2785136918258817 0.3753948652126056	-0.123847
C	0.8456614100441401 0.3558515041142149 0.3730749153814490	-0.135294
C	0.7015090024196826 0.9050341551288263 0.3160673032207529	0.103317
C	0.6932290029114606 0.9829825255288763 0.3164501880411378	-0.181734
C	0.7323373853134094 0.0260552481939371 0.3753504119166250	0.109607
C	0.7778819207902721 0.9874702981553397 0.4325578624232711	-0.181929
C	0.7812468172080709 0.9091197184303742 0.4299639633950352	0.098879
C	0.7264469126855139 0.1088727332530227 0.3763823964790952	0.061068
C	0.7908987948429542 0.1529170540362097 0.3791948058764529	-0.173424
C	0.7865000550936131 0.2324692207765783 0.3779857255216633	0.085660
C	0.6480652934999706 0.2215306081205703 0.3754219926070058	-0.123365
C	0.6543895019026910 0.1442022301627154 0.3732720986593225	-0.136977
C	0.5950039583062624 0.7013457615964841 0.3150605773855463	0.097632
C	0.5170117287730988 0.6931244284731568 0.3154796501739612	-0.183660
C	0.4739230795965874 0.7324101833624411 0.3743794790921446	0.108816
C	0.5125126211792215 0.7777828484082524 0.4315870310870956	-0.180514
C	0.5908220997166004 0.7810574126817342 0.4290375009346045	0.101112
C	0.3911379843309739 0.7263553191908617 0.3758949374102285	0.061685
C	0.3470738959173655 0.7908299733562096 0.3790278522917727	-0.174445
C	0.2675170326721364 0.7864839177118337 0.3780154813267160	0.086203
C	0.2785595162508724 0.6480527001409834 0.3754169985937496	-0.124577
C	0.3558973456918181 0.6542900472414517 0.3730771873198213	-0.136643
C	0.9050301181030681 0.7986214213524148 0.3159964167284661	0.109594
C	0.9829421449935849 0.8068881344489846 0.3162587453484421	-0.179802
C	0.0260352651936200 0.7677046964815856 0.3751257780778679	0.112355
C	0.9874777424842294 0.7221158608252130 0.4322295927770733	-0.179167
C	0.9091968574654465 0.7187212924165944 0.4293616960573439	0.102757
C	0.1088467607479639 0.7736340519194175 0.3762843937037264	0.061179
C	0.1529360185499216 0.7091714534184175 0.3791602815185283	-0.174737
C	0.2324827331252556 0.7135631724484248 0.3780118733648525	0.086028
C	0.2214545302655962 0.8520094415759397 0.3754360736582716	-0.123791
C	0.1441333972880558 0.8456791690902996 0.3732499560547266	-0.135707
C	0.7986539100878659 0.9049957328238137 0.8150632778055183	0.097579
C	0.8068755234865952 0.9829884958996876 0.8154819205366184	-0.183679
C	0.7675901988412898 0.0260773218880246 0.8743815164644522	0.108651
C	0.7222171416379577 0.9874868051480070 0.9315885398320285	-0.180375
C	0.7189434127547787 0.9091770171696693 0.9290388489092249	0.101088
C	0.7736452056775032 0.1088617890877774 0.8758983846048369	0.061759
C	0.7091705465910604 0.1529259780779439 0.8790305279166789	-0.174453
C	0.7135167218585349 0.2324827279027559 0.8780200084130709	0.086175
C	0.8519474468745288 0.2214398856539997 0.8754213853993809	-0.124615
C	0.8457094009648912 0.1441027564995180 0.8730811194290483	-0.136614
C	0.7013793987544215 0.5949697286830867 0.8159988911764033	0.109599
C	0.6931122679102761 0.5170579570506744 0.8162614289278024	-0.179697
C	0.7322951179912559 0.4739647501590621 0.8751271757896580	0.112249
C	0.7778850197148044 0.5125226203905938 0.9322306530661809	-0.179174
C	0.7812795626109618 0.5908036583526439 0.9293612350410657	0.102876
C	0.7263665881488816 0.3911532373723574 0.8762873626244293	0.061202
C	0.7908286163523547 0.3470643319690380 0.8791630072849466	-0.174661
C	0.7864369868329476 0.2675176495050845 0.8780164127926304	0.086080
C	0.6479913154497944 0.2785461797072490 0.8754400567541956	-0.123804
C	0.6543218376489822 0.3558668937668422 0.8732534759794718	-0.135785
C	0.5949660227523105 0.7984898323612439 0.8160710955278532	0.103448
C	0.5170168422483183 0.8067703039604923 0.8164528652131477	-0.181829
C	0.4739443204555802 0.7676623441834585 0.8753528059535879	0.109666
C	0.5125301566182027 0.7221173501604840 0.9325594356849639	-0.181980
C	0.5908805422739165 0.7187521991766764 0.9299645645446734	0.098945
C	0.3911268504128908 0.7735530861078059 0.8763858923347918	0.061013
C	0.3470830916307814 0.7091017768413372 0.8791982980943822	-0.173399
C	0.2675311043401918 0.7135005851480765 0.8779903377040393	0.085710
C	0.2784702558108150 0.8519345926692047 0.8754264017063572	-0.123407
C	0.3557979497906524 0.8456099204301646 0.8732760142271127	-0.136917
C	0.9049973305145551 0.7012428307276894 0.8155518364164384	0.101002
C	0.9829615687118951 0.6930906561042280 0.8156496833363669	-0.183771
C	0.0260568001430986 0.7324936296241171 0.8744192270071336	0.112210
C	0.9874740219046321 0.7779183615138456 0.9315740282261714	-0.176597
C	0.9092060268885958 0.7812550559199625 0.9288786749558713	0.109705
C	0.1088518004240077 0.7264110261934897 0.8758834202120409	0.061542
C	0.1528834115985865 0.7908623604401069 0.8789962936648700	-0.174322
C	0.2324418204243606 0.7864311015216046 0.8780003253047078	0.085771
C	0.2214849798285032 0.6480209098876504 0.8753991301960639	-0.123798
C	0.1441482193605073 0.6543400880889784 0.8730786171682868	-0.135410
C	0.2015087495441321 0.4050343550076672 0.6839302984454952	0.103365
C	0.1932286877078755 0.4829828070044110 0.6835483142657716	-0.181827
C	0.2323371622065011 0.5260564201601026 0.6246484254729600	0.109739
C	0.2778817647315971 0.4874708717969539 0.5674407887043573	-0.182032
C	0.2812466873847679 0.4091204757186643 0.5700352839156438	0.098796
C	0.2264466637156659 0.6088733778195025 0.6236164344806341	0.060899
C	0.2908991237725061 0.6529171385928164 0.6208037937661049	-0.173408
C	0.2864997781634844 0.7324691951942878 0.6220137672813492	0.085696
C	0.1480652203220430 0.7215308210361244 0.6245772768034299	-0.123269
C	0.1543893311760762 0.6442025471492664 0.6267268549285020	-0.136970
C	0.2987567849178328 0.0950023585711951 0.6844506941996590	0.101033
C	0.3069098892089406 0.0170387238091542 0.6843524031360749	-0.183738
C	0.2675073990964645 0.9739430186539705 0.6255818824026004	0.112157
C	0.2220827925063976 0.0125255271654307 0.5684261741371551	-0.176545
C	0.2187444469743369 0.0907930990419871 0.5711207631750276	0.109756
C	0.2735898950754563 0.8911482728645793 0.6241188078442976	0.061543
C	0.2091385676408602 0.8471169494798358 0.6210060246128424	-0.174365
C	0.2135692795323939 0.7675584685270669 0.6220036332148330	0.085754
C	0.3519798447042095 0.7785141184541714 0.6246042237329353	-0.123797
C	0.3456614087373114 0.8558518101053662 0.6269237519249280	-0.135375
C	0.4050307957513826 0.2986209824885200 0.6840033406789552	0.109644
C	0.4829428543131514 0.3068881836935511 0.6837411556267695	-0.179835
C	0.5260364406425925 0.2677047599491189 0.6248743288371665	0.112368
C	0.4874784870226566 0.2221155161850814 0.5677705155149262	-0.179193
C	0.4091978101551491 0.2187211227780240 0.5706388200221578	0.102897
C	0.6088472243690052 0.2736340208252889 0.6237153436154599	0.061154
C	0.6529361681265513 0.2091712972927104 0.6208393776912886	-0.174723
C	0.7324825693361749 0.2135629355105795 0.6219877481347835	0.085993
C	0.7214545023566481 0.3520092978405656 0.6245629530076222	-0.123760
C	0.6441335871007150 0.3456790215116315 0.6267491982694696	-0.135704
C	0.0950042985357483 0.2013459201045017 0.6849396283849074	0.097649
C	0.0170118369585302 0.1931239814804741 0.6845200883344154	-0.183678
C	0.9739225140749321 0.2324100416441930 0.6256197132918839	0.108824
C	0.0125123223240368 0.2777829964422954 0.5684117586957463	-0.180451
C	0.0908220617123425 0.2810570310723982 0.5709608270823003	0.101041
C	0.8911378365902644 0.2263550512229511 0.6241041514017207	0.061656
C	0.8470738762810620 0.2908295363511599 0.6209715839214622	-0.174434
C	0.7675173806715402 0.2864837127001191 0.6219840536950066	0.086221
C	0.7785595555101896 0.1480526957655826 0.6245823023185455	-0.124607
C	0.8558973266884076 0.1542897340094070 0.6269218097944078	-0.136563
H	0.1744821575131793 0.1299141012720925 0.2310778501598662	0.094029
H	0.1585005951997040 0.9896110061566765 0.2307874800885149	0.114341
H	0.3087548795362433 0.9815233066003234 0.0202123793634874	0.112928
H	0.3141800372774574 0.1229647637848944 0.0257228067724836	0.093173
H	0.3463307592726421 0.8737694708266429 0.1202406965391883	0.107135
H	0.0925584210210516 0.7517030709030282 0.1252910150024023	0.112041
H	0.1039876113126091 0.8913534875330584 0.1289076290731822	0.100427
H	0.3261658150985395 0.3701017120320128 0.2319069654159915	0.098596
H	0.3421734541523360 0.5103821059295657 0.2309792582827987	0.114973
H	0.1915759809004694 0.5181961232722573 0.0204126815107289	0.116034
H	0.1876219808818329 0.3775179246328214 0.0242104353364424	0.100127
H	0.1536915610104228 0.6261857464422065 0.1202528354162404	0.108239
H	0.4073233946077301 0.7483554179274841 0.1252468756930529	0.107372
H	0.3960650247134166 0.6086330365082419 0.1290546268963862	0.102013
H	0.3697032004198533 0.1731555215102677 0.2304712542677767	0.092988
H	0.5104857146129481 0.1579081428505877 0.2308358064533246	0.113571
H	0.5182668097692728 0.3083072979118301 0.0203325649227932	0.115566
H	0.3772847623087561 0.3130050369252406 0.0251029630050478	0.095424
H	0.6261365388572183 0.3463622544655075 0.1203285175025830	0.108734
H	0.7483286212493465 0.0925782925164229 0.1252130723964287	0.109048
H	0.6087726029483296 0.1039651347148537 0.1289554292369905	0.102449
H	0.1294614152208018 0.3247892917737354 0.2319261422410691	0.099502
H	0.9897229492647664 0.3414618641130048 0.2306811158793103	0.115879
H	0.9815787522489018 0.1909853119089132 0.0200753174442363	0.113929
H	0.1228489396219231 0.1860785938139011 0.0245599426897501	0.096415
H	0.8738443309537314 0.1535975045755653 0.1201551374078718	0.105663
H	0.7514966359835462 0.4073204691711302 0.1253281924332197	0.109416
H	0.8913167383756010 0.3958903524547366 0.1289835783549833	0.099693
H	0.8268439575338020 0.6302981531198590 0.2695260413067004	0.093002
H	0.8420912990434617 0.4895160436081403 0.2691621906579196	0.113544
H	0.6916943789795279 0.4817344672744907 0.4796675789675103	0.115548
H	0.6869977869638366 0.6227158688146618 0.4748962202985317	0.095476
H	0.6536380592732821 0.3738641080455631 0.3796698677973900	0.108762
H	0.9074222544860500 0.2516714729337785 0.3747849363099748	0.109081
H	0.8960354249126731 0.3912276239110568 0.3710425005364214	0.102449
H	0.6752114197227220 0.8705373368050935 0.2680741591486385	0.099597
H	0.6585391234126824 0.0102759048953869 0.2693164559136760	0.115877
H	0.8090145789564337 0.0184207110853031 0.4799249229414754	0.113904
H	0.8139208339108266 0.8771495780444870 0.4754410947900514	0.096413
H	0.8464034006609203 0.1261554707795361 0.3798434799920721	0.105695
H	0.5926798721090144 0.2485034408522311 0.3746695807248281	0.109457
H	0.6041099024330348 0.1086832770794207 0.3710144480749956	0.099663
H	0.6298999306125185 0.6738355422829011 0.2680914723687215	0.098519
H	0.4896197006523389 0.6578283824355303 0.2690175143007845	0.114981
H	0.4818051583075356 0.8084229960535915 0.4795859548653827	0.116028
H	0.6224835048731322 0.8123771176279915 0.4757900741019947	0.100140
H	0.3738149568925467 0.8463095932748306 0.3797455887705075	0.108274
H	0.2516449319999259 0.5926770229196741 0.3747509394084612	0.107315
H	0.3913674328692851 0.6039353869394144 0.3709432572343957	0.102052
H	0.8700844946415519 0.8255171776639044 0.2689194635421589	0.094081
H	0.0103878489389412 0.8414987043200449 0.2692109821774262	0.114401
H	0.0184757794165580 0.6912471412432413 0.4797885158838266	0.112957
H	0.8770335476618628 0.6858224487265211 0.4742765557084584	0.093222
H	0.1262299588413251 0.6536692165029458 0.3797580095580279	0.107113
H	0.2482964161697300 0.9074418008008230 0.3747068930957898	0.112034
H	0.1086462568870813 0.8960125672063846 0.3710906723500952	0.100460
H	0.8261642309533180 0.8700994642159784 0.7680943139787687	0.098558
H	0.8421721371025096 0.0103793509861015 0.7690203780690874	0.115013
H	0.6915771103608565 0.0181937941750683 0.9795870392306807	0.116035
H	0.6876253613842208 0.8775146143966118 0.9757939396424220	0.100146
H	0.6536908801922657 0.1261857392046462 0.8797483131452610	0.108233
H	0.9073232918119011 0.2483544789831611 0.8747546112917800	0.107329
H	0.8960645397521192 0.1086326824501340 0.8709463908350140	0.102039
H	0.6744838219799155 0.6299154827937865 0.7689206337314617	0.094098
H	0.6585009565600101 0.4896129842821322 0.7692126503668599	0.114349
H	0.8087541709001131 0.4815252242089436 0.9797892180445792	0.112933
H	0.8141811516436495 0.6229662142946027 0.9742754038762749	0.093158
H	0.8463309842941149 0.3737696691184560 0.8797606609516340	0.107108
H	0.5925583718166635 0.2517040637668573 0.8747100321533989	0.112054
H	0.6039878935413521 0.3913539200576329 0.8710935388867932	0.100476
H	0.6294613081674563 0.8247910484288119 0.7680784508078914	0.099542
H	0.4897253740327233 0.8414609505019839 0.7693195169780055	0.115891
H	0.4815797982275074 0.6909853263488333 0.9799263650131915	0.113909
H	0.6228497518141498 0.6860777202596726 0.9754431958360223	0.096453
H	0.3738440754643897 0.6535967200530350 0.8798461448749044	0.105669
H	0.2514976463056050 0.9073205313780349 0.8746736418245364	0.109450
H	0.3913171526555985 0.8958897100387360 0.8710172967189428	0.099677
H	0.8697009136256640 0.6731578200590835 0.7695269529683153	0.092985
H	0.0104832508484173 0.6579091248918518 0.7691646320245493	0.113551
H	0.0182650858644823 0.8083069919339790 0.9796681913446031	0.115562
H	0.8772838389293282 0.8130048813041669 0.9748960375813711	0.095460
H	0.1261365438668486 0.8463628467861375 0.8796726596373434	0.108755
H	0.2483274723960051 0.5925781830374814 0.8747888369811121	0.109066
H	0.1087720651822412 0.6039654909939103 0.8710456363827983	0.102500
H	0.1752102399856206 0.3705389414725314 0.7319239508474080	0.099517
H	0.1585394458839973 0.5102757278193039 0.7306823342132033	0.115889
H	0.3090143269140400 0.5184217583910203 0.5200745269770171	0.113977
H	0.3139217684041968 0.3771511756009823 0.5245583678553226	0.096442
H	0.3464025507117700 0.6261557119786217 0.6201556022460201	0.105706
H	0.0926800198444891 0.7485036819986125 0.6253294171340438	0.109427
H	0.1041097638690475 0.6086835676675050 0.6289846807548819	0.099677
H	0.3268406140744610 0.1302986211836084 0.7304755963328431	0.092982
H	0.3420910529788520 0.9895156986195042 0.7308372189090466	0.113545
H	0.1916943724514910 0.9817341230668852 0.5203319935975429	0.115540
H	0.1869960308558687 0.1227159244906001 0.5251040133738130	0.095453
H	0.1536385964806348 0.8738643231553884 0.6203291765562947	0.108754
H	0.4074218335354640 0.7516715915334687 0.6252141763748649	0.109101
H	0.3960356204531927 0.8912276012093358 0.6289565026822223	0.102454
H	0.3700855074701251 0.3255153508611177 0.7310812028353356	0.094079
H	0.5103884890007702 0.3414982312945944 0.7307887405784671	0.114395
H	0.5184762846451031 0.1912468078244614 0.5202125317451555	0.112943
H	0.3770350345447242 0.1858201346403179 0.5257255431770754	0.093144
H	0.6262301060770373 0.1536695300791415 0.6202416447570747	0.107133
H	0.7482965932445441 0.4074414222759751 0.6252920581878690	0.112029
H	0.6086462636444874 0.3960123012371609 0.6289082778011144	0.100439
H	0.1298999681355794 0.1738368848543716 0.7319094334196508	0.098529
H	0.9896194996991461 0.1578275282801382 0.7309814052617877	0.114974
H	0.9818043541080109 0.3084228879742580 0.5204135162626113	0.116020
H	0.1224843047895243 0.3123739035253376 0.5242064609474995	0.100148
H	0.8738148643904814 0.3463088494237739 0.6202536304787679	0.108268
H	0.7516447443704638 0.0926772014115911 0.6252478763744168	0.107312
H	0.8913674053837326 0.1039352413281425 0.6290558219416579	0.102018
F	0.2570059437630167 0.1364247277346905 0.3777967379391822	-0.631571
F	0.1482107919513193 0.3039392005977822 0.3785280241154148	-0.625814
F	0.3451471998386695 0.3157603340575645 0.3783278483857623	-0.629759
F	0.6842266642401369 0.6548555609757246 0.1216792850408294	-0.629790
F	0.6960459151372752 0.8517909792611768 0.1214716659210076	-0.625849
F	0.8635554862782675 0.7429908673392986 0.1222021835913464	-0.631547
F	0.6481620601063870 0.8039981762844444 0.6214847404382530	-0.625879
F	0.7569318408341367 0.6364733419317467 0.6222088846967178	-0.631470
F	0.8451179295430391 0.8157575896463245 0.6216617655724783	-0.629698
F	0.1842173938145045 0.1548883781315968 0.8783200004167830	-0.629699
F	0.3635203167829330 0.2430131911922544 0.8777924199383955	-0.631482
F	0.1960372338213729 0.3518498316303942 0.8784992448879412	-0.625906
F	0.2491487977646333 0.2496494588565979 0.2492607102373996	-0.567316
F	0.2493851217731369 0.2491999930869911 0.5071910521202015	-0.568146
F	0.7503533142171882 0.7508753271429986 0.2507428934715066	-0.567340
F	0.7507880524785824 0.7506111970985910 -0.0071850462132135	-0.568133
F	0.7491358777982783 0.7496501466600445 0.7507550307484351	-0.567284
F	0.7493737539423808 0.7492138890039854 0.4928193236175033	-0.568145
F	0.2503527099652200 0.2508647274196029 0.7492448042051508	-0.567290
F	0.2507808065608587 0.2506411146643787 0.0071748958466924	-0.568155
Ni	0.2498774641606123 0.2502651306800846 0.1283348706800145	0.764535
Ni	0.7497360853389263 0.7501244945338350 0.3716637851237734	0.764598
Ni	0.7498765683964890 0.7502631207271396 0.8716653558877986	0.764559
Ni	0.2497361521931657 0.2501235730023960 0.6283358796066796	0.764547
In	0.2503543525742156 0.2510402909341538 0.3781749381830066	1.586338
In	0.7489483520728748 0.7496465496872265 0.1218282025013276	1.586393
In	0.7503095132524195 0.7510712035207525 0.6218355669292709	1.586229
In	0.2489279741778002 0.2496833420872373 0.8781572557963117	1.586283
	  	
