#======================================================================

# CRYSTAL DATA

#----------------------------------------------------------------------

data_VESTA_phase_1


_pd_phase_name                         InFFIVE_16_Fe_i
_cell_length_a                         25.15871
_cell_length_b                         25.15659
_cell_length_c                         8.15345
_cell_angle_alpha                      89.99929
_cell_angle_beta                       90.00558
_cell_angle_gamma                      90.03069
_symmetry_space_group_name_H-M         P 1
_symmetry_Int_Tables_number            1

loop_
_symmetry_equiv_pos_as_xyz
   x, y, z

loop_
   _atom_site_label
   _atom_site_fract_x
   _atom_site_fract_y
   _atom_site_fract_z
   _atom_site_charge
C	0.4786205811444993 0.3880747917488838 0.3740605235674848	0.092726
C	0.4778580644299457 0.3328671220711941 0.3696922628313639	-0.170993
C	0.9552604739405999 0.6127739777027016 0.9436151261984097	-0.123261
C	0.9553730352507284 0.5575987123441651 0.9443290728958557	-0.127297
C	0.5209427400509579 0.6122226851291874 0.3730155124242278	0.098685
C	0.5219308949441646 0.6673922477959172 0.3679912319923179	-0.171064
C	0.0447296610311394 0.3874541902002737 0.9436723907337472	-0.125677
C	0.0446136881264379 0.4426280042183863 0.9443085499962286	-0.126101
C	0.6123366046093540 0.4789157864909231 0.3741543434365289	0.093680
C	0.6675293282775164 0.4780609571912140 0.3698636416914531	-0.170670
C	0.3874269174626654 0.9552546004775804 0.9436084969410967	-0.124939
C	0.4425954604785738 0.9553673223499156 0.9444102710406904	-0.126193
C	0.3881314962502413 0.5215003100535576 0.3742806770682294	0.095199
C	0.3329435663903328 0.5221922290853872 0.3688759254656210	-0.171694
C	0.6127944508137950 0.0447461780053612 0.9436536756898893	-0.123775
C	0.5576209429121665 0.0446155035370008 0.9443600729935658	-0.127006
C	0.5215237227575209 0.3881758573634456 0.6256863889102569	0.095579
C	0.5221984974821341 0.3329914449485491 0.6310843223863550	-0.171734
C	0.0447424605315906 0.6128160078634339 0.0563354595397230	-0.124250
C	0.0446140562681125 0.5576392225113223 0.0556363185099275	-0.127586
C	0.4789106111797604 0.6122872524506031 0.6258592853987353	0.092801
C	0.4780645058089298 0.6674843148786495 0.6301271321969107	-0.170527
C	0.9552551942967977 0.3874246775842515 0.0563835200935796	-0.125309
C	0.9553676724148414 0.4425965174814299 0.0555797642285639	-0.126173
C	0.3880360986417803 0.4786075365517612 0.6259206972815603	0.092577
C	0.3328255611686712 0.4778506271344765 0.6303446428738904	-0.170781
C	0.6127605952938028 0.9552661825712245 0.0563796329073289	-0.123445
C	0.5575892611326896 0.9553751524505441 0.0556664795854295	-0.126460
C	0.6122788957213668 0.5209405316248009 0.6270037921944347	0.098983
C	0.6674456561487625 0.5219373714999548 0.6320443245668261	-0.171445
C	0.3874648364398132 0.0447377174317636 0.0563362327443597	-0.125776
C	0.4426346934172042 0.0446173025560702 0.0556927701068585	-0.126094
C	0.5446033462587705 0.8868568354486738 0.5561453801810435	-0.124915
C	0.5444931098733841 0.9421260122449394 0.5555322923077366	-0.126410
C	0.0211626438415829 0.1142707842087021 0.1270371783854963	0.101345
C	0.0220485525903569 0.1693740702646706 0.1324042458725899	-0.172488
C	0.4554077668167159 0.1133775098721023 0.5562346814719780	-0.124488
C	0.4555012779939344 0.0581060890016907 0.5554976791338598	-0.126413
C	0.9784673285991042 0.8860674360071907 0.1260360724897105	0.095505
C	0.9777857046165591 0.8309152726853606 0.1308789123529277	-0.172592
C	0.1133995980039541 0.5446153531786105 0.5561671772392798	-0.124166
C	0.0581325199011414 0.5444929582476644 0.5554802081931569	-0.128647
C	0.8861384371863253 0.0215261258189329 0.1255633048945025	0.096814
C	0.8310189404437839 0.0221950021318677 0.1313299747484271	-0.173202
C	0.8868488389329509 0.4553800915093005 0.5562961866610842	-0.124419
C	0.9421120103338904 0.4554753005663457 0.5554428019699642	-0.126575
C	0.1142731309707537 0.9789144345968531 0.1256065884412835	0.094443
C	0.1693906861349209 0.9780468422622445 0.1303603011143737	-0.171795
C	0.4553871114485993 0.8868280364282403 0.4437089925945111	-0.124054
C	0.4554845254306062 0.9420953086024932 0.4445619558696190	-0.126699
C	0.9789307368496737 0.1142423304665625 0.8742979722956113	0.094729
C	0.9780352820564164 0.1693712329991140 0.8695196660464870	-0.171673
C	0.5446043404071882 0.1134158398222470 0.4438354459535611	-0.124639
C	0.5444842022168769 0.0581437109748855 0.4445285658055339	-0.127292
C	0.0215414160333204 0.8861876360839006 0.8746001212290050	0.096787
C	0.0222037361972077 0.8310737486246482 0.8687375601988568	-0.172991
C	0.8868767799556783 0.5446106073327751 0.4438518416540675	-0.124866
C	0.9421416255172794 0.5444977900134390 0.4444590837718319	-0.126624
C	0.1143090408809532 0.0211382916597119 0.8728518489426296	0.100857
C	0.1694070305153200 0.0220436851098049 0.8675849881751631	-0.171781
C	0.1133608021036637 0.4553939811815073 0.4437532136583991	-0.124121
C	0.0580945047228921 0.4554857282059356 0.4444941278116156	-0.127695
C	0.8860221379780687 0.9784709585198110 0.8740554172140372	0.095329
C	0.8308759863788967 0.9778099511713694 0.8692310449540361	-0.172389
C	0.4999773727129873 0.3037321174552148 0.5005590702160699	0.173475
C	0.4999879551066226 0.2472085116991768 0.5006605536693763	-0.117246
C	0.5000184351873309 0.1986584288090449 0.5003118719937136	-0.092684
C	0.5000182430251311 0.1421251672495649 0.5001054089198960	0.123990
C	0.4999934703209104 0.0294440795629901 0.5000424514671136	0.069135
C	-0.0000354188285119 0.8021393504458133 -0.0003967199127474	0.175022
C	-0.0000142093382289 0.7458778552890039 -0.0004854102352015	-0.118768
C	0.0000107410074990 0.6974433663299455 -0.0002427493345090	-0.093269
C	0.0000099769367076 0.6411823458860690 -0.0000705759897678	0.123910
C	-0.0000062923325562 0.5292939396347074 -0.0000451605880831	0.069703
C	0.4999700212813299 0.6966010385780156 0.4989055582647469	0.171810
C	0.5000196087747294 0.7530991611439143 0.4988809690297935	-0.113787
C	0.5000206877650765 0.8016494146937178 0.4994158777744611	-0.097310
C	0.5000037060326581 0.8581386078932117 0.4998068824211204	0.125563
C	0.4999925435822920 0.9707742596783966 0.5000568429657810	0.066053
C	0.0000015207452526 0.1981772181528663 0.0010735926062537	0.173206
C	0.0000117782199162 0.2544041068724411 0.0009711252922995	-0.115196
C	0.0000127354636353 0.3028251963704420 0.0004979597923702	-0.097107
C	0.0000018126508168 0.3590551284470018 0.0001409446085937	0.126562
C	-0.0000053624691301 0.4709281600215773 -0.0000578456423696	0.065570
C	0.6966476605528319 0.4999736403193168 0.5011200072493710	0.171615
C	0.7531371711546264 0.5000208072558940 0.5011483203407258	-0.113188
C	0.8016822374402429 0.5000223813881535 0.5005959259243797	-0.097431
C	0.8581569557356082 0.5000058954987854 0.5001976098546551	0.125318
C	0.9707793301549837 0.4999885402733163 0.4999417378034589	0.065106
C	0.1982127921251034 -0.0000058572053339 -0.0010876950117525	0.172600
C	0.2544246510574587 0.0000232017586996 -0.0009852863551554	-0.114953
C	0.3028437783236832 0.0000247739248066 -0.0004912224849621	-0.097281
C	0.3590818562490851 0.0000050857814912 -0.0001346078554312	0.126635
C	0.4709330842185344 -0.0000044837711854 0.0000547221579419	0.066413
C	0.3036932248532334 0.4999751975702286 0.4994389194260207	0.173826
C	0.2471747109241216 0.4999942680492083 0.4993406363826439	-0.117599
C	0.1986312789967233 0.5000227162253222 0.4996934330315443	-0.092216
C	0.1421179318500076 0.5000178237841950 0.4998953673103688	0.123390
C	0.0294441312984941 0.4999888219965772 0.4999527780175912	0.072197
C	0.8020939300141832 -0.0000365618054383 0.0004278048264977	0.174912
C	0.7458453269698685 -0.0000051031193117 0.0005125342022634	-0.118352
C	0.6974129506156804 0.0000208158236812 0.0002047552522798	-0.093623
C	0.6411501302996611 0.0000139664314027 0.0000486932076979	0.123925
C	0.5292818256754718 -0.0000051223918140 0.0000395413882789	0.067230
H	0.4619828964258172 0.4113137206612847 0.2731752522596491	0.099928
H	0.4602627964632313 0.3125337088289351 0.2649556097454140	0.127110
H	0.9208619295577911 0.6346422521667928 0.8984707962707137	0.111122
H	0.9210557770489693 0.5358722857017816 0.8973319928556055	0.107023
H	0.5367553311406954 0.5887011978297207 0.2721824142233308	0.095050
H	0.5393355383370885 0.6876899110389455 0.2629842827893759	0.125884
H	0.0791234856666222 0.3655721129438493 0.8985664615307467	0.111440
H	0.0789229567246585 0.4643409601165959 0.8972792695279932	0.106753
H	0.5892383637480040 0.4634879219626145 0.2714902783792825	0.101718
H	0.6877556087195280 0.4607550045310350 0.2645948258642373	0.127679
H	0.3655183998632903 0.9208592228045788 0.8984430945790792	0.111824
H	0.4642794478308523 0.9210368397425062 0.8974175605037347	0.107138
H	0.4118019097807385 0.5384714415715620 0.2751364318501266	0.094953
H	0.3126030227616345 0.5397540207930008 0.2642149195862229	0.125917
H	0.6346744108868611 0.0791600923870124 0.8984880229992470	0.110888
H	0.5359157515847647 0.0789269736777750 0.8972904736903300	0.106844
H	0.5385068460163441 0.4118660702778810 0.7248281193568560	0.095062
H	0.5397627937912497 0.3126504012352969 0.7357810841618485	0.125860
H	0.0791534739618110 0.6347022598749270 0.1014967708614483	0.110905
H	0.0789134964893072 0.5359333901116875 0.1026833488346650	0.106872
H	0.4634809233528356 0.5891804084435794 0.7285069382133835	0.101989
H	0.4607575253049270 0.6877116501214392 0.7354082510685450	0.127638
H	0.9208685328408922 0.3655103241172283 0.1015350692620718	0.111831
H	0.9210542653534572 0.4642810823999161 0.1025476154700308	0.107188
H	0.4112579551166331 0.4619700462869828 0.7267989678972024	0.100043
H	0.3124936549921995 0.4602661907150317 0.7350586101090085	0.126929
H	0.6346240694863645 0.9208616930080920 0.1015214257285434	0.111215
H	0.5358662432350635 0.9210438001678205 0.1026698060669812	0.107010
H	0.5887671226331936 0.5367474522279622 0.7278485217040349	0.094927
H	0.6877419654360361 0.5393382705744472 0.7370726135045265	0.125966
H	0.3655895172746177 0.0791360559215643 0.1014704187670960	0.111480
H	0.4643494585197451 0.0789444955909710 0.1027564597418383	0.106720
H	0.5791140374586145 0.8652161083833505 0.6014305840223895	0.111018
H	0.5789280063933123 0.9636584469914669 0.6027087104461016	0.106528
H	0.0372136692521195 0.0907529528279980 0.2275913056370968	0.094606
H	0.0393307302911984 0.1899748054946412 0.2370360761040147	0.125962
H	0.4208867461147563 0.1349887656149718 0.6015460724184087	0.111304
H	0.4210588849325593 0.0365640322417703 0.6025806142940831	0.106887
H	0.9616370543573697 0.9093598015498495 0.2264859841147992	0.099673
H	0.9603230540571549 0.8103023853202388 0.2351902447064179	0.127379
H	0.1350310871742496 0.5791493679529111 0.6015006073397868	0.110842
H	0.0366191575106018 0.5789117222120798 0.6026400700864617	0.106908
H	0.9098346094733570 0.0386845150691080 0.2244556239908779	0.094664
H	0.8104349861229903 0.0396732545226925 0.2356784689527773	0.125871
H	0.8651803201745766 0.4208649919657868 0.6015997139883171	0.111769
H	0.9636149148657205 0.4210297767566855 0.6024843043207231	0.107016
H	0.0910818011842209 0.9632693984109574 0.2278358968851690	0.101694
H	0.1898694239278795 0.9607725982115276 0.2352448843735040	0.127411
H	0.4208748927368456 0.8651585285401651 0.3984023651881819	0.111635
H	0.4210411162529399 0.9636038943370100 0.3975117259688182	0.106937
H	0.9632905785234095 0.0910496477956012 0.7721018870588355	0.101731
H	0.9607633474218527 0.1898424495898905 0.7647178300373538	0.127687
H	0.5791363453661954 0.1350473613079962 0.3985142429570606	0.110971
H	0.5789047427101560 0.0366228354261274 0.3973685772883912	0.106762
H	0.0387135176103561 0.9098981567347153 0.7757834591764937	0.095124
H	0.0396904613826862 0.8104902864726754 0.7643944502564305	0.126006
H	0.8652368169542412 0.5791260463174389 0.3985700337235555	0.111041
H	0.9636685190579782 0.5789310392922478 0.3972884929264457	0.106753
H	0.0907983453259004 0.0371766882095802 0.7722205219634267	0.094121
H	0.1900086839801161 0.0393299733980483 0.7629565514866350	0.125573
H	0.1349708495542788 0.4208704862448389 0.3984467306247387	0.111209
H	0.0365584946321762 0.4210444437246328 0.3974165608926589	0.106953
H	0.9093077750835542 0.9616417156771915 0.7735667736544075	0.099242
H	0.8102592188147736 0.9603365234711563 0.7648515160354366	0.126922
Fe	0.5001009021429033 0.5000972396052157 0.4999973175394269	0.567669
Fe	0.0002263426934967 0.0002388142160075 0.0000152745632555	0.571524
In	0.4986269644128656 0.4986308209221182 -0.0000146609332744	1.560563
In	-0.0014124279533889 -0.0014050228625096 0.5000192639081934	1.565794
F	0.5014986360699853 0.4988701855083359 0.2549778463540203	-0.521888
F	-0.0011346747541031 0.0011578155119320 0.7572686626617392	-0.527040
F	0.4988700364168468 0.5014864633333345 0.7449994802785989	-0.521889
F	0.0012009090847417 -0.0010830311932152 0.2427582810868979	-0.527189
F	0.4415174500978215 0.4415458219358713 -0.0000169225868720	-0.614879
F	0.9416247913876824 0.9416150632344306 0.4997671605617682	-0.613790
F	0.4758824722990300 0.5760306539618548 0.0057923393307574	-0.614889
F	0.9760706302627955 0.0759088540428736 0.4942948042368110	-0.613995
F	0.5760304485524000 0.4758876560316214 0.9941872591585023	-0.614946
F	0.0758845398798592 0.9760308340569585 0.5057272272009015	-0.613933
N	0.5001099919818157 0.4156041871522637 0.4998549193957554	-0.191934
N	0.0000118976080101 0.9134383772984814 0.0003179546419684	-0.193479
N	0.4998839509276882 0.5847746450520366 0.4993556872101639	-0.197405
N	0.0000696608380684 0.0869396733624962 0.0007485789029862	-0.198166
N	0.5848262718572883 0.4998834597321339 0.5006580496742944	-0.198034
N	0.0869803087771157 0.0000504931540421 -0.0008782523050819	-0.200172
N	0.4155630934033988 0.5000905885551364 0.5001244444657237	-0.191630
N	0.9133823626085911 0.0000125129437928 -0.0001832777806877	-0.195408
	  	
