#======================================================================

# CRYSTAL DATA

#----------------------------------------------------------------------

data_VESTA_phase_1


_pd_phase_name                         InFFIVE_13_Cd_i
_cell_length_a                         15.80959
_cell_length_b                         15.78687
_cell_length_c                         8.39427
_cell_angle_alpha                      91.03784
_cell_angle_beta                       86.36548
_cell_angle_gamma                      91.75468
_symmetry_space_group_name_H-M         P 1
_symmetry_Int_Tables_number            1

loop_
_symmetry_equiv_pos_as_xyz
   x, y, z

loop_
   _atom_site_label
   _atom_site_fract_x
   _atom_site_fract_y
   _atom_site_fract_z
   _atom_site_charge
C	0.5437880606578049 0.6963902280861062 0.8789896884699496	0.109488
C	0.5474854420576967 0.7845746614029391 0.8746715890529717	-0.147934
C	0.4594760130577490 0.3103536436488552 0.9004699884817980	0.103160
C	0.4576841666904541 0.2220792773794849 0.8983283791447509	-0.141170
C	0.8108566593576975 0.9700308586864617 0.3664677438030958	0.100110
C	0.7229732994547317 0.9683801440877149 0.3624020475305511	-0.138065
C	0.3164909339628396 0.5506658271397840 0.8693764521121935	0.102031
C	0.2285560595293508 0.5565333478219469 0.8720070549754509	-0.146607
C	0.1969509097869275 0.9889141286048767 0.3572538722755000	0.103420
C	0.2849941256973836 0.9876335371922313 0.3517733447667162	-0.143748
C	0.6970575970476025 0.4624592718061641 0.9052836061422779	0.104002
C	0.7850161750926868 0.4591485311889482 0.9006474893014734	-0.146389
C	0.4598023753154599 0.6977414962223859 0.1164866989054285	0.102204
C	0.4566199487238842 0.7857754119958215 0.1167564059838205	-0.141834
C	0.5465473292856047 0.3161119795657676 0.1144004225567697	0.098301
C	0.5518842712435288 0.2281740500717206 0.1140515516172589	-0.150382
C	0.1883544010617071 -0.0016999044359436 0.6347697489939436	0.097443
C	0.2760462223078252 -0.0005553526471940 0.6398793897527939	-0.134802
C	0.6935547498365244 0.5486664316388771 0.1321165698490772	0.117892
C	0.7817313430873877 0.5526845541316395 0.1313122071646204	-0.152023
C	0.8037135925208599 0.0206022787064155 0.6285835365168002	0.102485
C	0.7156958161479816 0.0210597180393505 0.6350826230286055	-0.145649
C	0.3058757646195818 0.4541296923732067 0.0758694880916256	0.106239
C	0.2178068721371193 0.4528902833269132 0.0808476987979555	-0.143269
C	0.9684209021784144 0.8062932627617241 0.6283140641556036	0.104376
C	0.9684684486592587 0.7184201366608742 0.6348759933661474	-0.139318
C	0.9937350524491371 0.1926879309217078 0.6484920802547447	0.096863
C	0.9929380599278661 0.2807906648371987 0.6518074729601732	-0.138731
C	0.0151521039892917 0.8046124346683228 0.3603563269674309	0.108599
C	0.0176277763469768 0.7166334580679180 0.3560014001133902	-0.141113
C	0.0064294482819559 0.1888548341909836 0.3704356737600157	0.105960
C	0.0075240094124529 0.2767061175259962 0.3631650830681772	-0.138959
C	0.0003904664040475 0.3235366709758393 0.5064952192985988	0.041087
C	-0.0007308517740384 0.4162632530243736 0.5038302548948362	0.259606
C	0.5026358566318030 0.8301702970103064 0.9951985378037926	0.059558
C	0.5039140715161025 0.9238249634330831 -0.0027407292186490	0.249262
C	0.9939727022590330 0.6726152042034189 0.4962525466731187	0.041103
C	0.9958087902294777 0.5796624504416603 0.4983304738912914	0.250703
C	0.5054605347833236 0.1801795513513292 0.0059158331054279	0.055554
C	0.5055151257638374 0.0866856408755426 0.0046959641958033	0.251761
C	0.6743592867161887 -0.0056875678397934 0.4991185320999321	0.040545
C	0.5813927085338636 0.9928441185586628 0.5000489551102090	0.247633
C	0.1782547459130932 0.5061345917206733 0.9784620617761303	0.055492
C	0.0848766235889822 0.5073958603909819 0.9863627627751066	0.252388
C	0.3253273448379635 0.9938805727570137 0.4957756307123845	0.041162
C	0.4179292666598670 0.9931499010250742 0.4973174130838432	0.259657
C	0.8283819551853364 0.5064485428950847 0.0142236755642756	0.060663
C	0.9219554539830893 0.5072151131588536 0.0070515644459342	0.249125
H	0.5741416680869357 0.6574475088344056 0.7845300738202970	0.099188
H	0.5836914765334228 0.8167460841283111 0.7776674615871398	0.121642
H	0.4271774843421894 0.3455636739907423 0.8122586518001217	0.105902
H	0.4213746678684855 0.1865136374470325 0.8120577094744313	0.124647
H	0.8507643734435860 0.9492271607327173 0.2625412649259978	0.100511
H	0.6932552064292840 0.9474297713637464 0.2544269842695415	0.122367
H	0.3583207994802334 0.5857360766069390 0.7831353272884991	0.104309
H	0.2002523325828490 0.5988281602382820 0.7904648060760183	0.124227
H	0.1625767319345831 0.9859749859482828 0.2484497335270940	0.104195
H	0.3207825902880698 0.9828958271999492 0.2370500305369805	0.115560
H	0.6603022880829396 0.4315481482421623 0.8138672543757175	0.105954
H	0.8197675807933792 0.4230224375958513 0.8075384563154679	0.117823
H	0.4291643668747318 0.6599944648699082 0.2128110389555010	0.107800
H	0.4216263012946605 0.8198099036661126 0.2124618090352682	0.118288
H	0.5779658970917442 0.3563565263747972 0.2018802393828553	0.105547
H	0.5903419076057993 0.1979405002337930 0.1987290118495164	0.124037
H	0.1486192187758123 -0.0012349647904643 0.7458729518996534	0.097601
H	0.3045656106760408 0.0029301265122634 0.7546045903912030	0.125497
H	0.6543806169672935 0.5798877928573277 0.2256004509430697	0.094506
H	0.8130937973714742 0.5900797951936184 0.2219718309011579	0.122857
H	0.8390808955821577 0.0394471488717989 0.7315327408225077	0.100407
H	0.6804355109233258 0.0414538603603309 0.7439020834514094	0.116138
H	0.3395507541354520 0.4176432594221220 0.1595487897563260	0.098082
H	0.1802913149678084 0.4135020582923901 0.1657405749756578	0.119184
H	0.9499172101050225 0.8450777391019293 0.7329592056014885	0.099175
H	0.9498055439652231 0.6865542126879340 0.7461176550902231	0.120278
H	0.9883760514571539 0.1572861274052328 0.7596744942994317	0.101218
H	0.9874281650781592 0.3148371097987763 0.7657702022149523	0.120594
H	0.0321589165206762 0.8418245551440585 0.2542915634279125	0.095002
H	0.0373651981459148 0.6833791877157174 0.2457568456854765	0.118990
H	0.0094944335866505 0.1499830006543345 0.2616876946868938	0.098933
H	0.0123230594038983 0.3074495882498205 0.2477474288165849	0.124416
N	0.9568953425604563 0.5399271733295212 0.6255593900582589	-0.133017
N	0.4292413970678698 0.0455956196712210 0.0052083027393477	-0.146311
N	0.5375838028992993 0.0295871343308990 0.6254287044343123	-0.135173
N	0.9593427045247772 0.4313076311296427 0.0035821012615235	-0.145655
N	0.0356404553960310 0.5391166225850439 0.3728833337910717	-0.134322
N	0.5809005274251136 0.0486110563415681 0.0037632732408429	-0.152377
N	0.9636503152847846 0.5831573986946378 0.0007983641176885	-0.151176
N	0.5446150592511871 0.9530493169280470 0.3770865709253127	-0.133105
N	0.0381602348493299 0.4558925951650836 0.3765126952784277	-0.131004
N	0.5801966085809793 0.9648279010518719 -0.0031994244923517	-0.149413
N	0.4613674691612596 0.9527678735634465 0.3761384742443405	-0.133048
N	0.0474525758002458 0.5832172001402942 0.9878159996780761	-0.151663
N	0.9579659527401535 0.4566775136568441 0.6276302343107010	-0.132490
N	0.4283980584905577 0.9618895062607756 0.0037345337277192	-0.143378
N	0.0430007218863264 0.4314708028999436 -0.0053432368753529	-0.146822
N	0.4544616135480372 0.0303297834026981 0.6233354960291062	-0.132064
N	0.0001775879681275 0.1479311908924772 0.5103431702924044	-0.232318
N	0.5021668464375063 0.6541340761501800 0.9990727373544498	-0.231104
N	0.9916076881284498 0.8484042467403583 0.4937833198913348	-0.226158
N	0.5018422242988699 0.3560663451301514 0.0084945461431734	-0.232172
N	0.8502316899666233 -0.0041428003523024 0.4971539797339508	-0.228248
N	0.3541322142051400 0.5011731560629741 0.9712199753306459	-0.227577
N	0.1497601446013560 0.9939446386930522 0.4963807405904667	-0.233173
N	0.6521809500876365 0.5057409968908451 0.0197665633167933	-0.231731
Cd	0.0004988686195085 0.9987017374280760 0.5024101734398339	0.814738
Cd	0.5023487077797999 0.5052018548309086 0.0031641393622274	0.818753
In	-0.0018245291018783 0.9960819930892835 0.0026779531516422	1.548522
In	0.4867052146913803 0.4925708174275318 0.5063445122738575	1.567900
F	0.0218813320903965 0.0050714895648343 0.2426907709110638	-0.561842
F	0.5384931860012110 0.4939453047084470 0.7355737647043222	-0.591311
F	-0.0258343540916767 0.9884139856446672 0.7622268380244660	-0.564128
F	0.4560201529564904 0.5149549478192138 0.2668209243202383	-0.591299
F	0.9077730551697478 0.9038640814505590 0.0506951618115619	-0.607829
F	0.4022688002661650 0.3964815116303095 0.5611779907782708	-0.627790
F	0.9710185073540931 0.1214664125067262 0.0029087586657197	-0.603929
F	0.4419797374136849 0.6096472499730907 0.5673246464238377	-0.626028
F	0.1211748716507564 0.9621626385756472 -0.0339901883759682	-0.598680
F	0.5997602134875141 0.4527113683899383 0.4056814350291449	-0.626336
	  	
