#======================================================================

# CRYSTAL DATA

#----------------------------------------------------------------------

data_VESTA_phase_1


_pd_phase_name                         InFFIVE_2_Ni
_cell_length_a                         13.86966
_cell_length_b                         13.86963
_cell_length_c                         8.23007
_cell_angle_alpha                      90.09420
_cell_angle_beta                       89.90778
_cell_angle_gamma                      89.97655
_symmetry_space_group_name_H-M         P 1
_symmetry_Int_Tables_number            1

loop_
_symmetry_equiv_pos_as_xyz
   x, y, z

loop_
   _atom_site_label
   _atom_site_fract_x
   _atom_site_fract_y
   _atom_site_fract_z
   _atom_site_charge
C	0.5305347797200087 0.7017530001485679 0.1310082564012339	0.103400
C	0.5313200062334917 0.8018128423592279 0.1367724257947274	-0.164014
C	0.4686898620343869 0.2988456388830916 0.1312758223763806	0.098565
C	0.4683534757498207 0.1987411974280352 0.1364086448724574	-0.165381
C	0.2987510141478447 0.5308529217657397 0.1302776328152571	0.101687
C	0.1987046870715789 0.5315240448167049 0.1363453304090719	-0.166101
C	0.7015917910561156 0.4692965905305322 0.1306877913205139	0.097197
C	0.8016841858943864 0.4686975029509546 0.1360016857236520	-0.164344
C	0.4692959381708917 0.7015915541657853 0.8693037304422244	0.097078
C	0.4686975887071824 0.8016833990981497 0.8639946571508050	-0.164282
C	0.5308524116967999 0.2987481421221129 0.8697310126720874	0.101591
C	0.5315246958525046 0.1987020536254631 0.8636573944506243	-0.166013
C	0.7017506806600847 0.5305352136995579 0.8689851046136539	0.103565
C	0.8018100467641068 0.5313195041345089 0.8632254001404480	-0.163891
C	0.2988442885989021 0.4686880499033296 0.8687294700439750	0.098632
C	0.1987401646872157 0.4683517390990276 0.8635910245235987	-0.165408
C	0.5000219260338652 0.1461854176655787 -0.0000281761243450	0.171239
C	0.5001424617513605 0.0441626836220793 -0.0000851288795077	-0.096388
C	0.5000091644740914 0.8542131318329250 0.0004242992864853	0.166858
C	0.5000803678538385 0.9562582031064109 0.0003706166330577	-0.089804
C	0.8542118308520215 0.5000095650557320 -0.0004277523962818	0.166863
C	0.9562572602176290 0.5000808417390290 -0.0003706292906481	-0.089940
C	0.1461862605796278 0.5000226596019652 0.0000296245726859	0.171247
C	0.0441630896979751 0.5001424137141410 0.0000843274525657	-0.096269
H	0.5533489302971770 0.6594373138303362 0.2353358057881763	0.091972
H	0.5559280236655131 0.8387541175575743 0.2457295774289255	0.127294
H	0.4435450092326527 0.3410866539170807 0.2351595568578549	0.095583
H	0.4433695729456009 0.1616423843571091 0.2449696542406086	0.128169
H	0.3415809241986157 0.5556193386454965 0.2332025085548521	0.090176
H	0.1615850292661212 0.5563393922230097 0.2451890253542347	0.127169
H	0.6597777634119198 0.4463394771807022 0.2359854157533584	0.097245
H	0.8384535984501448 0.4440100283107543 0.2449343205683219	0.128520
H	0.4463382223362317 0.6597779105096022 0.7640039122950474	0.097314
H	0.4440085831095358 0.8384507439477824 0.7550628321259404	0.128496
H	0.5556172022220544 0.3415780518674005 0.7668076346545338	0.090191
H	0.5563383257896914 0.1615842044958761 0.7548118279135905	0.127158
H	0.6594350096761187 0.5533478085738193 0.7646545408362483	0.091862
H	0.8387527314721548 0.5559274385736609 0.7542718811515401	0.127248
H	0.3410880841582161 0.4435425927258242 0.7648479043509910	0.095562
H	0.1616390728227046 0.4433688024816198 0.7550274371170552	0.128148
Ni	0.5003087043266162 0.5003094841950821 -0.0000040588631854	0.756907
In	0.4994614104404496 0.4994650371266556 0.5000056692235906	1.559350
F	0.4994120533315488 0.5013230937967685 0.7566053523249178	-0.562770
F	0.5013387401837139 0.4994374015673911 0.2433900289483036	-0.562918
F	0.4600833491090442 0.6402607271240702 0.4959746384343547	-0.604991
F	0.3961598222443740 0.3960938854709951 0.4999552080644715	-0.606995
F	0.6402717845278316 0.4601453863239081 0.5040891919222371	-0.605030
N	0.4998304921875155 0.3484759311983608 0.0005073177392479	-0.230020
N	0.4999390769428950 0.6520253148545183 0.0002277767861117	-0.235806
N	0.6520252832081176 0.4999395438897687 -0.0002358116444040	-0.235889
N	0.3484752879376923 0.4998296551861663 -0.0005016229316328	-0.230032
	  	
