#======================================================================

# CRYSTAL DATA

#----------------------------------------------------------------------

data_VESTA_phase_1


_pd_phase_name                         InFFIVE_15_Cu_i
_cell_length_a                         29.63578
_cell_length_b                         28.62201
_cell_length_c                         8.60470
_cell_angle_alpha                      90.00063
_cell_angle_beta                       90.00163
_cell_angle_gamma                      90.00414
_symmetry_space_group_name_H-M         P 1
_symmetry_Int_Tables_number            1

loop_
_symmetry_equiv_pos_as_xyz
   x, y, z

loop_
   _atom_site_label
   _atom_site_fract_x
   _atom_site_fract_y
   _atom_site_fract_z
   _atom_site_charge
C	0.9359688662044676 0.1044647503716244 0.8852081521666488	0.096031
C	0.9031875198275011 0.0699370696005097 0.8902945634090171	-0.162244
C	0.7703910839687738 0.9365655045107878 0.8916930523525711	-0.116274
C	0.7360174928488371 0.9037915933151572 0.8915492207614327	-0.117103
C	0.5665075686544280 0.7391805155143886 0.8851799909927131	0.093126
C	0.6003031223228211 0.7727586993157117 0.8899503423005666	-0.163536
C	0.4358777609921873 0.6037201681579945 0.8852139518207751	0.101035
C	0.4030570096073926 0.5691692946744772 0.8903270814211474	-0.161638
C	0.2698692559752275 0.4360413457359189 0.8917480384495506	-0.114771
C	0.2354621386622884 0.4033204124397807 0.8915463064380637	-0.114635
C	0.0663709820728931 0.2388288470358095 0.8850102195220808	0.097920
C	0.1001358069196204 0.2723079365970670 0.8901120084050547	-0.164846
C	0.0652623416309140 0.8951963184729670 0.3851940425078022	0.101561
C	0.0976068363292056 0.9302276648150500 0.3903449169850749	-0.161192
C	0.2299870993809378 0.0642147806326095 0.3917506512614017	-0.114435
C	0.2644446390904483 0.0968828898990784 0.3915308449779172	-0.113954
C	0.4346691398108934 0.2601210663112052 0.3850125879206376	0.099847
C	0.4005922074152168 0.2269789904619312 0.3901128829364777	-0.165601
C	0.5646709603105389 0.3948739741211772 0.3852142114061374	0.093881
C	0.5969568151728240 0.4298908997221932 0.3903016384611957	-0.159308
C	0.7294701168214071 0.5635457325957460 0.3916741919550236	-0.116517
C	0.7639038531644724 0.5962574818761510 0.3915417735124844	-0.115288
C	0.9341718528144007 0.7600486832457430 0.3851631706066625	0.093454
C	0.8999663175377769 0.7269255932230679 0.3899325475526095	-0.163904
C	0.0650235546375726 0.1053285085114240 0.6148950243468438	0.100836
C	0.0973381337218760 0.0703386482860555 0.6096119886470256	-0.163401
C	0.2295289469408949 0.9363929890989515 0.6083179799883414	-0.113716
C	0.2640292203162215 0.9037769544725005 0.6084721660593292	-0.115590
C	0.4334220154855563 0.7391700012991168 0.6147744603535820	0.092960
C	0.3996491223777942 0.7727613104302971 0.6100392862176822	-0.162118
C	0.5637408237610519 0.6040478174664531 0.6147464590025835	0.099884
C	0.5965560322900839 0.5694942344375590 0.6096359475820090	-0.162287
C	0.7297382298405591 0.4364123527864945 0.6082510558789102	-0.113652
C	0.7640338570404633 0.4035567460868583 0.6085065795778790	-0.115334
C	0.9342203299634414 0.2400614506566444 0.6149216746863247	0.094113
C	0.9000271133893978 0.2730979269716891 0.6100312864632457	-0.164910
C	0.9357657302249740 0.8960752940236103 0.1146465152600429	0.096680
C	0.9028887912237012 0.9305886245058463 0.1097321841017124	-0.161151
C	0.7699258720620368 0.0639490609325082 0.1082787440527151	-0.115834
C	0.7356259811579395 0.0968127755398591 0.1084999333323729	-0.114312
C	0.5652763129152253 0.2600170640157023 0.1150421518331926	0.098861
C	0.5994251687493535 0.2269547436887057 0.1099354275013178	-0.166220
C	0.4348411960353659 0.3952232374805025 0.1147925418972092	0.096799
C	0.4025735159394573 0.4302819341760590 0.1097175564126309	-0.160578
C	0.2700377354955202 0.5639474818918764 0.1083217948278017	-0.117040
C	0.2355170632129681 0.5965534586932533 0.1084605636257630	-0.112931
C	0.0664204330755948 0.7613274465326904 0.1148901563929008	0.098685
C	0.1001826421050480 0.7277823650588082 0.1099430076390976	-0.165121
C	0.0652612112061543 0.8951946614127678 0.1148062608182599	0.101617
C	0.0976052678300305 0.9302253091106931 0.1096570372877317	-0.161089
C	0.2299865567613232 0.0642142080434117 0.1082485882170011	-0.114436
C	0.2644429423992062 0.0968821796732427 0.1084688795546361	-0.114033
C	0.4346676031441569 0.2601189205041896 0.1150032745939357	0.099742
C	0.4005912488957125 0.2269778013010408 0.1098980319510484	-0.165698
C	0.5646699555678860 0.3948729855827388 0.1147849214473770	0.093850
C	0.5969548793381797 0.4298882621388694 0.1096893089197055	-0.159351
C	0.7294697829087862 0.5635456469070220 0.1083252426997126	-0.116592
C	0.7639021291477152 0.5962562673228127 0.1084619604491678	-0.115123
C	0.9341706102283175 0.7600469633912278 0.1148316988763087	0.093491
C	0.8999658292737134 0.7269248568457387 0.1100625528671052	-0.163912
C	0.9359663078619802 0.1044630792118927 0.6147902017379644	0.095962
C	0.9031867947028982 0.0699361893730222 0.6097065181432243	-0.162175
C	0.7703895415188076 0.9365643798255971 0.6083063751133174	-0.116390
C	0.7360153719502169 0.9037909376984397 0.6084467533113042	-0.116973
C	0.5665060943223927 0.7391791647082288 0.6148233530006061	0.093080
C	0.6003011659332472 0.7727573277573565 0.6100544629513410	-0.163700
C	0.4358760426855466 0.6037185280696316 0.6147838006881826	0.101111
C	0.4030553164491979 0.5691669030154131 0.6096697798773214	-0.161686
C	0.2698674331533656 0.4360399392681896 0.6082541644087792	-0.114717
C	0.2354607688886419 0.4033191979781856 0.6084513664819202	-0.114566
C	0.0663711765696605 0.2388255554250563 0.6149909082876681	0.097955
C	0.1001359105383810 0.2723042592461908 0.6098895204711222	-0.164842
C	0.9357664639858726 0.8960743986754999 0.3853560851995031	0.096631
C	0.9028898152801663 0.9305881498602565 0.3902706730331053	-0.161061
C	0.7699262094724668 0.0639482079388482 0.3917294620132577	-0.115871
C	0.7356262152738715 0.0968117548138247 0.3915060175699407	-0.114293
C	0.5652759172062332 0.2600161271619028 0.3849597129143950	0.098811
C	0.5994246585562146 0.2269532911346914 0.3900689602701123	-0.166169
C	0.4348426615307960 0.3952231459397889 0.3851990139897575	0.096725
C	0.4025748859145017 0.4302805123302817 0.3902762083572850	-0.160669
C	0.2700384224966169 0.5639469008703394 0.3916810747714313	-0.117102
C	0.2355181144036662 0.5965529192324630 0.3915391593169976	-0.112892
C	0.0664204963811082 0.7613261930597028 0.3851070957097313	0.098668
C	0.1001828529470140 0.7277822688340234 0.3900577484368392	-0.165169
C	0.0650229770023584 0.1053255866518277 0.8850954850001588	0.100892
C	0.0973367855467120 0.0703359881806820 0.8903802641250568	-0.163273
C	0.2295299313830854 0.9363918392427939 0.8916771882721219	-0.113467
C	0.2640300885492842 0.9037758402378269 0.8915223394366411	-0.115767
C	0.4334228000914098 0.7391694192919053 0.8852120702368952	0.093010
C	0.3996506472791201 0.7727597878747012 0.8899503048207410	-0.162240
C	0.5637407524478653 0.6040467242126788 0.8852484998773902	0.099891
C	0.5965555778176409 0.5694942173271788 0.8903651377982799	-0.162345
C	0.7297381174193251 0.4364107685895851 0.8917481363129156	-0.113666
C	0.7640340858368450 0.4035555067380176 0.8914964162070150	-0.115318
C	0.9342208581535142 0.2400594665897700 0.8850861178075623	0.094299
C	0.9000276063974075 0.2730954707385598 0.8899802694924878	-0.165064
C	0.6527800718607730 0.8245020750881861 0.7500022576966077	-0.101651
C	0.8858061660388687 0.0520338327287517 0.7500000307079879	0.165982
C	0.8225257906545712 0.9875262747264240 0.7500009673833860	-0.099556
C	0.6180935249106241 0.7905657979012335 0.7500025700095949	0.168364
C	0.7880025364317353 0.9535981831896460 0.7499992721813484	0.130696
C	0.7181415940248321 0.8868896967863058 0.7499967967052434	0.138834
C	0.6830191680868879 0.8534973061727087 0.7499978828767666	-0.099418
C	0.8520364921075315 0.0172723028219699 0.7499990680545082	-0.102657
C	0.1523788388238132 0.3240156016562400 0.7500002134700802	-0.106459
C	0.3856107449726203 0.5513010330440329 0.7499984415018275	0.164772
C	0.3221250816157460 0.4869016620653959 0.7500004971303971	-0.091171
C	0.1178283505392923 0.2900790898608703 0.7499997014854668	0.171090
C	0.2875024169447770 0.4530123349451856 0.7499990981671434	0.129179
C	0.2175906528809006 0.3864162520888848 0.7499991795591919	0.137408
C	0.1825336533853344 0.3530652380481996 0.7499995445980074	-0.094372
C	0.3517193641799000 0.5165907679577391 0.7499999810077829	-0.107886
C	0.3476071865212803 0.1760880676253867 0.2500033269566749	-0.108910
C	0.1145468065164783 0.9486092329553574 0.2499998268201883	0.164908
C	0.1775684648698577 0.0135257926990212 0.2499980190667962	-0.093853
C	0.3824714946766050 0.2096859976176875 0.2500062380866880	0.174492
C	0.2122792260774660 0.0473254288267944 0.2499982859117392	0.128364
C	0.2822989383675457 0.1137944584604065 0.2500016553507652	0.137832
C	0.3173666675838202 0.1471356424987137 0.2500022116055896	-0.092036
C	0.1480223413455306 0.9837682667377162 0.2500003509513291	-0.110170
C	0.8468805774299775 0.6758327145991696 0.2499994982497541	-0.100933
C	0.6138774825935635 0.4482583918298569 0.2499947373578114	0.164731
C	0.6769576856105713 0.5129814703211251 0.2499945881625570	-0.098396
C	0.8817828276274223 0.7095449271759994 0.2499953620531492	0.167281
C	0.7117109798161423 0.5466645354564666 0.2499971077240379	0.128843
C	0.7817021310262009 0.6132410391439926 0.2500032211767701	0.138830
C	0.8167101012606391 0.6467554027055932 0.2500017620710047	-0.099070
C	0.6473421096789741 0.4833384921153498 0.2499944427153301	-0.108065
C	0.3472207671111422 0.8245131241527618 0.7499961566873847	-0.099508
C	0.1142460573495649 0.0519909908052643 0.7499956792953280	0.167597
C	0.1771372676508812 0.9870651066197099 0.7499969957573149	-0.094782
C	0.3818736532724475 0.7905435730091974 0.7499943024036493	0.166767
C	0.2118052226791642 0.9532961844942572 0.7499971195744315	0.126909
C	0.2819289257929200 0.8869217518271197 0.7499974585110545	0.140722
C	0.3170416277884150 0.8535493715153626 0.7499985494879048	-0.100161
C	0.1476612041583913 0.0168586419340905 0.7499987279200787	-0.113091
C	0.8469899210402506 0.3240374058411133 0.7500058348497746	-0.099965
C	0.6139979798899582 0.5516221362805553 0.7500014333507743	0.167383
C	0.6775170311131651 0.4872896967043167 0.7500008089372823	-0.092632
C	0.8818737349701025 0.2904172141578906 0.7500063021085246	0.168060
C	0.7121199987262737 0.4534020097972739 0.7500013100227174	0.130126
C	0.7818270225042742 0.3865370828109714 0.7500010090743693	0.137860
C	0.8167851238531153 0.3530261331649170 0.7500015721035935	-0.100689
C	0.6478846120588968 0.5169282171049746 0.7500025879542433	-0.107845
C	0.6525012410815451 0.1761174702587082 0.2500032067281353	-0.111576
C	0.8854634171537108 0.9484842558657667 0.2500007994169848	0.163436
C	0.8220189241728886 0.0129291478578047 0.2500039170561159	-0.096620
C	0.6175846280683440 0.2096570769192880 0.2500022370631188	0.175235
C	0.7874952764560016 0.0469149514316144 0.2500036068244889	0.129014
C	0.7178077143025722 0.1137873713036626 0.2500020882160326	0.135063
C	0.6827771955227343 0.1472012295602808 0.2500024537322610	-0.090617
C	0.8515925988378563 0.9832283391915405 0.2500008572458212	-0.101369
C	0.1524638769568602 0.6759500147696045 0.2500004351343844	-0.105158
C	0.3856548622929710 0.4486458353345831 0.2499959870023416	0.161583
C	0.3225884362058724 0.5134026655766671 0.2500004831332263	-0.102222
C	0.1179021059882467 0.7099737296187382 0.2500013090104348	0.170652
C	0.2878060159842395 0.5470783508909177 0.2500014637514706	0.128374
C	0.2176419956018608 0.6134359830274044 0.2499999763067514	0.136896
C	0.1825683539477324 0.6468417561516421 0.2500001970044348	-0.094446
C	0.3521874537602766 0.4837399947254046 0.2499966754706300	-0.103398
H	0.9503089496170907 0.1184992500457979 0.9919622353275136	0.099321
H	0.8915372587452162 0.0570718372836959 0.0024189079074094	0.124580
H	0.7842094279226102 0.9495351444401541 0.0008929254959003	0.105870
H	0.7224235325124896 0.8907501769847649 0.0008872536905845	0.116045
H	0.5528427030840564 0.7245353644299134 0.9921053474948590	0.098965
H	0.6127356673802571 0.7845925364229241 0.0022872734737698	0.128089
H	0.4507349337607460 0.6181238544073289 0.9906014511747099	0.097828
H	0.3912554893666703 0.5561250820130473 0.0021404509284879	0.123105
H	0.2836580625841348 0.4489535658530631 0.0010892032883692	0.108179
H	0.2217905663087285 0.3902160025571828 0.0006284666979923	0.114335
H	0.0523038574763605 0.2236860453986482 0.9904879459157152	0.097502
H	0.1128320190089075 0.2843269988032591 0.0018560832286154	0.127403
H	0.0516671120788291 0.8794723823560439 0.4905293809176005	0.098556
H	0.1097266614028562 0.9429585438800049 0.5021481617840293	0.122390
H	0.2162313545388407 0.0512885731533951 0.5011091973808962	0.107442
H	0.2781599653167267 0.1099340486289911 0.5006120075688715	0.114972
H	0.4499538477056032 0.2740005650151984 0.4903997175715306	0.096656
H	0.3882697419848652 0.2145420222717815 0.5018430431966107	0.127103
H	0.5515417695079040 0.3795998175297577 0.4919269875347347	0.099871
H	0.6089215747331942 0.4424475863282870 0.5024427452920538	0.123393
H	0.7157190525118018 0.5505189062309610 0.5008981516669605	0.105105
H	0.7775798974269539 0.6091962909715388 0.5008851906267343	0.116245
H	0.9490073244541890 0.7734395779713656 0.4920640716840251	0.098908
H	0.8878483289998153 0.7147359695345633 0.5022664127548850	0.128682
H	0.0514149410827419 0.1210080597945218 0.5095860573105883	0.097916
H	0.1094470877335691 0.0575697182736132 0.4979302430013874	0.122769
H	0.2157290164423868 0.9493254018548506 0.4990577782673858	0.105262
H	0.2776871628879006 0.8907579574428947 0.4992376116802538	0.116236
H	0.4471118412807830 0.7245550758941892 0.5078414018305334	0.099753
H	0.3872173790622200 0.7846308029202894 0.4977425424351596	0.127720
H	0.5489057436455748 0.6184751783807635 0.5093901705990466	0.098400
H	0.6083701965775908 0.5564681231057799 0.4978287347795624	0.122917
H	0.7159909827595972 0.4493665480405307 0.4988729974672344	0.106951
H	0.7776822027749494 0.3904679822598494 0.4993853640404250	0.115074
H	0.9490346809648976 0.2266659003640816 0.5080014651256203	0.098516
H	0.8878542288768515 0.2852994081584799 0.4978712970985159	0.128777
H	0.9501351406176833 0.8820783242239818 0.0078431173048215	0.099377
H	0.8912284488684464 0.9434206274738621 0.9975144311084928	0.125145
H	0.7836762214228704 0.0509929825036690 0.9989514509384885	0.107899
H	0.7220068172778729 0.1099185956261473 0.9993399299957292	0.113848
H	0.5500039976767054 0.2738416525685302 0.0095669757776216	0.096292
H	0.6117767085882669 0.2145807783275274 0.9982008143711822	0.127449
H	0.4479540601187131 0.3799725003512711 0.0079990642343437	0.099870
H	0.3906395726232528 0.4428711861982263 0.9975910931342756	0.123387
H	0.2838384876163474 0.5509969493671787 0.9990872439475367	0.106944
H	0.2218441198980282 0.6095430876408113 0.9991937293735733	0.114299
H	0.0523706506460097 0.7764936453504167 0.0094135907772134	0.097599
H	0.1128433658097922 0.7157635322850185 0.9980780243165889	0.127642
H	0.0516660602288274 0.8794682107824964 0.0094669438693502	0.098514
H	0.1097242722242934 0.9429554291534639 0.9978539195803109	0.122361
H	0.2162288361757748 0.0512864761047697 0.9988875005282959	0.107430
H	0.2781571452925025 0.1099318439592952 0.9993900079311464	0.114982
H	0.4499523478315773 0.2739970134375882 0.0096149223536253	0.096696
H	0.3882673036850287 0.2145394701039212 0.9981673664736014	0.127123
H	0.5515403540562830 0.3795963027327175 0.0080687683201978	0.099884
H	0.6089174017338351 0.4424432730923766 0.9975458003509431	0.123428
H	0.7157171343819817 0.5505179706002717 0.9990982856820164	0.105087
H	0.7775785776759275 0.6091951809347487 0.9991197844852084	0.116201
H	0.9490059520226157 0.7734379911066072 0.0079306587554926	0.098860
H	0.8878459579588431 0.7147332622717284 0.9977276863268113	0.128682
H	0.9503066348232345 0.1184983421149834 0.5080388016385711	0.099330
H	0.8915342941801374 0.0570695422671302 0.4975786969159662	0.124546
H	0.7842070460549125 0.9495335938319616 0.4991068586258067	0.105886
H	0.7224207733217083 0.8907485976754760 0.4991068926066346	0.116007
H	0.5528403662331924 0.7245331263072454 0.5078952638875861	0.098969
H	0.6127330521302758 0.7845900325311701 0.4977180524389963	0.128138
H	0.4507310119784409 0.6181219922629717 0.5093950881606332	0.097833
H	0.3912528500689821 0.5561215204403869 0.4978578710945617	0.123076
H	0.2836554421793931 0.4489512796941987 0.4989109272830426	0.108178
H	0.2217877545681533 0.3902136136631608 0.4993685601017794	0.114283
H	0.0523041764512642 0.2236794059221802 0.5095127102383321	0.097470
H	0.1128322946991887 0.2843201901561618 0.4981439771458379	0.127387
H	0.9501361231358260 0.8820775386775885 0.4921589544325364	0.099400
H	0.8912294853601669 0.9434199500361723 0.5024867233336746	0.125151
H	0.7836765531380266 0.0509915583085699 0.5010568478638205	0.107915
H	0.7220072620186959 0.1099173139982202 0.5006641970022373	0.113844
H	0.5500035423763719 0.2738407149115452 0.4904330452723980	0.096300
H	0.6117760688173828 0.2145789059379469 0.5018035391172556	0.127423
H	0.4479563365695072 0.3799705648587643 0.4919904814697919	0.099892
H	0.3906414686467353 0.4428693342919865 0.5024000890314072	0.123436
H	0.2838394034613969 0.5509959131761970 0.5009165294641807	0.106952
H	0.2218452489509782 0.6095421166597373 0.5008057480924017	0.114316
H	0.0523704169221219 0.7764923200177553 0.4905828501230157	0.097604
H	0.1128441825258638 0.7157625411305829 0.5019236229591225	0.127652
H	0.0514131589319026 0.1210031107282091 0.9904052655042277	0.097853
H	0.1094457202853934 0.0575654708537957 0.0020627298638362	0.122702
H	0.2157305367184722 0.9493234339000355 0.0009375825423327	0.105184
H	0.2776887463540081 0.8907560945210776 0.0007563211233110	0.116249
H	0.4471136394262959 0.7245533640800392 0.9921463042728020	0.099786
H	0.3872191683534126 0.7846291207423668 0.0022478434022326	0.127731
H	0.5489041809587207 0.6184738642866139 0.9906056613806121	0.098353
H	0.6083695442824711 0.5564677435707085 0.0021731779454061	0.122954
H	0.7159913405568608 0.4493645613365422 0.0011279656081402	0.106947
H	0.7776825561937727 0.3904659582385007 0.0006171884465010	0.115065
H	0.9490346595548270 0.2266633477224317 0.9920066655360531	0.098409
H	0.8878548910837852 0.2852956989693626 0.0021413867403409	0.128774
Cu	0.4998565882072348 0.6728167550790789 0.7499954742910997	0.715949
Cu	-0.0001618468391076 0.1729376750221880 0.7499921857254017	0.715610
Cu	0.4998604425180662 0.3273854361088199 0.2500045164241316	0.714474
Cu	0.9998539134708875 0.8274919323384423 0.2499978836154177	0.714756
In	0.4999000512887276 0.6733797144640751 0.2499961643913858	1.543078
In	-0.0004638519443240 0.1729968139159715 0.2499910820015845	1.540138
In	0.4999624333196016 0.3276679400137875 0.7500374653076587	1.541671
In	-0.0004656806098187 0.8271869463521958 0.7500116422573969	1.542638
F	0.4998194662826021 0.6021872542212845 0.2499399002772463	-0.620603
F	0.9643136106162729 0.2341065415683769 0.2499941265978202	-0.611190
F	0.9659793044806104 0.1109383189215874 0.2499866121515052	-0.607906
F	0.5001292700825850 0.2565915017028672 0.7500081732592681	-0.623596
F	0.9645369679038371 0.7657687157724133 0.7499933270399218	-0.612682
F	0.9655368256787338 0.8892026233577361 0.7500215982347842	-0.609571
F	0.5597287745881500 0.7087901831160106 0.2500034468535214	-0.612635
F	0.0681884447278566 0.1739476420787165 0.2499947076597016	-0.622013
F	0.4404231843454122 0.3632657639392963 0.7499865017277703	-0.610508
F	0.4404863366160758 0.7095795124600552 0.2500098999005504	-0.612813
F	0.5595594967271835 0.3631165482567082 0.7500307909252547	-0.609574
F	0.0683491812347303 0.8264882865107707 0.7500637640662225	-0.623651
F	0.4996874555639706 0.6729643268822556 0.4919992643183079	-0.582438
F	-0.0000217902948826 0.1729991302937689 0.4929488449922258	-0.582899
F	0.4996947253648734 0.3273293071155359 0.9930485031201425	-0.582616
F	-0.0000278595962211 0.8274202372112472 0.9921819609615238	-0.582767
F	0.4996924708775475 0.6729697239985782 0.0079884212220780	-0.582431
F	-0.0000168729826645 0.1730012534489498 0.0070227687514941	-0.582773
F	0.4996989813924195 0.3273292669338742 0.5069836579022849	-0.582767
F	-0.0000202114262745 0.8274256135857996 0.5078359199961014	-0.582752
N	0.5497161673642688 0.7228346021193860 0.7500005111111959	-0.223275
N	0.9518523326050907 0.1216998322609852 0.7499986519720835	-0.222536
N	0.0495019316242758 0.2225710462145188 0.7499998258554494	-0.217663
N	0.4516437745462853 0.6210040812600053 0.7499980835041796	-0.217136
N	0.4512061654000987 0.2767285806914002 0.2500065514249030	-0.217808
N	0.0492348830429366 0.8781697861733001 0.2499986570411094	-0.216993
N	0.9508161943257794 0.7765692843197608 0.2499976389128275	-0.222285
N	0.5486423988970296 0.3777915279727215 0.2499976241291684	-0.218784
N	0.4501769468615844 0.7228075977238505 0.7499952998743041	-0.223041
N	0.0489717020645585 0.1223711672811502 0.7499961041774112	-0.215255
N	0.9509086117551514 0.2235444801495526 0.7500016254947155	-0.222482
N	0.5479717110723384 0.6212856718313705 0.7499975221296840	-0.217578
N	0.5486607595364600 0.2765821588265125 0.2500003008539566	-0.217814
N	0.9516461347116756 0.8788999143135956 0.2499994290211511	-0.221413
N	0.0496137772115919 0.7776031717695694 0.2499969663932849	-0.218374
N	0.4508444762263852 0.3780889148204636 0.2499959054334534	-0.219443
	  	
