#======================================================================

# CRYSTAL DATA

#----------------------------------------------------------------------

data_VESTA_phase_1


_pd_phase_name                         InFFIVE_2_Co_i
_cell_length_a                         13.96250
_cell_length_b                         13.96285
_cell_length_c                         8.33937
_cell_angle_alpha                      90.00143
_cell_angle_beta                       89.99751
_cell_angle_gamma                      89.81940
_symmetry_space_group_name_H-M         P 1
_symmetry_Int_Tables_number            1

loop_
_symmetry_equiv_pos_as_xyz
   x, y, z

loop_
   _atom_site_label
   _atom_site_fract_x
   _atom_site_fract_y
   _atom_site_fract_z
   _atom_site_charge
C	0.0002098198186057 0.3035441892903646 0.3553760095149909	-0.156515
C	-0.0005025565872771 0.2042423466658363 0.3610356498902073	0.094083
C	0.5003013901024496 0.8035475466228219 0.8553663756223012	-0.157029
C	0.5006934527522938 0.7042638003487862 0.8610343077067805	0.095123
C	0.0000228062225107 0.6970315816171107 0.3553578893488668	-0.161551
C	0.0002163550810439 0.7963244849115574 0.3612353845863265	0.102448
C	0.4999403382496137 0.1970565514786452 0.8553788163112608	-0.162091
C	0.4990479579614787 0.2963283205438388 0.8612690190990105	0.102402
C	0.6970387329265701 0.0000227234356141 0.3553623962985437	-0.161591
C	0.7963332367145249 0.0002204370925831 0.3612401629636607	0.102425
C	0.1970516986433726 0.4999370151171684 0.8553499528580416	-0.162025
C	0.2963289349027169 0.4990464332964362 0.8612282795477597	0.102509
C	0.3035478029757982 0.0002059501379630 0.3553764150153049	-0.156819
C	0.2042426894824919 -0.0005115311385198 0.3610312583516589	0.094208
C	0.8035372213035338 0.5002942048609872 0.8553938422245897	-0.157251
C	0.7042577909406735 0.5006835209942399 0.8610787487264172	0.095341
C	0.0002099459556974 0.3035528648520381 0.6446274870793059	-0.156724
C	-0.0005022464415440 0.2042487397627993 0.6389815493912749	0.094289
C	0.5002966140957668 0.8035363013279744 0.1446036908918462	-0.157338
C	0.5006865261784196 0.7042601477357628 0.1389177837004579	0.095378
C	0.0000223262863165 0.6970376614135526 0.6446355981943547	-0.161677
C	0.0002155672094459 0.7963291951916335 0.6387506592622830	0.102475
C	0.4999386985711617 0.1970448729665871 0.1446548582616960	-0.162178
C	0.4990442766587981 0.2963227077992869 0.1387803771086792	0.102861
C	0.3035405631111815 0.0002061511384253 0.6446302702942042	-0.156702
C	0.2042367572079269 -0.0005102834459507 0.6389786969938226	0.094233
C	0.8035425040474834 0.5002993063433701 0.1446306523057170	-0.157171
C	0.7042585320883910 0.5006884722155970 0.1389591480517798	0.095092
C	0.6970336950296494 0.0000231874404619 0.6446426775688699	-0.161543
C	0.7963279928541244 0.0002207655769229 0.6387558331719263	0.102421
C	0.1970576387247175 0.4999395800109458 0.1446244854472659	-0.162156
C	0.2963315270138281 0.4990510372749902 0.1387370409029628	0.102471
C	0.0005108733002052 0.4565991112697055 0.5000007987260893	-0.090158
C	0.0004943651030623 0.3555100797827720 0.5000059402929703	0.158388
C	0.5004076745087109 0.9565963358744769 0.0000032139010061	-0.089604
C	0.5004217461353535 0.8555110343755971 -0.0000292076152435	0.158731
C	0.0004364266270541 0.5439419161423662 0.4999970938817181	-0.098589
C	0.0003337042902706 0.6450166931956642 0.4999939300070370	0.162479
C	0.5005392717309433 0.0439437501631113 -0.0000001163119268	-0.099164
C	0.5003977969482283 0.1450289112911704 0.0000351607361345	0.162909
C	0.5439422951933215 0.0004353084348583 0.5000055848504424	-0.098850
C	0.6450199374017047 0.0003344757755207 0.5000047259744307	0.162643
C	0.0439467708379063 0.5005371303623639 0.0000047263162375	-0.099503
C	0.1450305193000456 0.5003948911670070 -0.0000244843731227	0.163013
C	0.4565973455423516 0.0005117623549771 0.5000015875115896	-0.090017
C	0.3555053101327653 0.0004913836309752 0.5000000753630776	0.158539
C	0.9565944814929997 0.5004059719379518 -0.0000015261211108	-0.089259
C	0.8555102326218459 0.5004195593100070 0.0000252595123112	0.158656
H	-0.0001139301409438 0.3401167348161118 0.2400105146598058	0.120935
H	-0.0021543602190747 0.1631021050702491 0.2502625387091288	0.098727
H	0.4994857553157428 0.8401195811174094 0.7400066035421167	0.121207
H	0.4992538082662027 0.6630990014555678 0.7502698665815611	0.098378
H	-0.0007038606054771 0.6601165391373081 0.2403055374142029	0.120859
H	-0.0013409597027181 0.8384721584374482 0.2515771055850745	0.093381
H	0.4997088909410368 0.1601236560450138 0.7403185627658529	0.120928
H	0.4972184642696382 0.3384594485739174 0.7516129455092757	0.093519
H	0.6601285925586553 -0.0007081547258496 0.2403136163986295	0.120951
H	0.8384817152495445 -0.0013366288779122 0.2515786962632062	0.093331
H	0.1601286074914425 0.4996959420236716 0.7403090532571647	0.120903
H	0.3384620952370633 0.4972155858549483 0.7515446354146585	0.093456
H	0.3401234823105011 -0.0001125159996554 0.2400077298759327	0.121024
H	0.1631050151631384 -0.0021665121258268 0.2502633992368280	0.098700
H	0.8401185125591361 0.4994744027589902 0.7400174679775989	0.121368
H	0.6630932373049389 0.4992379329095552 0.7503364713947450	0.098362
H	-0.0001150394427139 0.3401289165325651 0.7599984899708777	0.121014
H	-0.0021533900294120 0.1631132973194424 0.7497543177708069	0.098621
H	0.4994752894014136 0.8401162010924109 0.2599823636618297	0.121370
H	0.4992499644662077 0.6630923758868751 0.2496639361815790	0.098337
H	-0.0007055327367353 0.6601257329755267 0.7596835459709463	0.121001
H	-0.0013429984752922 0.8384791248359379 0.7484140214420701	0.093313
H	0.4997011420753458 0.1601209808366480 0.2596977932477391	0.120911
H	0.4972120367570493 0.3384545699647937 0.2484612184422762	0.093368
H	0.3401129147572799 -0.0001149491010543 0.7599961178286414	0.121002
H	0.1630975674563472 -0.0021652854835440 0.7497519605570535	0.098580
H	0.8401106983442341 0.4994851947842720 0.2599896455606954	0.121308
H	0.6630899043075474 0.4992447570265072 0.2497226960090379	0.098439
H	0.6601199112268115 -0.0007079351092357 0.7596945317065794	0.120883
H	0.8384746557393088 -0.0013351232365911 0.7484119543486361	0.093365
H	0.1601251310850956 0.4997049060432961 0.2596858158470173	0.120938
H	0.3384610994085005 0.4972220460167174 0.2483907506919706	0.093500
Co	0.0007239259949506 0.0007265811522538 0.4999949344997027	0.595717
Co	0.5006270561703685 0.5006284893168479 -0.0000041557890704	0.596509
In	-0.0002523059641425 -0.0002435470611405 0.0000017175566098	1.532532
In	0.4997653063502961 0.4997620351063295 0.4999998685569681	1.532169
N	-0.0009169835340567 0.1546923606481964 0.5000037635228991	-0.187608
N	0.5012786510463841 0.6546730024524728 -0.0000117973102133	-0.189074
N	0.0009507131668706 0.8460145845392016 0.4999965408930521	-0.188132
N	0.4987932587857727 0.3460281584208569 0.0000144471301851	-0.188090
N	0.8460196732064131 0.0009586447219236 0.4999956025009997	-0.188099
N	0.3460345343139785 0.4987953970097551 -0.0000119548006818	-0.187967
N	0.1546849026341822 -0.0009281106924960 0.5000074989860716	-0.187541
N	0.6546667619755918 0.5012741602528118 0.0000100019386636	-0.189010
F	0.0000458155813015 0.0000487378480183 0.7441595661542642	-0.555111
F	0.5001623716000734 0.5001589131103806 0.2441232509050899	-0.555154
F	0.0000479728918714 0.0000516964275172 0.2558311449910198	-0.555189
F	0.5001490221083837 0.5001591642671882 0.7558575852585372	-0.555067
F	0.6393199291676259 0.4613927466648894 0.4999967265948873	-0.589173
F	0.4614864736574837 0.6393248303833838 0.4999812961902550	-0.589126
F	0.3977867032143350 0.3978597123999313 0.4999740061369882	-0.602111
F	0.8978258182634363 0.8978809154774866 -0.0000015137421768	-0.602462
F	0.9616241860749181 0.1393876572177712 -0.0000049933284235	-0.588816
F	0.1393704487056254 0.9616131485325626 0.0000045549870516	-0.588792
	  	
