#======================================================================

# CRYSTAL DATA

#----------------------------------------------------------------------

data_VESTA_phase_1


_pd_phase_name                         InFFIVE_2_Zn_i
_cell_length_a                         14.01340
_cell_length_b                         14.01343
_cell_length_c                         8.37896
_cell_angle_alpha                      89.99998
_cell_angle_beta                       90.00035
_cell_angle_gamma                      89.84113
_symmetry_space_group_name_H-M         P 1
_symmetry_Int_Tables_number            1

loop_
_symmetry_equiv_pos_as_xyz
   x, y, z

loop_
   _atom_site_label
   _atom_site_fract_x
   _atom_site_fract_y
   _atom_site_fract_z
   _atom_site_charge
C	0.0002102789659504 0.3043080373681400 0.3559293428229274	-0.158520
C	-0.0000340608230232 0.2052731176917880 0.3614410416696549	0.099765
C	0.5002107655857484 0.8043055701877290 0.8559371300849393	-0.158620
C	0.4999710186279325 0.7052486319421727 0.8614552076071803	0.099556
C	-0.0000319751475325 0.6962530319327158 0.3559083105885356	-0.162019
C	-0.0004420968136251 0.7952518857611128 0.3616870322882255	0.105116
C	0.4999654749143167 0.1962535453689648 0.8559209236519975	-0.161967
C	0.4995547601771072 0.2952522930585246 0.8616937937140384	0.105104
C	0.6962534721438535 -0.0000324513837725 0.3559080036118912	-0.161998
C	0.7952524141563484 -0.0004425164033975 0.3616875251703990	0.105089
C	0.1962544582164651 0.4999646068845783 0.8559205575656557	-0.161945
C	0.2952535114915079 0.4995533021570284 0.8616935801644749	0.105042
C	0.3043084740159862 0.0002104935383556 0.3559297493028935	-0.158490
C	0.2052735574991393 -0.0000340416653357 0.3614409848399967	0.099864
C	0.8043060512227416 0.5002098752865907 0.8559404144849031	-0.158717
C	0.7052490378306066 0.4999696157157188 0.8614585867237194	0.099591
C	0.0002106986957149 0.3043082913553680 0.6440705961495599	-0.158535
C	-0.0000337026905540 0.2052733399933940 0.6385595490972128	0.099778
C	0.5002107770530526 0.8043051199771231 0.1440608828974902	-0.158693
C	0.4999711150099114 0.7052481340254348 0.1385421659292490	0.099628
C	-0.0000315737270079 0.6962526657550205 0.6440910078108443	-0.161981
C	-0.0004416179910206 0.7952516099147184 0.6383127095963785	0.105112
C	0.4999652198992977 0.1962538898475919 0.1440794505489583	-0.161991
C	0.4995540564613540 0.2952526811197959 0.1383062719502047	0.105141
C	0.3043094991432892 0.0002100574180678 0.6440709680047582	-0.158575
C	0.2052744000716969 -0.0000344417795499 0.6385592184639353	0.099883
C	0.8043068604472466 0.5002096646436056 0.1440640663467337	-0.158735
C	0.7052497701349834 0.4999693366240164 0.1385449901755416	0.099572
C	0.6962536896133417 -0.0000327907522035 0.6440905744146294	-0.162040
C	0.7952526861201098 -0.0004428579661404 0.6383130169043432	0.105096
C	0.1962555116023520 0.4999645901394202 0.1440794433812989	-0.162027
C	0.2952545385086390 0.4995529951152217 0.1383072896871002	0.105130
C	0.0004335743872214 0.4567493199295971 0.4999994833626090	-0.089196
C	0.0004168241729896 0.3558892420649850 0.5000000020842128	0.161449
C	0.5004319153771204 0.9567489405131976 -0.0000003081042350	-0.089282
C	0.5004178240907885 0.8558762390562200 -0.0000008915400879	0.161806
C	0.0004721502735838 0.5437575557393016 0.4999994741251623	-0.099016
C	0.0003264032286685 0.6445956911195170 0.4999996107190664	0.163776
C	0.5004700212412216 0.0437447641506607 0.0000005786055764	-0.099138
C	0.5003240718682593 0.1445926576787598 0.0000003355260308	0.163844
C	0.5437578564683593 0.0004715315375868 0.4999988055524742	-0.099139
C	0.6445964809250339 0.0003254581684718 0.4999989802304021	0.163786
C	0.0437463190470265 0.5004701293014221 0.0000006110914080	-0.099410
C	0.1445939759778483 0.5003235895185867 -0.0000000348500092	0.163867
C	0.4567510434511071 0.0004323266261873 0.4999999626219110	-0.089015
C	0.3558900175601982 0.0004163681353935 0.5000004797138411	0.161398
C	0.9567498713462055 0.5004330665107848 0.0000020392159406	-0.088949
C	0.8558775832358961 0.5004178938797922 0.0000021684754026	0.161792
H	-0.0003188002137752 0.3408259118440799 0.2411305568523106	0.120247
H	-0.0015599529670413 0.1640732422841431 0.2512548287285210	0.093415
H	0.4996834635543478 0.8408254799486627 0.7411587174992651	0.120213
H	0.4984452657274448 0.6640874515905043 0.7512400944498816	0.093355
H	-0.0004762932731453 0.6593656662097847 0.2414220764826051	0.119832
H	-0.0021105237982017 0.8374276766126868 0.2525766781345672	0.089389
H	0.4995204698221231 0.1593573418699881 0.7414489690112440	0.119744
H	0.4978827372530762 0.3374156058128531 0.7525650714055369	0.089271
H	0.6593661629710108 -0.0004766169397599 0.2414213300212411	0.119819
H	0.8374281052016931 -0.0021106604551235 0.2525774381774205	0.089396
H	0.1593582399821921 0.4995192484904176 0.7414479870945072	0.119749
H	0.3374150750211088 0.4978794813998285 0.7525633082707236	0.089280
H	0.3408257617631640 -0.0003188911626066 0.2411309727735567	0.120206
H	0.1640734887578165 -0.0015600757437933 0.2512545366309495	0.093397
H	0.8408252498198234 0.4996825802232868 0.7411617925905128	0.120229
H	0.6640873815468840 0.4984435929799634 0.7512438471267485	0.093327
H	-0.0003181554805354 0.3408264771620478 0.7588694456790855	0.120243
H	-0.0015595603477705 0.1640740172279791 0.7487461920366707	0.093410
H	0.4996833968217089 0.8408244838870190 0.2588395133541158	0.120234
H	0.4984453650416595 0.6640864480916836 0.2487568905237604	0.093336
H	-0.0004757142871558 0.6593650347696712 0.7585771829216045	0.119805
H	-0.0021097331235405 0.8374268424789608 0.7474233410248829	0.089409
H	0.4995202360537392 0.1593579347515996 0.2585515823747010	0.119745
H	0.4978807537686954 0.3374164939046693 0.2474346957790529	0.089266
H	0.3408275335522750 -0.0003196081315288 0.7588700242899248	0.120235
H	0.1640752392687137 -0.0015606314923062 0.7487454979432642	0.093403
H	0.8408267697906422 0.4996823751227210 0.2588425804581260	0.120229
H	0.6640882332960270 0.4984432182769855 0.2487593367215524	0.093359
H	0.6593665316097370 -0.0004772051667802 0.7585768177796307	0.119835
H	0.8374281476820346 -0.0021112718557687 0.7474238745525565	0.089400
H	0.1593599440992649 0.4995193213178141 0.2585517986998938	0.119759
H	0.3374169995780582 0.4978784305446800 0.2474378721029464	0.089252
Zn	0.0009605165703948 0.0009598285846067 0.4999989568522969	0.736654
Zn	0.5009444096631287 0.5009451855961640 0.0000002329879152	0.736926
In	0.0001527037166468 0.0001533289126532 0.0000004996170714	1.545735
In	0.5001345603914983 0.5001405723914069 0.4999975724980532	1.543880
N	0.0000122773870329 0.1562352279865401 0.5000002739467462	-0.223267
N	0.5000146373447960 0.6562185914661445 -0.0000015379096654	-0.222945
N	-0.0002860158882020 0.8444428782717818 0.4999998961413609	-0.220238
N	0.4997080480393019 0.3444476412532563 -0.0000002299680831	-0.220271
N	0.8444437594229567 -0.0002868111822656 0.5000004350302849	-0.220218
N	0.3444490553728665 0.4997061648278993 0.0000004532131171	-0.220131
N	0.1562358823278290 0.0000115289685685 0.4999998924728551	-0.223400
N	0.6562191275619179 0.5000133520318828 0.0000017110035468	-0.222878
F	0.0002573070777745 0.0002635624357914 0.7471789192867211	-0.553350
F	0.5002024289181511 0.5001961445669715 0.2468774913124205	-0.553021
F	0.0002647573982336 0.0002648228397996 0.2528233992659663	-0.553385
F	0.5002012367132173 0.5001929800112070 0.7531213240019232	-0.553018
F	0.6397194490755969 0.4617205775207629 0.5000071739599403	-0.592051
F	0.4617197071457552 0.6397260737905208 0.4999960602612813	-0.592062
F	0.3981116038939551 0.3981869371599336 0.4999864401238875	-0.605474
F	0.8982521329953508 0.8982529336397727 -0.0000011157959088	-0.605982
F	0.9617201563367078 0.1395880770533139 -0.0000005147604594	-0.592738
F	0.1395874339755698 0.9617189122166736 0.0000022074880184	-0.592741
	  	
