#======================================================================

# CRYSTAL DATA

#----------------------------------------------------------------------

data_VESTA_phase_1


_pd_phase_name                         InFFIVE_5_Cu_i
_cell_length_a                         20.06833
_cell_length_b                         20.06865
_cell_length_c                         16.02601
_cell_angle_alpha                      89.99973
_cell_angle_beta                       89.99989
_cell_angle_gamma                      89.96880
_symmetry_space_group_name_H-M         P 1
_symmetry_Int_Tables_number            1

loop_
_symmetry_equiv_pos_as_xyz
   x, y, z

loop_
   _atom_site_label
   _atom_site_fract_x
   _atom_site_fract_y
   _atom_site_fract_z
   _atom_site_charge
F	0.2904978048508876 0.1576143256690258 0.3518078087066902	-0.614921
F	0.1514502933049613 0.2643238111110202 0.3510313348191036	-0.624767
F	0.3141488998702933 0.3290787102026949 0.3514020306308780	-0.620563
F	0.6709284518654146 0.6858455023170894 0.1485642651709363	-0.620541
F	0.7357048223598032 0.8485591690319674 0.1489596247719290	-0.624803
F	0.8423978240710490 0.7094822513864365 0.1481760390765669	-0.614861
F	0.6514324718756451 0.7643193919001896 0.6489840672957257	-0.624699
F	0.7904956394309600 0.6576105305428908 0.6482210977714969	-0.614864
F	0.8141713111468655 0.8290508917991251 0.6485933995233449	-0.620558
F	0.1709587111507697 0.1858070463504203 0.8514246864908901	-0.620611
F	0.3423977820399940 0.2095127944002698 0.8518089257529405	-0.614912
F	0.2356804160824638 0.3485481700669234 0.8510045954408609	-0.624765
F	0.2493203650404487 0.2494406761851483 0.4826128865531077	-0.598176
F	0.2496769112912517 0.2491041005530260 0.2197864118133415	-0.597591
F	0.7505617046231244 0.7506799419034279 0.0173875674744619	-0.598103
F	0.7508948614087443 0.7503188157239584 0.2801978345745457	-0.597567
F	0.7493222900313941 0.7494389370126892 0.5173962236307134	-0.598045
F	0.7496829339498260 0.7491084147285839 0.7802113009740075	-0.597599
F	0.2505585276218175 0.2506991600103228 0.9826125482657154	-0.598144
F	0.2508859138886096 0.2503143765940570 0.7197925701632287	-0.597644
N	0.3589964390290822 0.2474965979012107 0.6002679606006498	-0.241585
N	0.1411534912885273 0.2525633723864735 0.6018300866933619	-0.239295
N	0.2526049333280442 0.3588364248393303 0.6009429835295661	-0.240702
N	0.2473810388553007 0.1410397096009179 0.6022491538601357	-0.241537
N	0.6411576509087632 0.7473954636526805 0.8990549563484795	-0.240571
N	0.8589670210447035 0.7526202629111542 0.8977509815738502	-0.241422
N	0.7474375659662916 0.8588482852341979 0.8981685125369536	-0.239338
N	0.7525052085845945 0.6410016054305203 0.8997311683764804	-0.241799
N	0.6411615109774551 0.7525612177366462 0.3981694676740717	-0.239387
N	0.8589897171464569 0.7474947040595947 0.3997326189790843	-0.241565
N	0.7473788357404710 0.6410409933482495 0.3977496738818059	-0.241179
N	0.7526041196469871 0.8588356536660965 0.3990567469310420	-0.240460
N	0.3589618604817334 0.2526191445009315 0.1022487562644009	-0.241329
N	0.1411632007544574 0.2473960783822773 0.1009441910388663	-0.240669
N	0.2525060513466769 0.1409957525035384 0.1002667014416361	-0.241598
N	0.2474374084501864 0.3588535789964011 0.1018315028608657	-0.239332
C	0.3919253358905103 0.2182862555352911 0.6635090857261778	0.104073
C	0.4611134123340231 0.2169365648850675 0.6677178982799039	-0.178832
C	0.4988863643429214 0.2470378150857246 0.6044154959578322	0.104704
C	0.4636812991653640 0.2771879249384420 0.5386734866454148	-0.183590
C	0.3943832894233145 0.2763725569135033 0.5388751416774509	0.101191
C	0.5723326927199026 0.2478215008840977 0.6078303514520873	0.054224
C	0.6081689155118677 0.1923354258610412 0.6371366548164422	-0.130238
C	0.6774360266308670 0.1931148198885597 0.6397937410189901	-0.125130
C	0.7133223296358929 0.2498062184216747 0.6147544223722397	0.068127
C	0.6774317738942410 0.3056545225064153 0.5869106439629699	-0.120819
C	0.6082201889698451 0.3044745045372014 0.5827020579389256	-0.126068
C	0.1080537291691991 0.2817470226213818 0.6648414855885671	0.105310
C	0.0389076045379189 0.2830369735319396 0.6690906340076760	-0.181428
C	0.0012229450598748 0.2527504567297118 0.6057471776595795	0.108696
C	0.0365288078249509 0.2228604328887397 0.5400119746940514	-0.178862
C	0.1058019159396766 0.2239283492800856 0.5403504597867239	0.112461
C	0.9277512989336921 0.2521394128403586 0.6085532820154351	0.054988
C	0.8918409938698892 0.3077265323878087 0.6374351922388017	-0.129610
C	0.8225623379759919 0.3069636935865151 0.6397789611784425	-0.125250
C	0.7867134036816695 0.2502665999681499 0.6147380251873976	0.068041
C	0.8226551767084028 0.1944366750295871 0.5869096979771102	-0.118964
C	0.8918818435089544 0.1955816388195898 0.5830368154630406	-0.126317
C	0.2817044002477424 0.3918878887654436 0.6640233748728797	0.112831
C	0.2831222682098052 0.4610546939180906 0.6681740942857214	-0.177123
C	0.2530420823604247 0.4987853971423221 0.6047746444857560	0.107216
C	0.2229485067282828 0.4635125071089618 0.5390862276719230	-0.182660
C	0.2238504654212905 0.3942553006457089 0.5395898488451626	0.107266
C	0.2522453393151068 0.5722502365304587 0.6080009430870017	0.054050
C	0.3077273612927960 0.6080912756259796 0.6371981103016963	-0.129837
C	0.3069126745258037 0.6773618803739623 0.6397637870927886	-0.124848
C	0.2502164226048285 0.7132872149293223 0.6147026597839644	0.068254
C	0.1943937289887871 0.6774110506733331 0.5868868165057634	-0.119766
C	0.1955926794248390 0.6081887076470582 0.5827940445709830	-0.125605
C	0.2181329024992399 0.1079825049656626 0.6653660454227516	0.101580
C	0.2168765607745494 0.0387871664975132 0.6693091234071890	-0.181495
C	0.2471678956906500 0.0011419873618477 0.6058900365762990	0.103855
C	0.2770805705401647 0.0364858582834230 0.5402147925162583	-0.179792
C	0.2760803348862615 0.1057887809961500 0.5405682102794005	0.102379
C	0.2478013977951136 0.9276787712076519 0.6085954313784883	0.055507
C	0.1922172958846195 0.8918314180876529 0.6374740749383473	-0.130581
C	0.1930137658198980 0.8225543918988333 0.6397623517857598	-0.124650
C	0.2497330151550673 0.7866776747130537 0.6146908836089493	0.066962
C	0.3055665612097442 0.8225695110148795 0.5868808146443643	-0.118913
C	0.3043786507497784 0.8917965356174770 0.5830327755432192	-0.126771
C	0.6081080728682556 0.7182967511677807 0.8359756938216705	0.112835
C	0.5389415533037821 0.7168782164406288 0.8318259490271377	-0.177184
C	0.5012104667447648 0.7469569404206581 0.8952246839760086	0.107143
C	0.5364839119400230 0.7770505709080832 0.9609114885416212	-0.182598
C	0.6057415710249626 0.7761482359068702 0.9604079803555260	0.107208
C	0.4277478426371288 0.7477536035123727 0.8919994115284695	0.054108
C	0.3919065172414885 0.6922751334592562 0.8628033666257874	-0.129799
C	0.3226374899460561 0.6930898857392642 0.8602369696059421	-0.124923
C	0.2867124405652254 0.7497833660004009 0.8852976853876402	0.068269
C	0.3225890671855514 0.8056022204372559 0.9131137499176766	-0.119738
C	0.3918093878953641 0.8044024156210398 0.9172046597454421	-0.125726
C	0.8920215514536903 0.7818663008830209 0.8346345029515861	0.101508
C	0.9612170023138992 0.7831228566199265 0.8306911464058575	-0.181321
C	0.9988619570893602 0.7528320621510951 0.8941092637079650	0.103837
C	0.9635176609601600 0.7229201803801941 0.9597836982023018	-0.179801
C	0.8942147318149064 0.7239229282776342 0.9594319413057597	0.102332
C	0.0723231376578106 0.7521987362219317 0.8914049805238423	0.055541
C	0.1081709349465129 0.8077790977889144 0.8625278170401854	-0.130497
C	0.1774461640569465 0.8069829173220826 0.8602393457419777	-0.124834
C	0.2133231725858379 0.7502667500826969 0.8853093073677327	0.066943
C	0.1774312878483142 0.6944361081990462 0.9131178488164600	-0.118810
C	0.1082059576829256 0.6956247772299895 0.9169656273532314	-0.126955
C	0.7182541533714577 0.8919444838722539 0.8351568441005062	0.105198
C	0.7169628050646696 0.9610930053152040 0.8309063819909059	-0.181430
C	0.7472496556603646 0.9987788253662029 0.8942534775420731	0.108850
C	0.7771398982314150 0.9634705443607435 0.9599912049322649	-0.179064
C	0.7760714235251399 0.8941942791396622 0.9596513382022119	0.112550
C	0.7478604284573777 0.0722506972774948 0.8914486249277395	0.054893
C	0.6922734007603381 0.1081604647821896 0.8625664427705985	-0.129684
C	0.6930361697408914 0.1774377757734494 0.8602231239621881	-0.125208
C	0.7497329670594164 0.2132873232993795 0.8852638739381739	0.067945
C	0.8055625018263123 0.1773448547787962 0.9130910694279102	-0.118804
C	0.8044180240381639 0.1081198779641346 0.9169648190416897	-0.126358
C	0.7817144462683515 0.6080763276487564 0.8364893984080425	0.104176
C	0.7830641654080582 0.5388871274882686 0.8322798546944246	-0.178962
C	0.7529630137109097 0.5011121004409135 0.8955847540212991	0.104703
C	0.7228123577617881 0.5363201322784702 0.9613277951671735	-0.183496
C	0.7236295159356219 0.6056200706466170 0.9611251445828756	0.101140
C	0.7521789054797879 0.4276652030260130 0.8921711014501592	0.054353
C	0.8076652412430849 0.3918295839980375 0.8628639234435984	-0.130245
C	0.8068858246213895 0.3225635226825542 0.8602081630739528	-0.125163
C	0.7501938890948668 0.2866774310974146 0.8852473689303337	0.068118
C	0.6943454498693482 0.3225684115015660 0.9130904602241670	-0.120953
C	0.6955250620890535 0.3917789034006391 0.9172998440144352	-0.126114
C	0.6080660576059488 0.7817484803026465 0.3351509503823532	0.105196
C	0.5389134285781223 0.7830406299823062 0.3308996179262541	-0.181265
C	0.5012297994460498 0.7527510207293044 0.3942546586965762	0.108611
C	0.5365342782166534 0.7228569795408196 0.4600003879381102	-0.178901
C	0.6058146832056519 0.7239244553027367 0.4596584380639979	0.112501
C	0.4277520625580550 0.7521406378213400 0.3914510184172024	0.054972
C	0.3918416334432839 0.8077316534705103 0.3625648584913561	-0.129600
C	0.3225598569535244 0.8069696793732061 0.3602198291304146	-0.125139
C	0.2867132262420178 0.7502675432080803 0.3852631168877585	0.068034
C	0.3226529773176481 0.6944322559956998 0.4130932622435251	-0.118851
C	0.3918831050159851 0.6955784587286977 0.4169670744120342	-0.126399
C	0.8919142199861010 0.7182822754441156 0.3364836546522444	0.104084
C	0.9611081652029327 0.7169320895502627 0.3322710458937401	-0.178808
C	0.9988800769873875 0.7470376344719866 0.3955847864277119	0.104455
C	0.9636755878633246 0.7771906398231134 0.4613386212689982	-0.183344
C	0.8943708824754353 0.7763743684125227 0.4611349661830826	0.101007
C	0.0723319124596488 0.7478206524155457 0.3921718616347871	0.054338
C	0.1081671640086369 0.6923304867406994 0.3628627892186868	-0.130203
C	0.1774378315354589 0.6931094182589997 0.3602048290332306	-0.125304
C	0.2133212102567933 0.7498060718215332 0.3852464537399595	0.068264
C	0.1774330228219749 0.8056589032159059 0.4130923170970799	-0.120907
C	0.1082179021828241 0.8044781245983788 0.4173023126179644	-0.126039
C	0.7181284754297527 0.6079884594226428 0.3346227180504982	0.101462
C	0.7168710703321289 0.5387883828379849 0.3306795985715576	-0.181191
C	0.7471668637955111 0.5011471072251878 0.3941091404415966	0.103731
C	0.7770837114815554 0.5364869144587606 0.4597935663688990	-0.179839
C	0.7760806330743599 0.6057942977557342 0.4594406178999182	0.102334
C	0.7478006640953551 0.4276801718703271 0.3914062427541352	0.055615
C	0.6922137362746991 0.3918316582619880 0.3625256574681318	-0.130600
C	0.6930093122600364 0.3225521451360834 0.3602355617862554	-0.124650
C	0.7497330050789360 0.2866775084671842 0.3853086593252736	0.066871
C	0.8055708254632705 0.3225673864268563 0.4131213884735208	-0.118774
C	0.8043808999063374 0.3917966894038815 0.4169690822135075	-0.126942
C	0.7817065359846828 0.8918837364293697 0.3359680921992807	0.112727
C	0.7831243323668688 0.9610538538468271 0.3318161611994834	-0.177066
C	0.7530411672818793 0.9987806809930146 0.3952252315364227	0.107193
C	0.7229434957152325 0.9635105423909881 0.4609222125064057	-0.182668
C	0.7238454276200783 0.8942502477300165 0.4604174236282256	0.107259
C	0.7522455644388368 0.0722488451100944 0.3919994714153812	0.054048
C	0.8077299374749864 0.1080910146462651 0.3628008871281314	-0.129585
C	0.8069164995921081 0.1773633902350319 0.3602333397422456	-0.124888
C	0.7502167915071251 0.2132865676340868 0.3852965886586045	0.068192
C	0.6943909433264988 0.1774121023696148 0.4131147040418522	-0.119743
C	0.6955913073553116 0.1081879526555337 0.4172073626333266	-0.125578
C	0.3920196019190016 0.2818644265691968 0.1653612443267063	0.101661
C	0.4612128945617738 0.2831211150690701 0.1693041124284442	-0.181452
C	0.4988608641038630 0.2528314566931167 0.1058922597679221	0.103774
C	0.4635148761997057 0.2229219646716462 0.0402219837926266	-0.179733
C	0.3942140165308742 0.2239251729749344 0.0405717096604712	0.102347
C	0.5723209466789025 0.2521985232635132 0.1085944077782303	0.055660
C	0.6081698249167007 0.3077771620517686 0.1374701222020794	-0.130382
C	0.6774442170827087 0.3069804623189673 0.1397575339292077	-0.124788
C	0.7133230845088293 0.2502665231438083 0.1146877491432785	0.067024
C	0.6774291620175371 0.1944379289945768 0.0868813747031932	-0.118821
C	0.6082047357411635 0.1956261903265202 0.0830346420126754	-0.126920
C	0.1081085127938508 0.2182991274192184 0.1640199959305474	0.112928
C	0.0389441287812683 0.2168803247798795 0.1681696473427251	-0.177130
C	0.0012108991734129 0.2469577062155656 0.1047756029590786	0.107077
C	0.0364871435762823 0.2770495538255226 0.0390932661441416	-0.182423
C	0.1057423042024128 0.2761473250153135 0.0395952616036856	0.107272
C	0.9277493600026560 0.2477540544996477 0.1079993631925190	0.053961
C	0.8919071079040349 0.1922771775900448 0.1371940319376115	-0.129679
C	0.8226391955496709 0.1930921053975546 0.1397597109904221	-0.124928
C	0.7867123013060900 0.2497835348798160 0.1146997814384472	0.068197
C	0.8225909314048084 0.3056003748902094 0.0868853728555822	-0.119853
C	0.8918102238499516 0.3044014691181204 0.0827946037019301	-0.125514
C	0.2817115583813972 0.1080689979818078 0.1635061258816842	0.104062
C	0.2830615198884711 0.0388832691690048 0.1677166579556565	-0.178912
C	0.2529623997587702 0.0011076391067699 0.1044165935589241	0.104755
C	0.2228144247703031 0.0363166547324101 0.0386774977291529	-0.183701
C	0.2236317526757012 0.1056132377448102 0.0388775298921180	0.101318
C	0.2521788388308587 0.9276649334744865 0.1078301235190337	0.054348
C	0.3076621691766349 0.8918292172066766 0.1371345892058474	-0.130360
C	0.3068822091311709 0.8225653217404012 0.1397908057633407	-0.124994
C	0.2501947738815662 0.7866769748884360 0.1147524211153342	0.068032
C	0.1943495918010225 0.8225701501335766 0.0869116958752700	-0.120772
C	0.1955286503039984 0.8917788343030744 0.0827027536881815	-0.126086
C	0.2182567078511246 0.3919513201077605 0.1648397173653136	0.105403
C	0.2169648462633198 0.4610959057527578 0.1690888907292472	-0.181516
C	0.2472498190113274 0.4987826545134285 0.1057472081814739	0.108902
C	0.2771375692757462 0.4634735860924927 0.0400136023116060	-0.178926
C	0.2760693486595824 0.3942021996510832 0.0403535852270179	0.112353
C	0.2478603220804749 0.5722509535337461 0.1085522096605504	0.055020
C	0.1922762870072090 0.6081611605151224 0.1374331063041354	-0.129695
C	0.1930395852761325 0.6774366246758498 0.1397761162478717	-0.125100
C	0.2497332787242344 0.7132878351253059 0.1147361353294750	0.067965
C	0.3055596503557667 0.6773438018008683 0.0869104054031517	-0.118884
C	0.3044159509195063 0.6081202253320849 0.0830368005419519	-0.126428
H	0.3618747447585313 0.1972269579194249 0.7137251769115208	0.100214
H	0.4851829438548222 0.1945223343336477 0.7218323705516214	0.116450
H	0.4900905399941251 0.3004371510599790 0.4868413317349706	0.114726
H	0.3658558909870708 0.2992915227861374 0.4883483608025136	0.096722
H	0.5810962299688720 0.1478093385907015 0.6566561350108790	0.099731
H	0.7042434755207077 0.1495419420775338 0.6626981420906862	0.101462
H	0.7042485985908493 0.3497838155433021 0.5658792285566226	0.102543
H	0.5812982932510271 0.3483422237001759 0.5607132748974532	0.102704
H	0.1386550290518560 0.3042735966108146 0.7135217268879728	0.092109
H	0.0144483051877627 0.3059974637515334 0.7225665213042965	0.113683
H	0.0102588084968945 0.2004440973130462 0.4875398393211348	0.115599
H	0.1343191379518483 0.2026168488581789 0.4890139768732641	0.095358
H	0.9187966094400500 0.3523695349412710 0.6567594173416325	0.099087
H	0.7957129463114698 0.3505409037129497 0.6625804218759400	0.102297
H	0.7958889395112426 0.1502924371369843 0.5658174479719563	0.102143
H	0.9188192259031109 0.1517334119008137 0.5610082165479152	0.103364
H	0.3028430539379549 0.3615441815940105 0.7137670008026569	0.094911
H	0.3053854843630445 0.4853044267427563 0.7222204541362370	0.115773
H	0.1999002184202254 0.4899488993951853 0.4871268578655453	0.113576
H	0.2010251322225423 0.3654559751844906 0.4894168000380765	0.092231
H	0.3523156787852232 0.5810428289219103 0.6566719729081889	0.098715
H	0.3504710683947453 0.7041594974940194 0.6626323467598848	0.102323
H	0.1502493745751687 0.7042509693310122 0.5658376021662336	0.101928
H	0.1517025052618446 0.5813288577584671 0.5608651411588716	0.102609
H	0.1957419496224944 0.1382471765671535 0.7146436524594389	0.097003
H	0.1937524842116242 0.0143990126870458 0.7227361347211390	0.114062
H	0.2996968783970442 0.0103356778379964 0.4877358731968424	0.116248
H	0.2974452286403683 0.1340679194400569 0.4888792896656505	0.100495
H	0.1476033895513087 0.9188684311279439 0.6568653289324505	0.099861
H	0.1494575745677440 0.7957312530027916 0.6625900602738551	0.101292
H	0.3497423530576756 0.7957858917659294 0.5658150756531465	0.102313
H	0.3481832747383193 0.9187452023113423 0.5609769942385463	0.103532
H	0.6384524960760486 0.6971591180719486 0.7862328058835714	0.094893
H	0.5146922319882905 0.6946155840879377 0.7777781498793637	0.115777
H	0.5100483914953430 0.8000976831423301 0.0128727644723809	0.113537
H	0.6345436329490425 0.7989697342115099 0.0105802544518591	0.092203
H	0.4189540530532510 0.6476904281285286 0.8433289737822720	0.098726
H	0.2958417800734758 0.6495340664419613 0.8373668596291072	0.102294
H	0.2957507953208161 0.8497456070681558 0.9341584223796904	0.101912
H	0.4186684646599291 0.8482893180495699 0.9391315962350447	0.102657
H	0.8617558954220816 0.8042559079870781 0.7853586792808102	0.096902
H	0.9856038739988100 0.8062467512218504 0.7772620680279164	0.113967
H	0.9896670861232705 0.7003042508191484 0.0122642303791942	0.116273
H	0.8659333879174228 0.7025592695802453 0.0111185851116218	0.100479
H	0.0811344452348501 0.8523893747649713 0.8431367391299547	0.099823
H	0.2042672086002102 0.8505365956318189 0.8374110198892541	0.101373
H	0.2042133651148126 0.6502618904205498 0.9341816329902859	0.102324
H	0.0812576953390574 0.6518231113179218 0.9390197679693293	0.103586
H	0.6957277191400884 0.8613404289475879 0.7864750759096265	0.092080
H	0.6940007884755812 0.9855524016545602 0.7774260640048635	0.113630
H	0.7995579823507687 0.9897401373923463 0.0124678186238980	0.115613
H	0.7973780518154041 0.8656716075688500 0.0109903145749616	0.095293
H	0.6476312150861099 0.0812050734128435 0.8432396445804875	0.099144
H	0.6494587913112487 0.2042838899617419 0.8374183615415274	0.102273
H	0.8497082568238429 0.2041080310135569 0.9341812449342993	0.102123
H	0.8482664907311950 0.0811825418004537 0.9389921187803890	0.103387
H	0.8027725030179244 0.6381307715619468 0.7862716670436855	0.100156
H	0.8054791249960014 0.5148180816803383 0.7781607176902516	0.116455
H	0.6995615581440069 0.5099114653069500 0.0131652893809329	0.114654
H	0.7007136050610677 0.6341526656320329 0.0116537163040147	0.096683
H	0.8521910693073242 0.4189025998962525 0.8433422411355253	0.099696
H	0.8504590339661855 0.2957591335947219 0.8373006315419684	0.101448
H	0.6502144498673978 0.2957542516066687 0.9341195809613316	0.102624
H	0.6516567027569259 0.4187010078084684 0.9392876886065767	0.102731
H	0.6386759198928720 0.8042755275571718 0.2864652142624928	0.092169
H	0.5144454379295956 0.8060031998371575 0.2774177895137132	0.113672
H	0.5102561006225669 0.7004372297947677 0.5124772862763386	0.115669
H	0.6343417230698820 0.7026127402638150 0.5109990589714104	0.095373
H	0.4188053299601146 0.8523748631714462 0.3432387707264234	0.099126
H	0.2957055765811027 0.8505484438905883 0.3374162532186288	0.102249
H	0.2958812214641834 0.6502844757424530 0.4341840646095204	0.102100
H	0.4188273904786876 0.6517278403826092 0.4389957601160048	0.103445
H	0.8618539502972661 0.6972212720300310 0.2862637970439042	0.100266
H	0.9851860123745990 0.6945159276490899 0.2781507675678197	0.116571
H	0.9900928558043252 0.8004427243348607 0.5131753849653184	0.114760
H	0.8658326004004687 0.7992911812676151 0.5116677509002299	0.096617
H	0.0810867440303419 0.6478039934831762 0.3433414320450207	0.099704
H	0.2042505674715456 0.6495341578120849 0.3372980581837117	0.101561
H	0.2042549564606122 0.8497912522238271 0.4341226097554070	0.102595
H	0.0812886288635769 0.8483472990943238 0.4392906778124824	0.102727
H	0.6957343171087559 0.6382590407088181 0.2853422305124600	0.097007
H	0.6937471867069255 0.5143932626954864 0.2772497617079976	0.113999
H	0.7997012177683738 0.5103293366219886 0.5122753026419870	0.116438
H	0.7974492831637531 0.6340808706619591 0.5111316566099050	0.100552
H	0.6476002582260865 0.4188747120058475 0.3431325560003846	0.099913
H	0.6494507418997030 0.2957252154212293 0.3374061785190467	0.101370
H	0.8497498841785111 0.2957795902928241 0.4341862559263954	0.102394
H	0.8481861199995180 0.4187515086605199 0.4390245446901834	0.103606
H	0.8028453757214380 0.8615343712322706 0.2862200512260127	0.095119
H	0.8053900681123189 0.9853087767520926 0.2777664337978948	0.115829
H	0.6998943563092173 0.9899538125581979 0.5128837921214499	0.113757
H	0.7010205314354226 0.8654442572515767 0.5105950374366033	0.092213
H	0.8523174694299330 0.0810376075346670 0.3433254388893234	0.098617
H	0.8504769689405647 0.2041644256823083 0.3373632401439406	0.102342
H	0.6502442968419426 0.2042555136439242 0.4341629401412958	0.101989
H	0.6517009321862373 0.0813231968619186 0.4391362212187221	0.102622
H	0.3617576343072149 0.3042551054934409 0.2146339731654422	0.096813
H	0.4855979349837051 0.3062451798501870 0.2227296233797520	0.114106
H	0.4896609418964740 0.2003065437714157 0.9877446826493130	0.116286
H	0.3659366563670278 0.2025623201393767 0.9888876746386355	0.100411
H	0.5811365847738237 0.3523883485832264 0.1568618671191526	0.099648
H	0.7042629887354339 0.3505337277026328 0.1625870656771707	0.101361
H	0.7042103002370662 0.1502633285180500 0.0658191297585071	0.102297
H	0.5812592248656036 0.1518236097031597 0.0609823429234813	0.103549
H	0.1384484491135623 0.1971612408572745 0.2137599819377297	0.094859
H	0.0146979571287317 0.1946186642700235 0.2222159593572610	0.115750
H	0.0100548357762516 0.3000967202157929 0.9871347992961735	0.113505
H	0.1345403355143241 0.2989690696852583 0.9894255177818536	0.092201
H	0.9189513546379399 0.1476922158557873 0.1566696255680824	0.098735
H	0.7958459597923663 0.1495371159929776 0.1626311906317878	0.102259
H	0.7957544233943504 0.3497437259841634 0.0658424975162772	0.101970
H	0.9186668264137549 0.3482896901107989 0.0608700281349770	0.102632
H	0.3027699793573954 0.1381218288903147 0.2137156933186599	0.100197
H	0.3054772557489435 0.0148191127032436 0.2218333937723824	0.116505
H	0.1995643474381907 0.0099123430396780 0.9868427316034374	0.114774
H	0.2007188068486186 0.1341441785935383 0.9883530567930054	0.096688
H	0.3521874738537290 0.9188978945541482 0.1566562001256217	0.099680
H	0.3504542860925801 0.7957637938132852 0.1626980243073515	0.101431
H	0.1502195747146212 0.7957590163496652 0.0658840055417188	0.102515
H	0.1516604910956087 0.9186967014529550 0.0607167384497597	0.102753
H	0.1957332150153568 0.3613489287945165 0.2135157638892778	0.092104
H	0.1940034216083267 0.4855492549075666 0.2225668607646424	0.113685
H	0.2995558257172364 0.4897393607870508 0.9875400122574023	0.115649
H	0.2973745044516395 0.3656825593771643 0.9890203019413004	0.095366
H	0.1476341478704584 0.5812091929896150 0.1567591016989535	0.099088
H	0.1494628569571000 0.7042796220838854 0.1625810505750029	0.102212
H	0.3497048713515554 0.7041044345899031 0.0658217874619961	0.102175
H	0.3482645819279933 0.5811867337853309 0.0610110598524540	0.103457
Cu	0.2502673146473610 0.2496808612989598 0.6010678416662681	0.816990
Cu	0.7503123818819882 0.7497352050090945 0.8989317112643366	0.817091
Cu	0.7502688013411479 0.7496841043351725 0.3989370965048833	0.816584
Cu	0.2503160262202666 0.2497346128529006 0.1010665819176746	0.816918
In	0.2512579461618578 0.2505962711635552 0.3513316442577123	1.572249
In	0.7494081977155281 0.7487353449001574 0.1486568459144115	1.572151
In	0.7512512152867695 0.7505944291849854 0.6486729771712640	1.572169
In	0.2494089919448956 0.2487366920057298 0.8513374468340078	1.572321
	  	
