#======================================================================

# CRYSTAL DATA

#----------------------------------------------------------------------

data_VESTA_phase_1


_pd_phase_name                         InFFIVE_13_Zn_i
_cell_length_a                         15.42999
_cell_length_b                         15.42506
_cell_length_c                         8.23071
_cell_angle_alpha                      90.60803
_cell_angle_beta                       89.29607
_cell_angle_gamma                      90.02933
_symmetry_space_group_name_H-M         P 1
_symmetry_Int_Tables_number            1

loop_
_symmetry_equiv_pos_as_xyz
   x, y, z

loop_
   _atom_site_label
   _atom_site_fract_x
   _atom_site_fract_y
   _atom_site_fract_z
   _atom_site_charge
C	0.5404604118283713 0.6871521954999956 0.8779460468401701	0.110058
C	0.5441448797210557 0.7772992516057241 0.8765351627949844	-0.148980
C	0.4617655731635552 0.3163817851623629 0.8840869478375731	0.104290
C	0.4588875496273225 0.2261541086309717 0.8833755602213182	-0.142233
C	0.8164226301892670 0.9714512744362231 0.3681117361585527	0.108222
C	0.7263335949998100 0.9694036548336457 0.3641535601640363	-0.137847
C	0.3168331701582571 0.5437659863602493 0.8768654140165629	0.104475
C	0.2266768754863679 0.5474823795122733 0.8746715852700582	-0.150010
C	0.1876671928807437 0.9749028548943189 0.3617986428839723	0.096841
C	0.2777758252295536 0.9733967148543407 0.3592005166761402	-0.137293
C	0.6867421338531063 0.4634756765629994 0.8844530536079233	0.104415
C	0.7768391335093373 0.4602995221808056 0.8824665392839280	-0.142041
C	0.4567212867485979 0.6879172173056138 0.1141020383056665	0.108038
C	0.4534329079803012 0.7780415482994258 0.1171815386013633	-0.141490
C	0.5416444295653475 0.3193355964928283 0.1216913782652382	0.105951
C	0.5448862615769717 0.2291885740340723 0.1262410070559241	-0.152152
C	0.1841252987206848 0.0164943398274920 0.6340574047717551	0.109952
C	0.2740270073453504 0.0186153146513250 0.6413747331571965	-0.136228
C	0.6846178794176903 0.5432150510970001 0.1251195392214575	0.112436
C	0.7747527251311334 0.5469647061829378 0.1279774780523296	-0.149315
C	0.8149945524811585 0.0286770662407140 0.6301574529121999	0.103542
C	0.7249758129206665 0.0294009630302166 0.6368530937328830	-0.139207
C	0.3147778084053928 0.4586277655528143 0.1081656301151121	0.104890
C	0.2246138325465937 0.4559820670033138 0.1107540831001839	-0.142641
C	0.9659288289353153 0.8140999867857243 0.6294995508444005	0.107387
C	0.9647227020382455 0.7239326014335340 0.6342481337171721	-0.137726
C	0.9845555254832307 0.1844585671550180 0.6382126283033883	0.096474
C	0.9823937363375634 0.2745166913737805 0.6422991730992847	-0.138857
C	0.0218608874479517 0.8126733286835942 0.3663093883108007	0.104261
C	0.0235453682850246 0.7226896969301412 0.3604756108591323	-0.139236
C	0.0254135450446335 0.1825308373956904 0.3654187930496630	0.111718
C	0.0268330719789600 0.2725689370251750 0.3594858641996009	-0.136649
C	0.0040306144951113 0.3195281528714987 0.5003803805839342	0.041042
C	0.0020432798834768 0.4145490153960452 0.4996054541819632	0.256588
C	0.4989662539316356 0.8236861796651116 0.9973735203971759	0.059119
C	0.4998972454331851 0.9193777025691637 0.0012215829020877	0.248511
C	0.9947599815854276 0.6772299501382948 0.4976582056517549	0.040141
C	0.9971250511488403 0.5820487942459488 0.4982472883391760	0.248827
C	0.5018078502412029 0.1816866123010643 0.0060212675747497	0.058302
C	0.5012877571949694 0.0859263677935614 0.0075431706555266	0.250494
C	0.6795828668529572 -0.0010374042110187 0.5010711527952443	0.039249
C	0.5844330482460229 0.9974896710211497 0.5027832751346250	0.248493
C	0.1796661292777598 0.5020485550651186 0.9927720074018768	0.058652
C	0.0839906019597603 0.5027706316056636 0.9953379000752457	0.249545
C	0.3218832049799722 0.9960894018804538 0.5013633672562547	0.040466
C	0.4168723204053895 0.9961102963844624 0.5033175361935742	0.259181
C	0.8217792402337770 0.5037504203325547 0.0055353908031808	0.058711
C	0.9174973238552122 0.5036600011100699 0.0040120480289541	0.250696
H	0.5710134899416840 0.6478902778836187 0.7826382042986569	0.096343
H	0.5804478799930203 0.8105930262742068 0.7815000329877680	0.123133
H	0.4325807637014614 0.3537890861865928 0.7868502254567221	0.103399
H	0.4260103126199641 0.1907047642668952 0.7869525044559464	0.120020
H	0.8551509193698141 0.9489308333972815 0.2641963713273475	0.097160
H	0.6931880533474613 0.9456813636880214 0.2563499035671616	0.122115
H	0.3565075612226731 0.5758650830492924 0.7845668513725614	0.096970
H	0.1938257520780387 0.5841886772666758 0.7812793411414176	0.124358
H	0.1515578408206645 0.9607577426632324 0.2514204767075570	0.099696
H	0.3126440102794095 0.9560199337749787 0.2476500424093578	0.116751
H	0.6489287860256456 0.4352718804263158 0.7861323191230889	0.103775
H	0.8119207845761046 0.4271074167022327 0.7845082818913428	0.119624
H	0.4269269326386790 0.6495635436397107 0.2103569296385776	0.103288
H	0.4190557197831687 0.8125447259738571 0.2143330209967153	0.118875
H	0.5717698405818011 0.3594090347480329 0.2154738138600432	0.096568
H	0.5790796016433817 0.1966920655773025 0.2233291951751284	0.124391
H	0.1443876010025189 0.0300613353318862 0.7413242302597880	0.095751
H	0.3058647228088001 0.0360506749341621 0.7544924920328913	0.120728
H	0.6450536073134719 0.5717230747133979 0.2221738175257197	0.096087
H	0.8074063319523954 0.5815046071193223 0.2257774195819614	0.123763
H	0.8531977587317096 0.0504634856397493 0.7332226834072331	0.091919
H	0.6909286933979346 0.0520837570238980 0.7459453594451612	0.121030
H	0.3526865490247368 0.4272831549444082 0.2021163818926998	0.102007
H	0.1894881871864520 0.4213719767019583 0.2056351940997176	0.119066
H	0.9438997182579489 0.8528123381975555 0.7337963039900345	0.098943
H	0.9419766058436101 0.6907242435027137 0.7429195335435729	0.121176
H	0.9705670324398632 0.1477025718206489 0.7480289756990529	0.098398
H	0.9648939184912334 0.3087652455237552 0.7543986664396732	0.120428
H	0.0427246560890387 0.8509693566789626 0.2626318898654346	0.090288
H	0.0463814270734435 0.6887558249590844 0.2514180162273743	0.119710
H	0.0391177189612435 0.1433280890991331 0.2575222639497858	0.096289
H	0.0435095083231487 0.3052754033930507 0.2466322251070611	0.120154
N	0.9533117223271143 0.5406240621922601 0.6179390621983861	-0.134047
N	0.4232230222334289 0.0461151492534940 0.0094544613795902	-0.148861
N	0.5422868778877632 0.0417555014792359 0.6224548716771109	-0.137563
N	0.9574891878260968 0.4257432444665809 0.0013544426751003	-0.143286
N	0.0436787745041375 0.5412726629921660 0.3800202691242650	-0.136165
N	0.5785783385969270 0.0449251012209404 0.0085380589780313	-0.151794
N	0.9583083615418253 0.5811227401965134 0.0035562494113509	-0.147694
N	0.5443795820768679 0.9507914783261076 0.3854538772105922	-0.133444
N	0.0468496149634853 0.4559773734065836 0.3814611864862308	-0.131586
N	0.5778697027252221 0.9591986725589146 0.0010555679370517	-0.147430
N	0.4591934305782652 0.9498766985428820 0.3862813391853734	-0.128462
N	0.0439813179707953 0.5806427501548894 0.9951398964263225	-0.151909
N	0.9552314392105302 0.4554309666321549 0.6176479978936064	-0.129579
N	0.4226177132097768 0.9604174093272436 0.0097612035830458	-0.139866
N	0.0431715740744961 0.4252895997439626 0.0001758660119848	-0.147895
N	0.4569168686142934 0.0413625095851517 0.6224137326034954	-0.134693
N	0.0048361643647528 0.1393070142823463 0.5018832132469744	-0.217333
N	0.4986335389142553 0.6434109053495953 0.9955386924904075	-0.223808
N	0.9944148621348349 0.8575745136700916 0.4981884985014223	-0.212664
N	0.5014840400366765 0.3618540471378140 0.0022951018432224	-0.220729
N	0.8599187955037679 0.0005134949524605 0.4987010749774068	-0.212848
N	0.3597972682088788 0.5009019290887391 0.9923536414959254	-0.218957
N	0.1416990426138737 0.9955174887135940 0.4971169681013718	-0.216335
N	0.6415325220631395 0.5032595046792252 0.0047286132412490	-0.224232
Zn	0.0010646347703343 0.9986702576695029 0.4988595799479047	0.728837
Zn	0.5006616329333023 0.5027282517951389 0.9988643624603026	0.733054
In	-0.0035738357990636 0.9938699398056581 0.9988806210367106	1.549767
In	0.4960086684957958 0.4995605863642845 0.4992140491205943	1.565959
F	0.0022395014708834 -0.0035601991068391 0.2532254653963096	-0.554158
F	0.5083709200394072 0.4967612891985665 0.7536035696241078	-0.562110
F	-0.0024193715440436 0.9978050995416692 0.7443186034828729	-0.554054
F	0.4909950871630144 0.5081832351700180 0.2441919330228237	-0.562636
F	0.9034542510685287 0.9011210432392333 0.0007002293414152	-0.604333
F	0.4072739688575938 0.4021041369499956 0.5034826124000795	-0.625848
F	0.9595737802635534 0.1203215717765505 -0.0000680667166779	-0.600327
F	0.4529361319928050 0.6240361997730455 0.5193663617000180	-0.627044
F	0.1230764096917363 0.9578499290533924 -0.0045317753199596	-0.599728
F	0.6235768951321401 0.4669185735114720 0.4763928369421337	-0.627462
	  	
