#======================================================================

# CRYSTAL DATA

#----------------------------------------------------------------------

data_VESTA_phase_1


_pd_phase_name                         InFFIVE_16_Ni_i
_cell_length_a                         25.03798
_cell_length_b                         25.03797
_cell_length_c                         8.09638
_cell_angle_alpha                      90.00201
_cell_angle_beta                       89.99733
_cell_angle_gamma                      90.03649
_symmetry_space_group_name_H-M         P 1
_symmetry_Int_Tables_number            1

loop_
_symmetry_equiv_pos_as_xyz
   x, y, z

loop_
   _atom_site_label
   _atom_site_fract_x
   _atom_site_fract_y
   _atom_site_fract_z
   _atom_site_charge
C	0.4783159209846322 0.3886791224939710 0.3736199878144481	0.100642
C	0.4775968610794649 0.3332141566258906 0.3688459706788955	-0.170684
C	0.9550660468340618 0.6136028448494895 0.9433082718088796	-0.125352
C	0.9552056709944674 0.5581446094028741 0.9441346630729347	-0.124691
C	0.5213767308299934 0.6116693903899234 0.3722081575351090	0.106548
C	0.5223518967470200 0.6670710667578950 0.3668748544272644	-0.168984
C	0.0449519865947722 0.3866562231484786 0.9433676494870097	-0.125194
C	0.0447943409560747 0.4421227858407900 0.9440568622803786	-0.124828
C	0.6117018986830894 0.4786695838776343 0.3739188678880186	0.099623
C	0.6671184955028759 0.4777411007298307 0.3692397037045113	-0.171005
C	0.3866367249846139 0.9550546000536870 0.9432791360021808	-0.124662
C	0.4420937757182303 0.9551897880861333 0.9442044879963545	-0.124304
C	0.3887897858963849 0.5216882556710051 0.3733942585499790	0.101149
C	0.3333597025271672 0.5224877460312805 0.3678402404715535	-0.170365
C	0.6136444927758858 0.0449587465387048 0.9433556653382427	-0.125729
C	0.5581828145560627 0.0447890766821750 0.9441048148505838	-0.125013
C	0.5216827302480026 0.3887910116692046 0.6265989708483957	0.101134
C	0.5224844433353563 0.3333603623712989 0.6321577810644792	-0.170431
C	0.0449589012245591 0.6136437663932960 0.0566446505911878	-0.125708
C	0.0447895593740165 0.5581828994244634 0.0558958853680787	-0.124832
C	0.4786753365784241 0.6117006723152519 0.6260864781464761	0.099677
C	0.4777443221941757 0.6671194619907612 0.6307607242268806	-0.170975
C	0.9550540822362266 0.3866361869380944 0.0567215035592207	-0.124724
C	0.9551896429996924 0.4420936844772815 0.0557966821373487	-0.124343
C	0.3886813729879482 0.4783217621425936 0.6263679389157335	0.100611
C	0.3332159974721224 0.4775998562122761 0.6311527524779914	-0.170690
C	0.6136023448607276 0.9550648226279859 0.0566931425350183	-0.125366
C	0.5581453368956714 0.9552047343096648 0.0558671418452319	-0.124616
C	0.6116666085925004 0.5213697632335312 0.6277939742066367	0.106487
C	0.6670688661634983 0.5223482594359203 0.6331244991796775	-0.168938
C	0.3866569995093054 0.0449522774317926 0.0566340806393433	-0.125166
C	0.4421232892328920 0.0447940619205800 0.0559444444553218	-0.124788
C	0.5449492985027096 0.8866595616057443 0.5566316600012381	-0.125257
C	0.5447911130918385 0.9421279379666184 0.5559409580794501	-0.124800
C	0.0213741053682927 0.1116717099257148 0.1277827158918678	0.106589
C	0.0223479518732380 0.1670729200414761 0.1331040493331691	-0.169048
C	0.4550650055568802 0.1136051728160750 0.5566945853367808	-0.125323
C	0.4552053590538159 0.0581437987585078 0.5558703423369006	-0.124618
C	0.9783134722282227 0.8886779965233381 0.1263963990023505	0.100949
C	0.9775994570222452 0.8332169214877716 0.1311547468583163	-0.170804
C	0.1136455692275265 0.5449575994696502 0.5566436173117066	-0.125791
C	0.0581805556267000 0.5447889308122051 0.5558909134846244	-0.124616
C	0.8887830572480925 0.0216906050095308 0.1265939566106316	0.101151
C	0.8333576826590323 0.0224904136464774 0.1321543286606033	-0.170314
C	0.8866362127194538 0.4550572442286091 0.5567176616344549	-0.124790
C	0.9420956109126284 0.4551957454867510 0.5557930183659087	-0.124414
C	0.1116959503760254 0.9786722658486606 0.1261138403900633	0.099617
C	0.1671151707562268 0.9777483634473466 0.1307664738949895	-0.170764
C	0.4550566055165894 0.8866374117133945 0.4432835311549128	-0.124776
C	0.4551945467284525 0.9420968728397181 0.4442072720467609	-0.124482
C	0.9786732975100033 0.1116960380032800 0.8738905168281875	0.099671
C	0.9777489567943075 0.1671145027449687 0.8692347374119704	-0.170829
C	0.5449586559266352 0.1136450587805960 0.4433590165962030	-0.125838
C	0.5447895003137708 0.0581804987846852 0.4441112466574917	-0.124634
C	0.0216902288449181 0.8887837416934534 0.8734051267544648	0.101144
C	0.0224909036285621 0.8333571848775454 0.8678496095419569	-0.170414
C	0.8866593713359926 0.5449497814410477 0.4433709815327465	-0.125284
C	0.9421279795215612 0.5447915419292123 0.4440608212619016	-0.124766
C	0.1116728952851692 0.0213738217076347 0.8722209287535131	0.106687
C	0.1670731449710476 0.0223480595736347 0.8668932529076876	-0.169084
C	0.1136054718990725 0.4550655324482150 0.4433103295316280	-0.125355
C	0.0581446683830485 0.4552060179671683 0.4441332715701118	-0.124624
C	0.8886788096305335 0.9783134425553606 0.8736024955484535	0.100917
C	0.8332166875133271 0.9775985531379620 0.8688503281148652	-0.170819
C	0.5000093275951560 0.3042263784005991 0.5006322085413455	0.175552
C	0.5000034082198281 0.2476074498284538 0.5007948894622879	-0.118150
C	0.5000261854305801 0.1988991292671898 0.5004171387699732	-0.092512
C	0.5000261077954479 0.1422481530141384 0.5001291586656748	0.124746
C	0.4999995532352152 0.0295379139881833 0.5000329143311517	0.066440
C	0.0000112358321435 0.8042277643827656 -0.0006363188235724	0.175606
C	0.0000056662372903 0.7476078395486508 -0.0007948586448983	-0.118204
C	0.0000282433453908 0.6989026054178814 -0.0004174874431216	-0.092410
C	0.0000278542666160 0.6422451880732186 -0.0001272892386496	0.124596
C	-0.0000013947384088 0.5295432003194664 -0.0000288654465452	0.066447
C	0.5000068265603370 0.6961146935126041 0.4986872358497133	0.174309
C	0.4999728746307758 0.7527034918179665 0.4985792243047405	-0.114847
C	0.4999982294202005 0.8014022252993194 0.4992733845692947	-0.095149
C	0.5000135777188844 0.8580271914085853 0.4997957816071059	0.124195
C	0.4999961282456818 0.9707285643467590 0.5000859232597846	0.064563
C	0.0000110004804626 0.1961087464261799 0.0012977588935270	0.174168
C	-0.0000274949966720 0.2526987315754438 0.0014225627898751	-0.114883
C	-0.0000016306983858 0.3013986247273474 0.0007362359026585	-0.094993
C	0.0000133206182196 0.3580267389408874 0.0002084166979460	0.123948
C	-0.0000056261923947 0.4707238056526137 -0.0000822037288983	0.064633
C	0.6961132906907783 0.5000073192656366 0.5013060071966713	0.174289
C	0.7527040209971337 0.4999753760416636 0.5014139645310345	-0.114794
C	0.8013997485533141 0.4999995676799711 0.5007267870411566	-0.095203
C	0.8580267428289035 0.5000142874695669 0.5002062964075578	0.124189
C	0.9707284857260404 0.4999962528569776 0.4999153448298169	0.064491
C	0.1961088699749543 0.0000105287120507 -0.0013002349358952	0.174185
C	0.2527004864009760 -0.0000270402471842 -0.0014203902934546	-0.114836
C	0.3013981481242443 -0.0000010687749025 -0.0007319599955931	-0.095073
C	0.3580277290423535 0.0000140812159941 -0.0002061807787108	0.123958
C	0.4707240770053805 -0.0000059762552083 0.0000846869955171	0.064570
C	0.3042269135912337 0.5000103829788384 0.4993639421388828	0.175593
C	0.2476061866141741 0.5000016014426851 0.4992103797859908	-0.118174
C	0.1989008322528070 0.5000249441151662 0.4995912020639797	-0.092460
C	0.1422485269377425 0.5000260687699934 0.4998782113095240	0.124731
C	0.0295377428087955 0.4999998381470307 0.4999698630677161	0.066397
C	0.8042278559690936 0.0000114300963564 0.0006386396078340	0.175603
C	0.7476085605697461 0.0000052571255113 0.0007997572644203	-0.118268
C	0.6989023350628141 0.0000279968742696 0.0004188966615992	-0.092405
C	0.6422451667011226 0.0000279936032328 0.0001264606174342	0.124708
C	0.5295435496986055 -0.0000014783779969 0.0000302853041293	0.066432
H	0.4614259280753731 0.4120501404248893 0.2724162438534250	0.096650
H	0.4599394123491665 0.3125454248418590 0.2639976333053751	0.127054
H	0.9204773951211892 0.6354869349386153 0.8978771267498908	0.112219
H	0.9206541776350052 0.5364231346920699 0.8968883649973333	0.106204
H	0.5373006021752749 0.5879582634843157 0.2709880990927422	0.091410
H	0.5397401738013949 0.6877165890027993 0.2615517373017975	0.124575
H	0.0795527220770542 0.3647826157569702 0.8979348752694114	0.111352
H	0.0793383169271061 0.4638544009873384 0.8967569041097431	0.105984
H	0.5883932065540379 0.4630428234925001 0.2709837499595110	0.098734
H	0.6876895207110330 0.4602525449128401 0.2639943698872805	0.127765
H	0.3647183418323443 0.9204610366920420 0.8978522136682195	0.111913
H	0.4637997023253982 0.9206405017245268 0.8969618837755003	0.106157
H	0.4126230205126273 0.5388666766116286 0.2739105620554653	0.092084
H	0.3127045092669846 0.5401634211804558 0.2629605155588844	0.125233
H	0.6355357556676720 0.0795677095428115 0.8978899433143328	0.111669
H	0.5364709095606501 0.0793158918837558 0.8968149880278337	0.106101
H	0.5388596228566060 0.4126272928318299 0.7260789984206912	0.092161
H	0.5401642150628736 0.3127085193020455 0.7370306652155235	0.125311
H	0.0795681096955687 0.6355348153641546 0.1021095831915994	0.111670
H	0.0793162866791897 0.5364702752994898 0.1031865049359162	0.105987
H	0.4630484234563573 0.5883933116941609 0.7290255926265637	0.098652
H	0.4602494468629030 0.6876888061578028 0.7359959725680152	0.127757
H	0.9204605155787405 0.3647180148749175 0.1021497944925502	0.111999
H	0.9206401474708613 0.4637989700366402 0.1030388055376399	0.106164
H	0.4120532299401237 0.4614320603246247 0.7275693338094543	0.096628
H	0.3125495031909162 0.4599372261901329 0.7359984151793746	0.127013
H	0.6354872559775047 0.9204763133562626 0.1021237337325273	0.112173
H	0.5364228418673892 0.9206532710904374 0.1031139263752547	0.106201
H	0.5879557312897775 0.5372919885152618 0.7290137062537203	0.091397
H	0.6877133590774781 0.5397425100692724 0.7384413446192082	0.124620
H	0.3647826110730811 0.0795522490150918 0.1020679797132546	0.111326
H	0.4638546584950530 0.0793374800207449 0.1032450635811358	0.105990
H	0.5795503870937559 0.8647823232633598 0.6020666097697941	0.111357
H	0.5793396396392576 0.9638559931824888 0.6032453363454366	0.106046
H	0.0372873413646122 0.0879524866153847 0.2290070587955975	0.091275
H	0.0397322176905976 0.1877184070399922 0.2384063888564074	0.124708
H	0.4204714201270339 0.1354899871250815 0.6021270357652654	0.112167
H	0.4206482828214522 0.0364247414354072 0.6031188897298383	0.106169
H	0.9614187398781082 0.9120522658922051 0.2276081237652422	0.096510
H	0.9599399166565902 0.8125461423980050 0.2359872371052217	0.127080
H	0.1355357519063799 0.5795706763336940 0.6021117782927453	0.111687
H	0.0364707358085270 0.5793224778459133 0.6031871473381936	0.105859
H	0.9126271617491871 0.0388724578807136 0.2260761984038988	0.092102
H	0.8127058025924101 0.0401629877052881 0.2370170294355834	0.125246
H	0.8647156321771020 0.4204620792514361 0.6021467366018122	0.111979
H	0.9637980616767289 0.4206430254471690 0.6030399213594283	0.106218
H	0.0883841683252605 0.9630535178597815 0.2290573821561162	0.098863
H	0.1876872149948781 0.9602541221220346 0.2359674431445461	0.127702
H	0.4204620940102272 0.8647158766525374 0.3978538892504717	0.111945
H	0.4206426149996551 0.9637989585707943 0.3969610636034975	0.106217
H	0.9630552776920385 0.0883839934957325 0.7709459140263338	0.098793
H	0.9602543122378767 0.1876870043880752 0.7640308043757228	0.127740
H	0.5795719958964221 0.1355360983401967 0.3978899563712747	0.111679
H	0.5793228530553413 0.0364706609293678 0.3968134649646860	0.105906
H	0.0388723725786878 0.9126274434388578 0.7739235300747944	0.092087
H	0.0401636209206379 0.8127061299485824 0.7629829486585371	0.125305
H	0.8647828573755932 0.5795509580865145 0.3979335426750586	0.111383
H	0.9638567455241644 0.5793404109031350 0.3967533382882261	0.106027
H	0.0879529155801640 0.0372865978894080 0.7709927093451296	0.091254
H	0.1877197278471659 0.0397320429410295 0.7615921045737361	0.124716
H	0.1354900390743429 0.4204715898307859 0.3978767085603152	0.112138
H	0.0364250047119657 0.4206490491444590 0.3968833726282344	0.106173
H	0.9120527183738406 0.9614181067357088 0.7723915000407795	0.096547
H	0.8125459391176098 0.9599390379992835 0.7640181384525931	0.127070
Ni	0.5002307688712266 0.5002290118387880 0.5000038413527673	0.759543
Ni	0.0002225680398780 0.0002212727976308 -0.0000001562077096	0.759382
In	0.4984697410101603 0.4984768862059072 0.0000052009581625	1.568682
In	-0.0015347101602190 -0.0015342334292710 0.5000018236570075	1.567911
F	0.5015446450909894 0.4987300966586903 0.2574213810561506	-0.561853
F	-0.0012876371677730 0.0015564971072153 0.7575373757777466	-0.561601
F	0.4987291928163656 0.5015426184354927 0.7425803963651640	-0.561848
F	0.0015556895719797 -0.0013046272664961 0.2424634838678137	-0.561583
F	0.4411656147011220 0.4411620226331664 -0.0000018368670875	-0.612834
F	0.9410583700168571 0.9410666706138829 0.5000048224736897	-0.612818
F	0.4754097152035887 0.5762380811772954 0.0068797873922855	-0.614429
F	0.9752886486535188 0.0762624057104015 0.4931834149630964	-0.614201
F	0.5762421127515439 0.4754277181189250 0.9931053443483631	-0.614472
F	0.0762629842647686 0.9752918802115875 0.5067855913456832	-0.614231
N	0.4999829994023632 0.4161498871816555 0.5001611932539552	-0.233539
N	-0.0000159714841298 0.9161394914693730 -0.0001492204568353	-0.233402
N	0.5000500872927565 0.5842623917104203 0.4991147126829028	-0.239234
N	0.0000436039291916 0.0842683867387486 0.0008709467085675	-0.239606
N	0.5842614420686428 0.5000403413902821 0.5008882869529404	-0.239243
N	0.0842685368308983 0.0000439156606615 -0.0008684927640448	-0.239624
N	0.4161515272390263 0.4999915790183787 0.4998265900951977	-0.233374
N	0.9161397942404923 -0.0000149690214493 0.0001488524621928	-0.233486
	  	
