#======================================================================

# CRYSTAL DATA

#----------------------------------------------------------------------

data_VESTA_phase_1


_pd_phase_name                         InFFIVE_18_Cu
_cell_length_a                         13.62548
_cell_length_b                         13.91670
_cell_length_c                         8.47925
_cell_angle_alpha                      90.34261
_cell_angle_beta                       95.20271
_cell_angle_gamma                      89.94794
_symmetry_space_group_name_H-M         P 1
_symmetry_Int_Tables_number            1

loop_
_symmetry_equiv_pos_as_xyz
   x, y, z

loop_
   _atom_site_label
   _atom_site_fract_x
   _atom_site_fract_y
   _atom_site_fract_z
   _atom_site_charge
F	0.4982033509968367 0.3221153985617988 0.4690229731446545	-0.602641
F	0.5307706981480739 0.4657906837443412 0.7381710093719291	-0.576508
F	0.3642458066352735 0.5276414703618045 0.5316787562636693	-0.570284
F	0.9980323096818927 0.8222259417527075 0.4688791972470298	-0.602823
F	0.0306192495991779 0.9657703359594206 0.7381499615016375	-0.577863
F	0.8641954569755149 0.0282782058429259 0.5316471863627523	-0.569742
F	0.6328809617381844 0.5353838141359581 0.4746210702831744	-0.573054
F	0.4706849479402196 0.4864566891450282 0.2565287473703847	-0.577926
F	0.1327825413280738 0.0356268654403049 0.4747296598044559	-0.573029
F	0.9705632743082270 0.9865712803146259 0.2565390346422496	-0.577613
C	0.6863386340253329 0.1708607707142157 0.6742432165275439	-0.420958
C	0.7587802147109319 0.1580114055491766 0.8150384786602932	0.204603
C	0.7637527035099206 0.1993429135065731 0.9666366636442862	-0.149405
C	0.6931288644691428 0.2654389371423966 0.0281923394585039	-0.144002
C	0.6770400773471633 0.3632516025954165 0.9885311692264596	0.219666
C	0.7360657611876529 0.4239819710326702 0.8880471716817708	-0.432151
C	0.8896399053408505 0.1865704183150029 0.2139267091761659	-0.432941
C	0.8503854403855838 0.1620110035345889 0.0490549936282588	0.217745
C	0.6252531032757894 0.2439342719510751 0.1377333578298990	0.216583
C	0.6062904450113117 0.1537596724089573 0.2233786276094634	-0.428336
C	0.1864032149633718 0.6709348592826362 0.6742437438775687	-0.421263
C	0.2588586773576866 0.6580250792803002 0.8149361783973879	0.204908
C	0.2639046988047361 0.6993970789262913 0.9665401261275319	-0.149521
C	0.1931222617572005 0.7653499738605295 0.0280823312736500	-0.144205
C	0.1770503137557481 0.8631955019808069 0.9885228559962909	0.219449
C	0.2360347899137827 0.9240467376901422 0.8880081132290600	-0.431916
C	0.3896913085146754 0.6865337887583675 0.2138983057756668	-0.432686
C	0.3504830197711479 0.6620225298265566 0.0489074985157601	0.217729
C	0.1253923518164981 0.7438876709051121 0.1379205341593164	0.217101
C	0.1063043113557465 0.6537360113112917 0.2234353950174734	-0.428305
C	0.3161876267085993 0.1674924320750477 0.3210072722319208	-0.425220
C	0.2416997688323113 0.1568231013684586 0.1823337597329875	0.207150
C	0.2361317652324301 0.1969761967536062 0.0304501962520955	-0.149593
C	0.3073072471824044 0.2628704216821034 0.9710744525086706	-0.143084
C	0.3241244802141749 0.3596513571999865 0.0194547242605365	0.220689
C	0.2655290032168090 0.4181628903229497 0.1249598842628725	-0.432000
C	0.1055003059779119 0.1853198671794521 0.7875401602913868	-0.434198
C	0.1474859737558610 0.1616917995852006 0.9509284964920675	0.217889
C	0.3756897850744243 0.2434207919650065 0.8608528489848504	0.214746
C	0.3948585474385812 0.1555799608249195 0.7671829547456925	-0.429271
C	0.8162534183416934 0.6673119853587978 0.3208577414586845	-0.425848
C	0.7416774388878516 0.6567819282236786 0.1822402026797702	0.207832
C	0.7361053874746821 0.6969502232563469 0.0303726233086761	-0.149860
C	0.8072979812532991 0.7628244218406742 0.9711074480823276	-0.143090
C	0.8241094187494296 0.8595963851764890 0.0195412446299353	0.220611
C	0.7654964405628965 0.9181805117024376 0.1249452726186504	-0.431962
C	0.6055282970965469 0.6853984787743020 0.7874423225547845	-0.434859
C	0.6474815252184549 0.6616884854544011 0.9508102737561278	0.218076
C	0.8757635108623422 0.7433737668650992 0.8609897032229612	0.214773
C	0.8949253753374626 0.6555954275344360 0.7672279198237560	-0.429172
H	0.7236202078235268 0.1873813079789000 0.5680116928751892	0.148740
H	0.6355722475778348 0.2298652622330257 0.6945018523956742	0.139703
H	0.6427404005464386 0.1051787687384987 0.6480878927434379	0.137184
H	0.6905585969444411 0.4559306334127640 0.7886368620156856	0.147879
H	0.7940841625017164 0.3800407844991620 0.8420044827220813	0.133889
H	0.7711928711028762 0.4829890464237147 0.9591833834106408	0.132875
H	0.8574114437090408 0.0609889915200654 0.7148834339396598	0.277798
H	0.8676056542044860 0.1337234193054507 0.2998322364711939	0.137562
H	0.8605387256683391 0.2570118545812328 0.2454713946820311	0.133902
H	0.9703160868033889 0.1894347437699998 0.2251749950866949	0.141512
H	0.5719530847217144 0.1696768505605647 0.3327939145772135	0.150862
H	0.6749856775779742 0.1139675053739209 0.2529428950190658	0.151279
H	0.5561788362934393 0.1063222127173817 0.1494528032062253	0.133634
H	0.5228692929924390 0.3374154807534272 0.2362076471578261	0.269411
H	0.2235996274508675 0.6873871259259604 0.5679042352140221	0.148541
H	0.1356878202145824 0.7300209227310660 0.6943708446290661	0.139737
H	0.1426735842319093 0.6053461161009543 0.6480288573486939	0.137314
H	0.1904831404160050 0.9559240061588515 0.7885497273410375	0.147979
H	0.2940456138714270 0.8801367352910506 0.8419478411869832	0.133703
H	0.2712697528974357 0.9830476293863769 0.9590945292094366	0.132835
H	0.3573569834921821 0.5609729387910509 0.7147211937648230	0.278281
H	0.3677175896848418 0.6335164527859798 0.2996839400491649	0.137499
H	0.3605228402764760 0.7570220245951357 0.2453780019615004	0.133953
H	0.4704050818761720 0.6894188268732665 0.2249384100445465	0.141369
H	0.0719450006598493 0.6697082653000439 0.3328054963077920	0.150917
H	0.1750090315439274 0.6139634598294147 0.2529633098171933	0.151050
H	0.0562377290260730 0.6063395034563888 0.1493498086315468	0.133879
H	0.0230521962168355 0.8374568451684048 0.2363498763449519	0.269285
H	0.2801430752478875 0.1742996360160727 0.4312890648743384	0.148436
H	0.3626339768518618 0.2308587307564297 0.3091533573809993	0.145070
H	0.3646005245116747 0.1040276563991125 0.3331806391933537	0.135831
H	0.3128746189726888 0.4568715630594449 0.2153706729866383	0.147362
H	0.2150765007408078 0.3713257531984963 0.1827998828970477	0.135996
H	0.2212497053533296 0.4715980055701543 0.0546465563715624	0.134583
H	0.1405498302468598 0.0652443834603818 0.2863788981204647	0.276887
H	0.1117621097776281 0.1249712811260889 0.7049896817268505	0.136346
H	0.1459347506904678 0.2465150966509974 0.7440765362934473	0.136016
H	0.0273145251980206 0.2048456478359652 0.7858965790981840	0.141328
H	0.4252364108688492 0.1749227239908857 0.6560134368988987	0.149018
H	0.3266544717450380 0.1147096279778771 0.7390506952026598	0.154677
H	0.4480377734324955 0.1077728574135860 0.8334341837158371	0.135665
H	0.4822289925150941 0.3419454128964626 0.7792632732539453	0.271415
H	0.7802580971275044 0.6741618090045985 0.4311524233329050	0.148250
H	0.8627568670165522 0.7306449926119162 0.3090422593653976	0.144930
H	0.8646280477720543 0.6038137021701973 0.3331950113881111	0.136161
H	0.8127892917367987 0.9568531879535596 0.2154716468277521	0.147376
H	0.7150198696766266 0.8713263704999560 0.1826455263307496	0.135850
H	0.7211630741640315 0.9716116197896572 0.0546802326743299	0.134496
H	0.6406659124125001 0.5650739406470762 0.2863511459406039	0.277041
H	0.6115078179751932 0.6249263138195479 0.7050577283391586	0.136656
H	0.6461991398242619 0.7464253920287154 0.7439051156207918	0.136253
H	0.5274373948916703 0.7051690616069144 0.7860090989055168	0.141495
H	0.9251949747233024 0.6749604541991723 0.6559426686755293	0.149199
H	0.8267150641672537 0.6146788895125063 0.7393254855321501	0.154554
H	0.9481465188281650 0.6078533063634327 0.8335416659768463	0.135577
H	0.9823328572717170 0.8419965674841465 0.7794813878268537	0.271821
N	0.8374229576299065 0.0991240085772553 0.8134352297442533	-0.152333
N	0.6020432522236693 0.3979225471228378 0.0655346108919465	-0.249676
N	0.8940335957967676 0.1008674752841532 0.9533719036905691	-0.239944
N	0.5726772212217064 0.3247107704219801 0.1550036732018187	-0.146503
N	0.3375264353566185 0.5991536740852087 0.8133065552691923	-0.152844
N	0.1022019084916311 0.8979307465817754 0.0658296640511074	-0.249526
N	0.3940994012047208 0.6008499673606092 0.9532786425592672	-0.239813
N	0.0727132537616321 0.8246628686349502 0.1550442133093208	-0.146875
N	0.1611703833178049 0.1010963442950770 0.1870238971506853	-0.148176
N	0.3994475751051664 0.3956496403936153 0.9460123434608837	-0.241909
N	0.1032367778154649 0.1029176923282735 0.0484366021393234	-0.243761
N	0.4287612624935716 0.3245153807361660 0.8513223369015085	-0.153245
N	0.6612061922995945 0.6009651739678621 0.1868964865995936	-0.148975
N	0.8994085483748525 0.8956078815644125 0.9460760093680212	-0.241706
N	0.6032049104664737 0.6029027291824890 0.0483240376925990	-0.243548
N	0.9288247232281888 0.8244923981380267 0.8514301052316917	-0.153500
In	0.4994973849430208 0.4688315909445838 0.4964147730341743	1.539937
In	-0.0006450946422350 0.9690951622334196 0.4963718867256862	1.540066
Cu	0.4993413440515885 0.5026814865023863 0.0037183503395261	0.753681
Cu	-0.0006391762505985 0.0027576753651137 0.0038779300314913	0.753567
	  	
