#======================================================================

# CRYSTAL DATA

#----------------------------------------------------------------------

data_VESTA_phase_1


_pd_phase_name                         InFFIVE_13_Fe_i
_cell_length_a                         15.52054
_cell_length_b                         15.51670
_cell_length_c                         8.15804
_cell_angle_alpha                      90.51687
_cell_angle_beta                       89.36512
_cell_angle_gamma                      89.94628
_symmetry_space_group_name_H-M         P 1
_symmetry_Int_Tables_number            1

loop_
_symmetry_equiv_pos_as_xyz
   x, y, z

loop_
   _atom_site_label
   _atom_site_fract_x
   _atom_site_fract_y
   _atom_site_fract_z
   _atom_site_charge
C	0.5421740264946333 0.6893495305533667 0.8797779286286866	0.107909
C	0.5458907619014097 0.7789022008108811 0.8782480133673982	-0.148584
C	0.4603579428848105 0.3143034056806380 0.8843498858285158	0.105186
C	0.4574596816810027 0.2246466284346566 0.8842957332945556	-0.141148
C	0.8145416841803783 0.9694659102123790 0.3678400899174435	0.105396
C	0.7249802410125257 0.9678293354922121 0.3633873011609001	-0.141238
C	0.3148573680488040 0.5458442413355243 0.8787470083833520	0.104567
C	0.2252631237666846 0.5493568396823313 0.8759569670728085	-0.150196
C	0.1895884957309757 0.9748431086679642 0.3620973665885855	0.094231
C	0.2791380099878377 0.9730998236955781 0.3598933266106975	-0.139769
C	0.6891110465275929 0.4623407847868051 0.8835540894541686	0.106977
C	0.7786966776338559 0.4591166722571598 0.8819263018169176	-0.141146
C	0.4563221849325414 0.6900638713797369 0.1143215194362061	0.106792
C	0.4530013808873956 0.7796611340777188 0.1172908729673393	-0.140610
C	0.5435687751774355 0.3173379804971549 0.1191205860597309	0.106398
C	0.5468293800020331 0.2277748694264023 0.1243907533736780	-0.150872
C	0.1859422982065649 0.0168918246883433 0.6358369226314848	0.108505
C	0.2753376138191245 0.0190324941464877 0.6435624569102867	-0.140008
C	0.6868796638312661 0.5445119691851836 0.1224469819533170	0.111826
C	0.7764110356088009 0.5485112683060671 0.1253452355116564	-0.149031
C	0.8131735166180529 0.0291606016236294 0.6294671550187635	0.102883
C	0.7237395830759789 0.0298879311049523 0.6361566736714379	-0.141284
C	0.3129509118914064 0.4578824241260970 0.1074647285951544	0.105710
C	0.2233563226116722 0.4551253929039491 0.1096539199317037	-0.140899
C	0.9653824308992394 0.8120753859476683 0.6294320347002814	0.105679
C	0.9639147389187369 0.7224639711527447 0.6336917829673114	-0.140630
C	0.9834111655903428 0.1864609400903049 0.6397029253968304	0.094676
C	0.9817400235915458 0.2760166809101488 0.6437929476068303	-0.139345
C	0.0236136109878509 0.8110923092413691 0.3663970771081611	0.103974
C	0.0246862009978220 0.7216383520686693 0.3597197482819887	-0.140563
C	0.0250412856387465 0.1845105661289387 0.3655280824283682	0.108849
C	0.0269258104120649 0.2739634711522405 0.3594484546053766	-0.138641
C	0.0040328620239477 0.3207174070910557 0.5010974157791634	0.039232
C	0.0023304514377105 0.4151671840541277 0.5001813735349722	0.257504
C	0.4995713548340829 0.8250555473171032 0.9982181294724011	0.057432
C	0.5003671947420375 0.9200654226164994 0.0017863496125293	0.246904
C	0.9948201162832219 0.6762176034392305 0.4967688344805532	0.039740
C	0.9972266718178305 0.5815794141408723 0.4976383916232532	0.248256
C	0.5020424035205534 0.1804779903027408 0.0059519260522415	0.057374
C	0.5016005130052954 0.0854374173874820 0.0079359796049500	0.248207
C	0.6785606560589669 -0.0014065928979370 0.5002171100674089	0.038130
C	0.5839510476930838 0.9975381672537852 0.5021335053804314	0.249628
C	0.1785764817116139 0.5024393529267153 0.9926199459934023	0.055825
C	0.0836112948641531 0.5030147401304059 0.9949913956836010	0.248900
C	0.3230038103526441 0.9961783646213147 0.5029573673902130	0.038462
C	0.4174554670085568 0.9962476558931099 0.5042772840246105	0.259474
C	0.8232726666112093 0.5039070015970194 0.0041177026246320	0.056629
C	0.9182992811327407 0.5038211109259880 0.0032951946683275	0.248361
H	0.5739685687858839 0.6506000340329330 0.7849019019269078	0.093717
H	0.5831942883905631 0.8120964479730060 0.7841607605156889	0.123214
H	0.4295797031524929 0.3511551532656106 0.7875630398553330	0.100149
H	0.4232684432527068 0.1892645162849690 0.7891472292490974	0.119829
H	0.8528193593706463 0.9456726012622507 0.2637651945018371	0.095874
H	0.6920988866966249 0.9433626988876822 0.2552518348849552	0.121791
H	0.3539609253554403 0.5793949513116221 0.7873142810106361	0.095900
H	0.1925106851168759 0.5872159044321982 0.7835267550572061	0.124795
H	0.1537284105397863 0.9601761145018142 0.2508885656955173	0.099118
H	0.3140744470507408 0.9553865711016644 0.2479753711487261	0.115255
H	0.6518869756718012 0.4330280869765972 0.7850947063996631	0.100506
H	0.8137175369352720 0.4249650612235846 0.7847651324909017	0.119929
H	0.4254461101071981 0.6522612311838593 0.2105314473969286	0.101176
H	0.4177769187641821 0.8140708247702504 0.2138196001185963	0.119160
H	0.5753006604883488 0.3569009533839253 0.2118657023770318	0.093974
H	0.5825687809205772 0.1955068028745747 0.2203907109661214	0.124526
H	0.1466918084000270 0.0307213387051844 0.7442607804865639	0.095092
H	0.3069469123523262 0.0367446083540414 0.7575512935061316	0.120029
H	0.6477817293989768 0.5743880849718362 0.2190029062590309	0.093280
H	0.8089917237633909 0.5843696399236146 0.2219445231182437	0.123369
H	0.8507731441902293 0.0524252899114182 0.7328221576482670	0.089917
H	0.6898882109559273 0.0536453012196468 0.7451616655656111	0.119973
H	0.3503617258570760 0.4250842333515721 0.2008844941954189	0.099111
H	0.1884167756783803 0.4193134713442301 0.2034505559182974	0.118686
H	0.9424431439085854 0.8502402880004315 0.7343247954111869	0.098808
H	0.9401853747250032 0.6892458055394755 0.7422601083991459	0.121415
H	0.9685068992869357 0.1499702564192374 0.7502193726121443	0.098806
H	0.9641377844454162 0.3102445699263919 0.7564875968870952	0.119264
H	0.0462874198360449 0.8489522638828371 0.2627315297140703	0.090394
H	0.0483066363724488 0.6881039771918047 0.2502913608528466	0.120017
H	0.0389653592370955 0.1457311988362909 0.2565610412638367	0.096740
H	0.0441204436272866 0.3064697769713789 0.2459183937340468	0.120523
N	0.9540423324576434 0.5406480824852451 0.6188642469790333	-0.138736
N	0.4240450088834568 0.0459451114307573 0.0098327853237743	-0.149898
N	0.5425060065578481 0.0416837026072749 0.6230519386424332	-0.140174
N	0.9581235830343312 0.4263654869860407 0.0012068066024036	-0.143929
N	0.0435070935036300 0.5410587479408820 0.3784523608355219	-0.138516
N	0.5785203577083571 0.0446943607713928 0.0086568606338363	-0.150725
N	0.9586789019904435 0.5808939482125948 0.0033699698605669	-0.148493
N	0.5439109618482219 0.9514211335003877 0.3839977613101197	-0.138129
N	0.0468356781789174 0.4561200247011242 0.3807635076354308	-0.136318
N	0.5779021906298393 0.9595815863718419 0.0012775547675733	-0.147379
N	0.4590436590105084 0.9504965551326745 0.3856852913312267	-0.132161
N	0.0437486782570459 0.5804562666131152 0.9950662809716403	-0.151245
N	0.9559761439383677 0.4557410308336626 0.6191648482982191	-0.133157
N	0.4234937555325523 0.9608265683230115 0.0101532822072323	-0.140846
N	0.0432294301597290 0.4259812802674277 0.0002229535307051	-0.147972
N	0.4574877271322714 0.0413260733142454 0.6237575096002488	-0.138598
N	0.0039379408800938 0.1412161883443774 0.5027575738114393	-0.199877
N	0.4992683032292193 0.6454685653923031 0.9966234586989291	-0.244320
N	0.9952707675324293 0.8558832006240268 0.4985544338695756	-0.196012
N	0.5017008253303223 0.3599757115899192 0.0008728000541951	-0.244185
N	0.8581196952049207 -0.0003333460184460 0.4982970916194709	-0.201777
N	0.3580555513067035 0.5016469682325226 0.9931557231273260	-0.241406
N	0.1435022966198937 0.9958581893617596 0.4979397076964555	-0.207011
N	0.6437373724649117 0.5032302754350364 0.0029236731093044	-0.247154
Fe	0.0007540832560647 0.9985629888133056 0.4989399217964329	0.653034
Fe	0.5007765716183454 0.5028044875022620 0.9984431339465144	0.809324
In	-0.0060525667411155 0.9933222389243217 0.9989546596936004	1.545027
In	0.4951754452231172 0.4983318930921835 0.4989457702758681	1.570242
F	0.0019987897350188 -0.0032641006008786 0.2572558241037000	-0.529902
F	0.5073456396508697 0.4983417591440394 0.7573627485955466	-0.537708
F	-0.0036383637273253 0.9989192148789645 0.7405559162747525	-0.529151
F	0.4924413665087417 0.5067564045821895 0.2398280741899186	-0.538890
F	0.9019643782543975 0.9016001906745591 0.0005000901434465	-0.599949
F	0.4073338032877947 0.4023952701638056 0.5027732134406540	-0.617513
F	0.9555528478084813 0.1178431754024838 0.0027736892007809	-0.595089
F	0.4508282957802580 0.6206986356204404 0.5155329562485506	-0.617692
F	0.1185336374972133 0.9554658187867955 -0.0056503181968610	-0.595395
F	0.6209566821753829 0.4648584829796359 0.4803883833307181	-0.618306
	  	
