#======================================================================

# CRYSTAL DATA

#----------------------------------------------------------------------

data_VESTA_phase_1


_pd_phase_name                         NbOFFIVE_18_Cu
_cell_length_a                         13.79225
_cell_length_b                         13.74740
_cell_length_c                         8.55878
_cell_angle_alpha                      89.25407
_cell_angle_beta                       95.26424
_cell_angle_gamma                      90.16479
_symmetry_space_group_name_H-M         P 1
_symmetry_Int_Tables_number            1

loop_
_symmetry_equiv_pos_as_xyz
   x, y, z

loop_
   _atom_site_label
   _atom_site_fract_x
   _atom_site_fract_y
   _atom_site_fract_z
   _atom_site_charge
F	0.3921184314668804 0.3631182153185735 0.5078989028547563	-0.578897
F	0.5154843326628676 0.4709275150290665 0.7229235033887483	-0.636083
F	0.3961032680175012 0.5606379195157466 0.5141268423041546	-0.567538
F	0.8921184984668827 0.8631181813185780 0.5078989028547563	-0.578891
F	0.0154843056628687 0.9709274460290721 0.7229235033887483	-0.636081
F	0.8961032010174996 0.0606379405157455 0.5141268423041546	-0.567536
F	0.5803362700026935 0.3464490147835446 0.4961961022918599	-0.581561
F	0.6095083321644971 0.5462410911293809 0.4926596984617755	-0.571578
F	0.0803362960026960 0.8464489807835487 0.4961961022918599	-0.581555
F	0.1095083241644965 0.0462411121293787 0.4926596984617755	-0.571576
O	0.4806241714814781 0.4722416819025097 0.2720127436859710	-0.931512
O	0.9806241384814788 0.9722416129025142 0.2720127436859710	-0.931508
C	0.6902636379531027 0.1606209440372679 0.6687277931505883	-0.429919
C	0.7629480810168728 0.1552304052777876 0.8080739300515020	0.213671
C	0.7656880727695893 0.1997179702895365 0.9548114517658964	-0.149356
C	0.6934554953995964 0.2648748305694532 0.0111768739355019	-0.145788
C	0.6741632420457883 0.3629808220929503 0.9652663131727905	0.222114
C	0.7264848204153542 0.4245951237119219 0.8557948230743868	-0.431382
C	0.8917127513394354 0.1947071447518843 0.2009735604432810	-0.434425
C	0.8530331840382731 0.1673965122797627 0.0394596353111394	0.217267
C	0.6297461356764020 0.2430296134612150 0.1253854380570116	0.215651
C	0.6145531479019122 0.1521535410684424 0.2161530511642054	-0.426235
C	0.1902636549531003 0.6606209780372641 0.6687277931505883	-0.429919
C	0.2629481150168692 0.6552304392777909 0.8080739300515020	0.213665
C	0.2656881237695896 0.6997180042895323 0.9548114517658965	-0.149343
C	0.1934555293995919 0.7648748305694537 0.0111768739355019	-0.145786
C	0.1741632170457823 0.8629808560929522 0.9652663131727905	0.222118
C	0.2264848704153509 0.9245951577119170 0.8557948230743868	-0.431382
C	0.3917126843394334 0.6947071277518797 0.2009735604432810	-0.434426
C	0.3530332510382754 0.6673965122797620 0.0394596353111393	0.217264
C	0.1297461356764085 0.7430296304612130 0.1253854380570116	0.215637
C	0.1145530889019180 0.6521535580684408 0.2161530511642054	-0.426229
C	0.3141467054757495 0.1640562916290082 0.3312170363409105	-0.425532
C	0.2398614978506525 0.1560058792115834 0.1945428194058048	0.211119
C	0.2355346671371253 0.1986525502251365 0.0443676516204449	-0.148500
C	0.3066370148997389 0.2653922633819321 0.9857602277966929	-0.145026
C	0.3242270710035639 0.3630905749247945 0.0315897665245605	0.222648
C	0.2677342827808994 0.4230975316397658 0.1347061880153540	-0.429173
C	0.1076575839906882 0.1892050570920545 0.8010297774985723	-0.438980
C	0.1478157276558440 0.1646256282320483 0.9640386549445465	0.217328
C	0.3729643618486514 0.2459367150260605 0.8753365032863694	0.216560
C	0.3901338222066000 0.1571430893224711 0.7842933604343097	-0.427208
C	0.8141467384757494 0.6640563256290045 0.3312170363409105	-0.425499
C	0.7398615308506518 0.6560059132115862 0.1945428194058049	0.211123
C	0.7355347011371282 0.6986525842251324 0.0443676516204449	-0.148472
C	0.8066370488997417 0.7653922633819322 0.9857602277966929	-0.145029
C	0.8242270370035674 0.8630906089247973 0.0315897665245605	0.222649
C	0.7677343507808976 0.9230975656397608 0.1347061880153540	-0.429172
C	0.6076575209906869 0.6892050400920496 0.8010297774985723	-0.438981
C	0.6478157786558448 0.6646256282320485 0.9640386549445465	0.217321
C	0.8729643618486516 0.7459367320260580 0.8753365032863694	0.216560
C	0.8901337552065982 0.6571431063224694 0.7842933604343097	-0.427210
H	0.7262163885880938 0.1724624724797517 0.5608845978130436	0.153561
H	0.6393432973472503 0.2205962916072882 0.6794348234581051	0.151675
H	0.6485918620879699 0.0923570011152963 0.6551983995548364	0.134680
H	0.6754755635793447 0.4655101055112675 0.7743656710220486	0.148136
H	0.7718762869356384 0.3789509528151622 0.7878856274181020	0.139437
H	0.7741993211464219 0.4768949942933400 0.9220983672189716	0.129379
H	0.8704077663059048 0.0665325380634506 0.7171587892378259	0.283277
H	0.8824470265162353 0.1363317373002458 0.2870084189916659	0.146137
H	0.8530674174631981 0.2592054377961989 0.2370155597366638	0.136125
H	0.9698817583910272 0.2109111420805502 0.2060308162000656	0.143381
H	0.5900737631913058 0.1686660454352480 0.3312532998299141	0.150267
H	0.6821064422003192 0.1100578873999243 0.2337641033315731	0.151828
H	0.5591011484207888 0.1055782685999419 0.1534735886419174	0.133325
H	0.5287765208361004 0.3409018257264335 0.2195622284025871	0.266479
H	0.2262163545880982 0.6724624724797527 0.5608845978130436	0.153562
H	0.1393433063472478 0.7205962406072878 0.6794348234581051	0.151675
H	0.1485918360879674 0.5923569841152981 0.6551983995548364	0.134681
H	0.1754755975793410 0.9655101395112712 0.7743656710220486	0.148135
H	0.2718763369356354 0.8789509868151646 0.7878856274181020	0.139436
H	0.2741993211464211 0.9768949592933337 0.9220983672189716	0.129377
H	0.3704078333059071 0.5665325290634535 0.7171587892378259	0.283281
H	0.3824470265162350 0.6363317373002462 0.2870084189916659	0.146137
H	0.3530674174631986 0.7592054027961995 0.2370155597366638	0.136128
H	0.4698817583910269 0.7109111590805485 0.2060308162000656	0.143383
H	0.0900737421913074 0.6686660624352455 0.3312532998299141	0.150264
H	0.1821064922003162 0.6100578793999308 0.2337641033315731	0.151827
H	0.0591011104207846 0.6055782165999375 0.1534735886419174	0.133322
H	0.0287765068360987 0.8409018607264330 0.2195622284025871	0.266479
H	0.2802991703896131 0.1788310056066150 0.4395701034573629	0.154202
H	0.3647680089825875 0.2236352383507067 0.3122285845696988	0.145065
H	0.3559891111348719 0.0961678302966348 0.3497001814584995	0.134805
H	0.3160513870032799 0.4685802424659798 0.2117832048416257	0.143707
H	0.2247571759335948 0.3763486451479511 0.2069962495913622	0.140803
H	0.2173095647984558 0.4711093850797465 0.0627931522379033	0.130206
H	0.1348482625054499 0.0665604521075288 0.2951295100882726	0.278901
H	0.1108215471443637 0.1274216697306201 0.7217552092576949	0.150097
H	0.1496565209877397 0.2494587382250660 0.7554114537426705	0.137902
H	0.0309961076955565 0.2110803437899459 0.7977767406447590	0.143272
H	0.4160768711835975 0.1766908177952478 0.6704965315627288	0.151089
H	0.3228499873202492 0.1147345610045629 0.7635641357003278	0.151806
H	0.4451611950379711 0.1098188685358288 0.8479770544123110	0.133599
H	0.4747864129950281 0.3470855706919493 0.7858266990006221	0.274336
H	0.7802992043896163 0.6788310056066141 0.4395701034573629	0.154194
H	0.8647680089825878 0.7236351873507060 0.3122285845696988	0.145059
H	0.8559890781348723 0.5961678132966366 0.3497001814584995	0.134801
H	0.8160514200032785 0.9685802764659822 0.2117832048416257	0.143704
H	0.7247572099335982 0.8763486791479538 0.2069962495913621	0.140800
H	0.7173095477984580 0.9711093500797398 0.0627931522379033	0.130203
H	0.6348483045054532 0.5665604431075315 0.2951295100882727	0.278910
H	0.6108215891443671 0.6274216697306203 0.7217552092576949	0.150098
H	0.6496565379877371 0.7494587032250668 0.7554114537426705	0.137902
H	0.5309960866955583 0.7110803607899440 0.7977767406447590	0.143272
H	0.9160768711835972 0.6766908347952459 0.6704965315627288	0.151087
H	0.8228500553202478 0.6147345530045693 0.7635641357003278	0.151805
H	0.9451611950379717 0.6098188165358248 0.8479770544123110	0.133598
H	0.9747864129950280 0.8470856056919495 0.7858266990006221	0.274333
N	0.8439293159780149 0.0999995262006517 0.8112348767119523	-0.145793
N	0.6020839305502769 0.3974189662956403 0.0451034953470558	-0.235168
N	0.8995794315497055 0.1066263566164400 0.9496341696606500	-0.236869
N	0.5770941852446544 0.3241101331912103 0.1404095650277022	-0.143002
N	0.3439292489780136 0.5999995092006465 0.8112348767119523	-0.145795
N	0.1020839475502749 0.8974190012956396 0.0451034953470558	-0.235174
N	0.3995793975497026 0.6066263906164354 0.9496341696606500	-0.236868
N	0.0770941852446547 0.8241101331912098 0.1404095650277022	-0.143001
N	0.1592508445247533 0.1002940644505400 0.1977423879641180	-0.143701
N	0.3981223170416027 0.3993911646286615 0.9561413250707079	-0.233084
N	0.1024598147108776 0.1048692448322203 0.0598595416454881	-0.236005
N	0.4256835587068588 0.3277336985528588 0.8631001267912761	-0.147169
N	0.6592508445247530 0.6002940474505351 0.1977423879641180	-0.143759
N	0.8981223170416024 0.8993911996286613 0.9561413250707079	-0.233086
N	0.6024598397108758 0.6048692788322153 0.0598595416454881	-0.235990
N	0.9256835587068588 0.8277336985528594 0.8631001267912761	-0.147164
Nb	0.4935003943280152 0.4589412699160859 0.4807546241597218	2.398484
Nb	-0.0064996036719846 0.9589413389160810 0.4807546241597218	2.398479
Cu	0.4994241770415493 0.5047375563593267 0.0113544492170374	0.747166
Cu	-0.0005758229584505 0.0047375603593272 0.0113544492170374	0.747163
	  	
