#======================================================================

# CRYSTAL DATA

#----------------------------------------------------------------------

data_VESTA_phase_1


_pd_phase_name                         NbOFFIVE_14_Cd_i
_cell_length_a                         13.74382
_cell_length_b                         13.72944
_cell_length_c                         8.32289
_cell_angle_alpha                      89.82104
_cell_angle_beta                       89.80483
_cell_angle_gamma                      90.40327
_symmetry_space_group_name_H-M         P 1
_symmetry_Int_Tables_number            1

loop_
_symmetry_equiv_pos_as_xyz
   x, y, z

loop_
   _atom_site_label
   _atom_site_fract_x
   _atom_site_fract_y
   _atom_site_fract_z
   _atom_site_charge
C	0.5781284479282288 0.2639448411753928 0.3593224187078547	-0.183847
C	0.4772791781174899 0.2685533547587983 0.3625167048893507	0.110261
C	0.9340438972474302 0.2875781069893275 0.4142795184939640	-0.167728
C	0.0345429540318904 0.2803036074814590 0.3999658990439719	0.111430
C	0.2621752076798114 0.5781147514901034 0.3623275648624102	-0.185166
C	0.2668545104420221 0.4771264986695269 0.3655995196946474	0.111759
C	0.2957643336478947 0.9343242865574102 0.4098232090557252	-0.169983
C	0.2871356304130861 0.0348480153609179 0.3965198116529097	0.111438
C	0.9219958319253356 0.2384575166635385 0.1363380114670217	-0.184630
C	0.0229562935241132 0.2343736962563826 0.1321072416765538	0.111960
C	0.5658679411832548 0.2073795291696882 0.0853042583170287	-0.167139
C	0.4652820323467506 0.2154588106503446 0.0983280149616654	0.113525
C	0.2087795901457769 0.5659772967662218 0.0866057921477490	-0.171556
C	0.2172437076172226 0.4653776750405638 0.0995334752331345	0.112852
C	0.2354282803819163 0.9219175320994093 0.1381320567668237	-0.182778
C	0.2307678139528092 0.0229614264751376 0.1343019032376503	0.112151
C	0.4223630767923993 0.7370739125927318 0.6388936485308556	-0.181807
C	0.5233028786131869 0.7350303290791745 0.6333642782702631	0.111204
C	0.0657694620067843 0.7294567433022811 0.5753521363510198	-0.160787
C	0.9650196548313178 0.7315992625468174 0.5915715909056151	0.117004
C	0.7378985102675848 0.4221986231929571 0.6376794452127754	-0.182013
C	0.7349385404869029 0.5232526177201031 0.6327419837702853	0.112430
C	0.7172497518672596 0.0652948170032299 0.5796008818870017	-0.163758
C	0.7229659762154492 0.9645202180124491 0.5941570942372617	0.114773
C	0.0779147044468346 0.7606129208161879 0.8604690709225066	-0.182435
C	0.9770438962082963 0.7620715197282601 0.8655630097939844	0.110619
C	0.4346951594318489 0.7760762884470139 0.9212830815483141	-0.162693
C	0.5353574562746733 0.7732114341557605 0.9045814521813491	0.116800
C	0.7770222057860390 0.4343092605051236 0.9200269864009298	-0.166272
C	0.7723560580567914 0.5350114496058151 0.9043006840104938	0.114855
C	0.7643950093155270 0.0776266511326852 0.8585325712969512	-0.180543
C	0.7681784406130123 0.9767012711503126 0.8624194035118261	0.109007
C	0.6234840634903178 0.2338855609786450 0.2166077402741829	0.189134
C	0.8765329011041653 0.2642895244775097 0.2812029354698197	0.191543
C	0.2336435098913282 0.6235278877128687 0.2189019840800957	0.192904
C	0.2673556707206968 0.8766066057183592 0.2796401767707528	0.190944
C	0.3770236821139326 0.7574046442638492 0.7864817400068503	0.190008
C	0.1233222075720732 0.7444911336294788 0.7114918042827617	0.189172
C	0.7585204892717262 0.3767341159061887 0.7849753170020973	0.191077
C	0.7391542185828481 0.1229651794202898 0.7131406497261588	0.188079
H	0.6210787837107971 0.2799299054690449 0.4657672778535878	0.104703
H	0.4380357279185561 0.2901224232625215 0.4708413745341493	0.100633
H	0.9008256510784138 0.3098507725918815 0.5270111393763365	0.126920
H	0.0820653525045042 0.2964106239175140 0.5012297376219529	0.091536
H	0.2768099524807616 0.6213337091175998 0.4690805366176989	0.107715
H	0.2871604878067168 0.4377922105945143 0.4745129338936799	0.099410
H	0.3227920861770890 0.9011394923440245 0.5196574779585551	0.127517
H	0.3065538579213666 0.0825850478649135 0.4960112393607858	0.092181
H	0.8788157741652982 0.2251787158742903 0.0290738778219663	0.105502
H	0.0619644426774588 0.2156914612887338 0.0220752922355233	0.104296
H	0.5992218696306911 0.1817561535697858 0.9746567035648416	0.126139
H	0.4178552735283183 0.1968990110227511 0.9980281881370852	0.099460
H	0.1846026327730659 0.5994484887886871 0.9751592906626542	0.126801
H	0.2003758502867425 0.4180079049289173 0.9982938532376647	0.099496
H	0.2179161756363630 0.8785038580584729 0.0328245568237007	0.107589
H	0.2078309887045152 0.0618699685981662 0.0264816175594670	0.103796
H	0.3795407770530117 0.7255370339082101 0.5306506494231810	0.100610
H	0.5622912125817665 0.7198696550890585 0.5218348358460823	0.104791
H	0.0991460663189189 0.7163616296012006 0.4587790407794169	0.124571
H	0.9176606203597497 0.7194227767003593 0.4887962705772528	0.096657
H	0.7273478915096114 0.3792291467749928 0.5292343065247682	0.101751
H	0.7198358625713734 0.5623646795290914 0.5213237635572369	0.104533
H	0.6963781168327400 0.0986844966876097 0.4662771737547429	0.125793
H	0.7064644759003025 0.9170484301177668 0.4929886209163761	0.097025
H	0.1205864645686484 0.7692365613816808 0.9696579313570838	0.099694
H	0.9376547601720779 0.7739963300795970 0.9778576300890538	0.100052
H	0.4015845338246957 0.7925216432082733 0.0368377045247400	0.126479
H	0.5829971350726411 0.7880824013446445 0.0061100627184703	0.087821
H	0.7942559135464355 0.4010534241811528 0.0351488217971902	0.127302
H	0.7862219076404959 0.5825856244383573 0.0063678650340521	0.088977
H	0.7777906274897097 0.1204130738776920 0.9662499355609993	0.101447
H	0.7866402711704299 0.9373329133115860 0.9721812535258934	0.101716
N	0.7746061740216909 0.2728083139817737 0.2995680448031661	-0.103089
N	0.2772068355979471 0.7745437086525220 0.2961880260564346	-0.103611
N	0.7254557174951203 0.2247235402503515 0.1985858413490520	-0.103422
N	0.2238538508294735 0.7255344166176499 0.2024896919727812	-0.104467
N	0.2252032136323689 0.7395853886715370 0.6882175887271992	-0.101262
N	0.7313043935624239 0.2249379043554498 0.6920467432252938	-0.101632
N	0.2751202761743800 0.7627348097193314 0.8097958548357275	-0.102952
N	0.7656009831323199 0.2747927844645361 0.8063957595751322	-0.102417
N	0.4220460298990525 0.2457856876221774 0.2342735918149320	-0.227573
N	0.0780921278397501 0.2538625288130472 0.2619939731933720	-0.228937
N	0.2458640176063701 0.4219808110380769 0.2364485870695756	-0.228764
N	0.2550257493622217 0.0782325409292058 0.2617882439359496	-0.229381
N	0.5786724247521716 0.7526088984198638 0.7638853702576572	-0.228739
N	0.9217559489585648 0.7479763115290623 0.7338837179292492	-0.226846
N	0.7514250103183173 0.5784906500176998 0.7638147270519173	-0.228050
N	0.7482592665040886 0.9213538052708392 0.7328438098089617	-0.225572
F	0.3486203401848606 0.1471035207963237 0.7620359725452618	-0.595274
F	0.1517259903791340 0.3510008679894137 0.7601604047941686	-0.595218
F	0.3507006222610282 0.3469197848428060 0.7928667256868439	-0.599668
F	0.1489995914939022 0.1515282094628363 0.7339650498422597	-0.599782
F	0.6488227156954475 0.8499657667008834 0.2615144698857079	-0.591606
F	0.8499060042371367 0.6507615192927844 0.2608611665480459	-0.592186
F	0.6507642552381470 0.6506435815029739 0.2307485829972221	-0.595831
F	0.8482436841741041 0.8497029259348778 0.2956937513213629	-0.595940
F	0.2348810480920043 0.2353659151324893 -0.0132969217023701	-0.625217
F	0.7343400279653794 0.7345995679998664 0.4864912629354333	-0.623850
O	0.2649946892935244 0.2626430019946240 0.5226039950100241	-0.949585
O	0.7644928291172418 0.7654544528158204 0.0228347712767420	-0.945983
Nb	0.2517279590759441 0.2504689978784407 0.7366175243301000	2.459722
Nb	0.7510040085855613 0.7520198874767502 0.2365660488835892	2.452075
Cd	0.2505017524444101 0.2505337627163073 0.2566404646776339	0.851854
Cd	0.7507481449166180 0.7504175268842416 0.7565210614627778	0.848499
	  	
