#======================================================================

# CRYSTAL DATA

#----------------------------------------------------------------------

data_VESTA_phase_1


_pd_phase_name                         NbOFFIVE_2_Ni_i
_cell_length_a                         14.15240
_cell_length_b                         14.15240
_cell_length_c                         7.93488
_cell_angle_alpha                      90
_cell_angle_beta                       90
_cell_angle_gamma                      90
_symmetry_space_group_name_H-M         P 1
_symmetry_Int_Tables_number            1

loop_
_symmetry_equiv_pos_as_xyz
   x, y, z

loop_
   _atom_site_label
   _atom_site_fract_x
   _atom_site_fract_y
   _atom_site_fract_z
   _atom_site_charge
C	0.0000000000000000 0.3054466541525555 0.3467666249840025	-0.163130
C	0.0000000000000000 0.2073424164056586 0.3539285090564256	0.113227
C	0.5000000000000000 0.8054466541525559 0.8467665949840072	-0.163141
C	0.5000000000000000 0.7073424164056589 0.8539284500564241	0.113230
C	0.0000000000000000 0.6945533458474441 0.3467666249840025	-0.163132
C	0.0000000000000000 0.7926575835943411 0.3539285090564256	0.113230
C	0.5000000000000000 0.1945533458474445 0.8467665949840072	-0.163143
C	0.5000000000000000 0.2926575835943415 0.8539284500564241	0.113232
C	0.6945533458474441 -0.0000000000000000 0.3467666249840025	-0.163130
C	0.7926575835943411 -0.0000000000000000 0.3539285090564256	0.113231
C	0.1945533458474445 0.5000000000000000 0.8467665949840072	-0.163141
C	0.2926575835943415 0.5000000000000000 0.8539284500564241	0.113233
C	0.3054466541525555 -0.0000000000000000 0.3467666249840025	-0.163133
C	0.2073424164056586 -0.0000000000000000 0.3539285090564256	0.113233
C	0.8054466541525559 0.5000000000000000 0.8467665949840072	-0.163143
C	0.7073424164056589 0.5000000000000000 0.8539284500564241	0.113235
C	0.0000000000000000 0.3064171640974479 0.6510125161108705	-0.165167
C	0.0000000000000000 0.2084008221983631 0.6454709838154327	0.117014
C	0.5000000000000000 0.8064171640974481 0.1510124861108751	-0.165177
C	0.5000000000000000 0.7084008221983630 0.1454709398154367	0.117010
C	0.0000000000000000 0.6935828359025519 0.6510125161108705	-0.165169
C	0.0000000000000000 0.7915991778016370 0.6454709838154327	0.117017
C	0.5000000000000000 0.1935828359025522 0.1510124861108751	-0.165179
C	0.5000000000000000 0.2915991778016367 0.1454709398154367	0.117012
C	0.3064171640974479 -0.0000000000000000 0.6510125161108705	-0.165169
C	0.2084008221983631 -0.0000000000000000 0.6454709838154327	0.117019
C	0.8064171640974481 0.5000000000000000 0.1510124861108751	-0.165179
C	0.7084008221983630 0.5000000000000000 0.1454709398154367	0.117015
C	0.6935828359025519 -0.0000000000000000 0.6510125161108705	-0.165167
C	0.7915991778016370 -0.0000000000000000 0.6454709838154327	0.117017
C	0.1935828359025522 0.5000000000000000 0.1510124861108751	-0.165177
C	0.2915991778016367 0.5000000000000000 0.1454709398154367	0.117013
C	0.0000000000000000 0.4569314360341652 0.4977231083505503	-0.096477
C	0.0000000000000000 0.3570186819281347 0.4983480416293556	0.161730
C	0.5000000000000000 0.9569314010341662 -0.0022768916494498	-0.096483
C	0.5000000000000000 0.8570186469281357 -0.0016519583706445	0.161768
C	0.0000000000000000 0.5430685639658345 0.4977231083505503	-0.096221
C	0.0000000000000000 0.6429813530718643 0.4983480416293556	0.161700
C	0.5000000000000000 0.0430685769658393 -0.0022768916494498	-0.096227
C	0.5000000000000000 0.1429813360718668 -0.0016519583706445	0.161738
C	0.5430685639658345 -0.0000000000000000 0.4977231083505503	-0.096477
C	0.6429813530718643 -0.0000000000000000 0.4983480416293556	0.161730
C	0.0430685769658393 0.5000000000000000 -0.0022768916494498	-0.096483
C	0.1429813360718668 0.5000000000000000 -0.0016519583706445	0.161768
C	0.4569314360341652 -0.0000000000000000 0.4977231083505503	-0.096221
C	0.3570186819281347 -0.0000000000000000 0.4983480416293556	0.161700
C	0.9569314010341662 0.5000000000000000 -0.0022768916494498	-0.096227
C	0.8570186469281357 0.5000000000000000 -0.0016519583706445	0.161738
H	0.0000000000000000 0.3418328269210627 0.2258968446377033	0.120122
H	0.0000000000000000 0.1654190822384908 0.2390228803704226	0.091611
H	0.5000000000000000 0.8418328609210652 0.7258968596377013	0.120123
H	0.5000000000000000 0.6654191172384906 0.7390228653704246	0.091612
H	0.0000000000000000 0.6581671390789348 0.2258968446377033	0.120121
H	0.0000000000000000 0.8345808827615094 0.2390228803704226	0.091611
H	0.5000000000000000 0.1581671560789396 0.7258968596377013	0.120122
H	0.5000000000000000 0.3345809177615094 0.7390228653704246	0.091612
H	0.6581671390789348 -0.0000000000000000 0.2258968446377033	0.120122
H	0.8345808827615094 -0.0000000000000000 0.2390228803704226	0.091611
H	0.1581671560789396 0.5000000000000000 0.7258968596377013	0.120123
H	0.3345809177615094 0.5000000000000000 0.7390228653704246	0.091612
H	0.3418328269210627 -0.0000000000000000 0.2258968446377033	0.120121
H	0.1654190822384908 -0.0000000000000000 0.2390228803704226	0.091611
H	0.8418328609210652 0.5000000000000000 0.7258968596377013	0.120122
H	0.6654191172384906 0.5000000000000000 0.7390228653704246	0.091612
H	0.0000000000000000 0.3433938218073933 0.7713156435325578	0.119617
H	0.0000000000000000 0.1672085968898060 0.7611630616509931	0.081616
H	0.5000000000000000 0.8433938558073960 0.2713156725325568	0.119604
H	0.5000000000000000 0.6672086318898057 0.2611630326509940	0.081617
H	0.0000000000000000 0.6566061441926040 0.7713156435325578	0.119615
H	0.0000000000000000 0.8327913681101943 0.7611630616509931	0.081616
H	0.5000000000000000 0.1566061611926090 0.2713156725325568	0.119603
H	0.5000000000000000 0.3327914031101940 0.2611630326509940	0.081617
H	0.3433938218073933 -0.0000000000000000 0.7713156435325578	0.119616
H	0.1672085968898060 -0.0000000000000000 0.7611630616509931	0.081616
H	0.8433938558073960 0.5000000000000000 0.2713156725325568	0.119603
H	0.6672086318898057 0.5000000000000000 0.2611630326509940	0.081616
H	0.6566061441926040 -0.0000000000000000 0.7713156435325578	0.119617
H	0.8327913681101943 -0.0000000000000000 0.7611630616509931	0.081616
H	0.1566061611926090 0.5000000000000000 0.2713156725325568	0.119604
H	0.3327914031101940 0.5000000000000000 0.2611630326509940	0.081616
Ni	0.0000000000000000 -0.0000000000000000 0.5053789042097881	0.846170
Ni	0.5000000000000000 0.5000000000000000 0.0053789042097882	0.846170
Nb	0.0000000000000000 -0.0000000000000000 -0.0186284991978021	2.427848
Nb	0.5000000000000000 0.5000000000000000 0.4813715008021981	2.427848
N	0.0000000000000000 0.1590448458665212 0.5003130907529774	-0.239071
N	0.5000000000000000 0.6590448458665215 0.0003130907529773	-0.239072
N	0.0000000000000000 0.8409551541334785 0.5003130907529774	-0.239071
N	0.5000000000000000 0.3409551541334788 0.0003130907529773	-0.239071
N	0.8409551541334785 -0.0000000000000000 0.5003130907529774	-0.239073
N	0.3409551541334788 0.5000000000000000 0.0003130907529773	-0.239073
N	0.1590448458665212 -0.0000000000000000 0.5003130907529774	-0.239072
N	0.6590448458665215 0.5000000000000000 0.0003130907529773	-0.239073
O	0.0000000000000000 -0.0000000000000000 0.7547877846275650	-0.938039
O	0.5000000000000000 0.5000000000000000 0.2547877556275663	-0.938039
F	0.0000000000000000 -0.0000000000000000 0.2525195702679578	-0.615144
F	0.5000000000000000 0.5000000000000000 0.7525195262679613	-0.615144
F	0.5966963726525150 0.5966963726525150 0.5105243551318270	-0.571414
F	0.5966963726525150 0.4033035923474857 0.5105243551318270	-0.571414
F	0.4033035923474857 0.5966963726525150 0.5105243551318270	-0.571414
F	0.4033035923474857 0.4033035923474857 0.5105243551318270	-0.571414
F	0.0966963806525157 0.0966963806525157 0.0105243551318271	-0.571414
F	0.9033036273474850 0.9033036273474850 0.0105243551318271	-0.571414
F	0.9033036273474850 0.0966963806525157 0.0105243551318271	-0.571414
F	0.0966963806525157 0.9033036273474850 0.0105243551318271	-0.571414
	  	
