#======================================================================

# CRYSTAL DATA

#----------------------------------------------------------------------

data_VESTA_phase_1


_pd_phase_name                         NbOFFIVE_6_Ni_i
_cell_length_a                         17.73302
_cell_length_b                         17.73302
_cell_length_c                         15.48862
_cell_angle_alpha                      90
_cell_angle_beta                       90
_cell_angle_gamma                      90
_symmetry_space_group_name_H-M         P 1
_symmetry_Int_Tables_number            1

loop_
_symmetry_equiv_pos_as_xyz
   x, y, z

loop_
   _atom_site_label
   _atom_site_fract_x
   _atom_site_fract_y
   _atom_site_fract_z
   _atom_site_charge
N	0.2436391084679190 0.1313352081964662 0.1274142261212698	-0.230629
N	0.2563608915320809 0.3686648048035384 0.1274142261212698	-0.230629
N	0.3686648048035384 0.2436391084679190 0.1274142261212698	-0.230629
N	0.1313352081964662 0.2563608915320809 0.1274142261212698	-0.230629
N	0.7557604535820147 0.6312736051568888 0.3712882558898460	-0.230895
N	0.7442395464179853 0.8687263948431112 0.3712882558898460	-0.230901
N	0.6312736051568888 0.7442395464179853 0.3712882558898460	-0.230895
N	0.8687263948431112 0.7557604535820147 0.3712882558898460	-0.230900
N	0.7557604535820147 0.8687263948431112 0.8712882558898460	-0.230902
N	0.7442395464179853 0.6312736051568888 0.8712882558898460	-0.230896
N	0.6312736051568888 0.7557604535820147 0.8712882558898460	-0.230896
N	0.8687263948431112 0.7442395464179853 0.8712882558898460	-0.230902
N	0.2436391084679190 0.3686648048035384 0.6274142261212697	-0.230630
N	0.2563608915320809 0.1313352081964662 0.6274142261212697	-0.230630
N	0.3686648048035384 0.2563608915320809 0.6274142261212697	-0.230630
N	0.1313352081964662 0.2436391084679190 0.6274142261212697	-0.230630
C	0.2001684908365219 0.0949321164822608 0.1850932838674552	0.102764
C	0.1921762556935921 0.0170181897540132 0.1850498517630342	-0.182520
C	0.2325403186486177 0.9738130613433389 0.1249821764348026	0.110146
C	0.2789677704740952 0.0122980634189332 0.0664451079567976	-0.180654
C	0.2819892668409177 0.0906389610349284 0.0687454122114301	0.103986
C	0.2265167488877693 0.8910230075955989 0.1238110874177557	0.061412
C	0.2909382522688614 0.8469712007893694 0.1209350463771962	-0.173192
C	0.2864702507284578 0.7674910295231016 0.1220386368647671	0.085630
C	0.1480771831103876 0.7785517992319965 0.1246753770259562	-0.123302
C	0.1544283814685705 0.8558285515735997 0.1268079758753834	-0.137021
C	0.2998315221634827 0.4050678635177374 0.1850932838674552	0.102764
C	0.3078237573064125 0.4829818202459806 0.1850498517630342	-0.182520
C	0.2674596813513825 0.5261869386566611 0.1249821764348026	0.110146
C	0.2210322295259046 0.4877019515810644 0.0664451079567976	-0.180654
C	0.2180107331590823 0.4093610319650675 0.0687454122114301	0.103986
C	0.2734832511122306 0.6089769924044011 0.1238110874177557	0.061412
C	0.2090617347311412 0.6530287992106306 0.1209350463771962	-0.173193
C	0.2135297492715423 0.7325089704768984 0.1220386368647671	0.085638
C	0.3519228168896124 0.7214482007680035 0.1246753770259562	-0.123296
C	0.3455716185314295 0.6441714484264003 0.1268079758753834	-0.137022
C	0.4050678635177374 0.2001684908365219 0.1850932838674552	0.102763
C	0.4829818202459806 0.1921762556935921 0.1850498517630342	-0.182520
C	0.5261869386566611 0.2325403186486177 0.1249821764348026	0.110146
C	0.4877019515810644 0.2789677704740952 0.0664451079567976	-0.180654
C	0.4093610319650675 0.2819892668409177 0.0687454122114301	0.103986
C	0.6089769924044011 0.2265167488877693 0.1238110874177557	0.061412
C	0.6530287992106306 0.2909382522688614 0.1209350463771962	-0.173193
C	0.7325089704768984 0.2864702507284578 0.1220386368647671	0.085630
C	0.7214482007680035 0.1480771831103876 0.1246753770259562	-0.123302
C	0.6441714484264003 0.1544283814685705 0.1268079758753834	-0.137021
C	0.0949321164822608 0.2998315221634827 0.1850932838674552	0.102764
C	0.0170181897540132 0.3078237573064125 0.1850498517630342	-0.182520
C	0.9738130613433389 0.2674596813513825 0.1249821764348026	0.110146
C	0.0122980634189332 0.2210322295259046 0.0664451079567976	-0.180653
C	0.0906389610349284 0.2180107331590823 0.0687454122114301	0.103985
C	0.8910230075955989 0.2734832511122306 0.1238110874177557	0.061413
C	0.8469712007893694 0.2090617347311412 0.1209350463771962	-0.173193
C	0.7674910295231016 0.2135297492715423 0.1220386368647671	0.085638
C	0.7785517992319965 0.3519228168896124 0.1246753770259562	-0.123296
C	0.8558285515735997 0.3455716185314295 0.1268079758753834	-0.137022
C	0.7994862496286269 0.5948866246363320 0.3138289744912252	0.101725
C	0.8079015167983452 0.5169392484437195 0.3145361395054630	-0.181704
C	0.7676523718377108 0.4738125154340749 0.3747926617977807	0.110040
C	0.7210897611274348 0.5123676888140317 0.4331199673095624	-0.180467
C	0.7176282284810177 0.5905844935770965 0.4301358662101390	0.104280
C	0.7735803520260455 0.3910195247598562 0.3761881910071102	0.061511
C	0.7091030717602193 0.3470093478547497 0.3790843026275367	-0.173373
C	0.7135398026421924 0.2675050327642561 0.3779935637503740	0.085915
C	0.8519387645878131 0.2785099856577868 0.3753558455557889	-0.123129
C	0.8456188537092987 0.3557861184934927 0.3732085213797482	-0.136851
C	0.7005137503713731 0.9051133753636680 0.3138289744912252	0.101750
C	0.6920984832016548 0.9830607515562805 0.3145361395054630	-0.181785
C	0.7323476281622892 0.0261875065659269 0.3747926617977807	0.110110
C	0.7789102388725652 0.9876323641859691 0.4331199673095624	-0.180523
C	0.7823717715189823 0.9094155064229035 0.4301358662101390	0.104294
C	0.7264196479739545 0.1089804752401437 0.3761881910071102	0.061531
C	0.7908969282397807 0.1529906391452530 0.3790843026275367	-0.173378
C	0.7864601973578076 0.2324949672357440 0.3779935637503740	0.085924
C	0.6480612354121869 0.2214900143422132 0.3753558455557889	-0.123122
C	0.6543811462907013 0.1442138555065053 0.3732085213797482	-0.136857
C	0.5948866246363320 0.7005137503713731 0.3138289744912252	0.101725
C	0.5169392484437195 0.6920984832016548 0.3145361395054630	-0.181703
C	0.4738125154340749 0.7323476281622892 0.3747926617977807	0.110039
C	0.5123676888140317 0.7789102388725652 0.4331199673095624	-0.180466
C	0.5905844935770965 0.7823717715189823 0.4301358662101390	0.104280
C	0.3910195247598562 0.7264196479739545 0.3761881910071102	0.061511
C	0.3470093478547497 0.7908969282397807 0.3790843026275367	-0.173373
C	0.2675050327642561 0.7864601973578076 0.3779935637503740	0.085915
C	0.2785099856577868 0.6480612354121869 0.3753558455557889	-0.123129
C	0.3557861184934927 0.6543811462907013 0.3732085213797482	-0.136852
C	0.9051133753636680 0.7994862496286269 0.3138289744912252	0.101749
C	0.9830607515562805 0.8079015167983452 0.3145361395054630	-0.181785
C	0.0261875065659269 0.7676523718377108 0.3747926617977807	0.110110
C	0.9876323641859691 0.7210897611274348 0.4331199673095624	-0.180522
C	0.9094155064229035 0.7176282284810177 0.4301358662101390	0.104293
C	0.1089804752401437 0.7735803520260455 0.3761881910071102	0.061531
C	0.1529906391452530 0.7091030717602193 0.3790843026275367	-0.173379
C	0.2324949672357440 0.7135398026421924 0.3779935637503740	0.085924
C	0.2214900143422132 0.8519387645878131 0.3753558455557889	-0.123122
C	0.1442138555065053 0.8456188537092987 0.3732085213797482	-0.136858
C	0.7994862496286269 0.9051133753636680 0.8138289424912223	0.101750
C	0.8079015167983452 0.9830607515562805 0.8145361715054587	-0.181785
C	0.7676523718377108 0.0261875065659269 0.8747926617977805	0.110109
C	0.7210897611274348 0.9876323641859691 0.9331199993095581	-0.180522
C	0.7176282284810177 0.9094155064229035 0.9301358342101366	0.104294
C	0.7735803520260455 0.1089804752401437 0.8761881270071119	0.061535
C	0.7091030717602193 0.1529906391452530 0.8790843346275392	-0.173378
C	0.7135398026421924 0.2324949672357440 0.8779935007503791	0.085915
C	0.8519387645878131 0.2214900143422132 0.8753558455557887	-0.123122
C	0.8456188537092987 0.1442138555065053 0.8732085213797482	-0.136872
C	0.7005137503713731 0.5948866246363320 0.8138289424912223	0.101725
C	0.6920984832016548 0.5169392484437195 0.8145361715054587	-0.181703
C	0.7323476281622892 0.4738125154340749 0.8747926617977805	0.110039
C	0.7789102388725652 0.5123676888140317 0.9331199993095581	-0.180466
C	0.7823717715189823 0.5905844935770965 0.9301358342101366	0.104280
C	0.7264196479739545 0.3910195247598562 0.8761881270071119	0.061515
C	0.7908969282397807 0.3470093478547497 0.8790843346275392	-0.173372
C	0.7864601973578076 0.2675050327642561 0.8779935007503791	0.085923
C	0.6480612354121869 0.2785099856577868 0.8753558455557887	-0.123116
C	0.6543811462907013 0.3557861184934927 0.8732085213797482	-0.136868
C	0.5948866246363320 0.7994862496286269 0.8138289424912223	0.101725
C	0.5169392484437195 0.8079015167983452 0.8145361715054587	-0.181702
C	0.4738125154340749 0.7676523718377108 0.8747926617977805	0.110038
C	0.5123676888140317 0.7210897611274348 0.9331199993095581	-0.180465
C	0.5905844935770965 0.7176282284810177 0.9301358342101366	0.104279
C	0.3910195247598562 0.7735803520260455 0.8761881270071119	0.061516
C	0.3470093478547497 0.7091030717602193 0.8790843346275392	-0.173373
C	0.2675050327642561 0.7135398026421924 0.8779935007503791	0.085915
C	0.2785099856577868 0.8519387645878131 0.8753558455557887	-0.123122
C	0.3557861184934927 0.8456188537092987 0.8732085213797482	-0.136868
C	0.9051133753636680 0.7005137503713731 0.8138289424912223	0.101749
C	0.9830607515562805 0.6920984832016548 0.8145361715054587	-0.181784
C	0.0261875065659269 0.7323476281622892 0.8747926617977805	0.110109
C	0.9876323641859691 0.7789102388725652 0.9331199993095581	-0.180521
C	0.9094155064229035 0.7823717715189823 0.9301358342101366	0.104293
C	0.1089804752401437 0.7264196479739545 0.8761881270071119	0.061535
C	0.1529906391452530 0.7908969282397807 0.8790843346275392	-0.173378
C	0.2324949672357440 0.7864601973578076 0.8779935007503791	0.085924
C	0.2214900143422132 0.6480612354121869 0.8753558455557887	-0.123115
C	0.1442138555065053 0.6543811462907013 0.8732085213797482	-0.136874
C	0.2001684908365219 0.4050678635177374 0.6850932838674549	0.102764
C	0.1921762556935921 0.4829818202459806 0.6850498197630384	-0.182520
C	0.2325403186486177 0.5261869386566611 0.6249821684348020	0.110145
C	0.2789677704740952 0.4877019515810644 0.5664450719568015	-0.180654
C	0.2819892668409177 0.4093610319650675 0.5687454442114326	0.103986
C	0.2265167488877693 0.6089769924044011 0.6238111434177532	0.061412
C	0.2909382522688614 0.6530287992106306 0.6209350303771951	-0.173193
C	0.2864702507284578 0.7325089704768984 0.6220386838647678	0.085630
C	0.1480771831103876 0.7214482007680035 0.6246753850259569	-0.123300
C	0.1544283814685705 0.6441714484264003 0.6268079908753880	-0.137021
C	0.2998315221634827 0.0949321164822608 0.6850932838674549	0.102763
C	0.3078237573064125 0.0170181897540132 0.6850498197630384	-0.182520
C	0.2674596813513825 0.9738130613433389 0.6249821684348020	0.110146
C	0.2210322295259046 0.0122980634189332 0.5664450719568015	-0.180653
C	0.2180107331590823 0.0906389610349284 0.5687454442114326	0.103986
C	0.2734832511122306 0.8910230075955989 0.6238111434177532	0.061413
C	0.2090617347311412 0.8469712007893694 0.6209350303771951	-0.173193
C	0.2135297492715423 0.7674910295231016 0.6220386838647678	0.085638
C	0.3519228168896124 0.7785517992319965 0.6246753850259569	-0.123294
C	0.3455716185314295 0.8558285515735997 0.6268079908753880	-0.137022
C	0.4050678635177374 0.2998315221634827 0.6850932838674549	0.102764
C	0.4829818202459806 0.3078237573064125 0.6850498197630384	-0.182520
C	0.5261869386566611 0.2674596813513825 0.6249821684348020	0.110145
C	0.4877019515810644 0.2210322295259046 0.5664450719568015	-0.180653
C	0.4093610319650675 0.2180107331590823 0.5687454442114326	0.103985
C	0.6089769924044011 0.2734832511122306 0.6238111434177532	0.061413
C	0.6530287992106306 0.2090617347311412 0.6209350303771951	-0.173194
C	0.7325089704768984 0.2135297492715423 0.6220386838647678	0.085630
C	0.7214482007680035 0.3519228168896124 0.6246753850259569	-0.123300
C	0.6441714484264003 0.3455716185314295 0.6268079908753880	-0.137021
C	0.0949321164822608 0.2001684908365219 0.6850932838674549	0.102763
C	0.0170181897540132 0.1921762556935921 0.6850498197630384	-0.182519
C	0.9738130613433389 0.2325403186486177 0.6249821684348020	0.110145
C	0.0122980634189332 0.2789677704740952 0.5664450719568015	-0.180653
C	0.0906389610349284 0.2819892668409177 0.5687454442114326	0.103985
C	0.8910230075955989 0.2265167488877693 0.6238111434177532	0.061413
C	0.8469712007893694 0.2909382522688614 0.6209350303771951	-0.173193
C	0.7674910295231016 0.2864702507284578 0.6220386838647678	0.085638
C	0.7785517992319965 0.1480771831103876 0.6246753850259569	-0.123294
C	0.8558285515735997 0.1544283814685705 0.6268079908753880	-0.137022
H	0.1721000369563950 0.1300434148242493 0.2331255594427769	0.095702
H	0.1565365158268922 0.9897144609635287 0.2331334475520453	0.112774
H	0.3106765032749710 0.9811805717173049 0.0177921762699712	0.113713
H	0.3150292282917999 0.1225107680185738 0.0218687267359593	0.098586
H	0.3464326191238447 0.8736232969151985 0.1203125803044967	0.107495
H	0.0926862622360711 0.7516465290594774 0.1253583080557363	0.108485
H	0.1042115799271627 0.8913693119205851 0.1288755889864575	0.100083
H	0.3278999500436077 0.3699566121757494 0.2331255594427769	0.095702
H	0.3434634971731053 0.5102855920364722 0.2331334475520453	0.112774
H	0.1893234837250314 0.5188193742826906 0.0177921762699712	0.113712
H	0.1849707717082003 0.3774892179814249 0.0218687267359593	0.098586
H	0.1535673808761554 0.6263767030848015 0.1203125803044967	0.107493
H	0.4073137177639344 0.7483534709405226 0.1253583080557363	0.108481
H	0.3957884200728372 0.6086306880794149 0.1288755889864575	0.100083
H	0.3699566121757494 0.1721000369563950 0.2331255594427769	0.095702
H	0.5102855920364722 0.1565365158268922 0.2331334475520453	0.112774
H	0.5188193742826906 0.3106765032749710 0.0177921762699712	0.113713
H	0.3774892179814249 0.3150292282917999 0.0218687267359593	0.098586
H	0.6263767030848015 0.3464326191238447 0.1203125803044967	0.107497
H	0.7483534709405226 0.0926862622360711 0.1253583080557363	0.108485
H	0.6086306880794149 0.1042115799271627 0.1288755889864575	0.100085
H	0.1300434148242493 0.3278999500436077 0.2331255594427769	0.095702
H	0.9897144609635287 0.3434634971731053 0.2331334475520453	0.112775
H	0.9811805717173049 0.1893234837250314 0.0177921762699712	0.113713
H	0.1225107680185738 0.1849707717082003 0.0218687267359593	0.098586
H	0.8736232969151985 0.1535673808761554 0.1203125803044967	0.107495
H	0.7516465290594774 0.4073137177639344 0.1253583080557363	0.108481
H	0.8913693119205851 0.3957884200728372 0.1288755889864575	0.100085
H	0.8275322506669104 0.6298119236933649 0.2655812309849062	0.099840
H	0.8437554881992936 0.4894689267934702 0.2668060720051779	0.113034
H	0.6895577375916941 0.4814652076975471 0.4821127956489520	0.113107
H	0.6845251681919909 0.6226133206264061 0.4767969414430474	0.094420
H	0.6536072664763917 0.3736520349950960 0.3797060839472322	0.107658
H	0.9073199577101735 0.2516006467177478 0.3746795506507320	0.108393
H	0.8958297174053221 0.3913326060865373 0.3711444990275117	0.099828
H	0.6724677493330896 0.8701880763066351 0.2655812309849062	0.099839
H	0.6562445118007064 0.0105310382065233 0.2668060720051779	0.113051
H	0.8104422624083059 0.0185348193024585 0.4821127956489520	0.113115
H	0.8154748318080091 0.8773866793735939 0.4767969414430474	0.094419
H	0.8463927335236083 0.1263479650049040 0.3797060839472322	0.107656
H	0.5926800422898265 0.2483993532822523 0.3746795506507320	0.108390
H	0.6041702825946779 0.1086673939134627 0.3711444990275117	0.099830
H	0.6298119236933649 0.6724677493330896 0.2655812309849062	0.099840
H	0.4894689267934702 0.6562445118007064 0.2668060720051779	0.113034
H	0.4814652076975471 0.8104422624083059 0.4821127956489520	0.113107
H	0.6226133206264061 0.8154748318080091 0.4767969414430474	0.094420
H	0.3736520349950960 0.8463927335236083 0.3797060839472322	0.107660
H	0.2516006467177478 0.5926800422898265 0.3746795506507320	0.108394
H	0.3913326060865373 0.6041702825946779 0.3711444990275117	0.099831
H	0.8701880763066351 0.8275322506669104 0.2655812309849062	0.099839
H	0.0105310382065233 0.8437554881992936 0.2668060720051779	0.113052
H	0.0185348193024585 0.6895577375916941 0.4821127956489520	0.113116
H	0.8773866793735939 0.6845251681919909 0.4767969414430474	0.094419
H	0.1263479650049040 0.6536072664763917 0.3797060839472322	0.107658
H	0.2483993532822523 0.9073199577101735 0.3746795506507320	0.108390
H	0.1086673939134627 0.8958297174053221 0.3711444990275117	0.099832
H	0.8275322506669104 0.8701880763066351 0.7655812159849014	0.099838
H	0.8437554881992936 0.0105310382065233 0.7668060880051787	0.113050
H	0.6895577375916941 0.0185348193024585 0.9821127956489522	0.113113
H	0.6845251681919909 0.8773866793735939 0.9767969414430477	0.094420
H	0.6536072664763917 0.1263479650049040 0.8797060529472260	0.107657
H	0.9073199577101735 0.2483993532822523 0.8746795506507321	0.108392
H	0.8958297174053221 0.1086673939134627 0.8711445310275074	0.099837
H	0.6724677493330896 0.6298119236933649 0.7655812159849014	0.099840
H	0.6562445118007064 0.4894689267934702 0.7668060880051787	0.113033
H	0.8104422624083059 0.4814652076975471 0.9821127956489522	0.113105
H	0.8154748318080091 0.6226133206264061 0.9767969414430477	0.094421
H	0.8463927335236083 0.3736520349950960 0.8797060529472260	0.107654
H	0.5926800422898265 0.2516006467177478 0.8746795506507321	0.108389
H	0.6041702825946779 0.3913326060865373 0.8711445310275074	0.099836
H	0.6298119236933649 0.8275322506669104 0.7655812159849014	0.099840
H	0.4894689267934702 0.8437554881992936 0.7668060880051787	0.113034
H	0.4814652076975471 0.6895577375916941 0.9821127956489522	0.113105
H	0.6226133206264061 0.6845251681919909 0.9767969414430477	0.094421
H	0.3736520349950960 0.6536072664763917 0.8797060529472260	0.107659
H	0.2516006467177478 0.9073199577101735 0.8746795506507321	0.108392
H	0.3913326060865373 0.8958297174053221 0.8711445310275074	0.099838
H	0.8701880763066351 0.6724677493330896 0.7655812159849014	0.099839
H	0.0105310382065233 0.6562445118007064 0.7668060880051787	0.113051
H	0.0185348193024585 0.8104422624083059 0.9821127956489522	0.113114
H	0.8773866793735939 0.8154748318080091 0.9767969414430477	0.094420
H	0.1263479650049040 0.8463927335236083 0.8797060529472260	0.107657
H	0.2483993532822523 0.5926800422898265 0.8746795506507321	0.108389
H	0.1086673939134627 0.6041702825946779 0.8711445310275074	0.099839
H	0.1721000369563950 0.3699566121757494 0.7331255744427818	0.095702
H	0.1565365158268922 0.5102855920364722 0.7331334315520441	0.112774
H	0.3106765032749710 0.5188193742826906 0.5177922132699705	0.113711
H	0.3150292282917999 0.3774892179814249 0.5218687127359580	0.098586
H	0.3464326191238447 0.6263767030848015 0.6203126043044986	0.107497
H	0.0926862622360711 0.7483534709405226 0.6253583000557358	0.108481
H	0.1042115799271627 0.6086306880794149 0.6288755729864631	0.100084
H	0.3278999500436077 0.1300434148242493 0.7331255744427818	0.095702
H	0.3434634971731053 0.9897144609635287 0.7331334315520441	0.112774
H	0.1893234837250314 0.9811805717173049 0.5177922132699705	0.113711
H	0.1849707717082003 0.1225107680185738 0.5218687127359580	0.098586
H	0.1535673808761554 0.8736232969151985 0.6203126043044986	0.107495
H	0.4073137177639344 0.7516465290594774 0.6253583000557358	0.108477
H	0.3957884200728372 0.8913693119205851 0.6288755729864631	0.100084
H	0.3699566121757494 0.3278999500436077 0.7331255744427818	0.095702
H	0.5102855920364722 0.3434634971731053 0.7331334315520441	0.112774
H	0.5188193742826906 0.1893234837250314 0.5177922132699705	0.113711
H	0.3774892179814249 0.1849707717082003 0.5218687127359580	0.098587
H	0.6263767030848015 0.1535673808761554 0.6203126043044986	0.107499
H	0.7483534709405226 0.4073137177639344 0.6253583000557358	0.108480
H	0.6086306880794149 0.3957884200728372 0.6288755729864631	0.100086
H	0.1300434148242493 0.1721000369563950 0.7331255744427818	0.095702
H	0.9897144609635287 0.1565365158268922 0.7331334315520441	0.112774
H	0.9811805717173049 0.3106765032749710 0.5177922132699705	0.113711
H	0.1225107680185738 0.3150292282917999 0.5218687127359580	0.098586
H	0.8736232969151985 0.3464326191238447 0.6203126043044986	0.107496
H	0.7516465290594774 0.0926862622360711 0.6253583000557358	0.108478
H	0.8913693119205851 0.1042115799271627 0.6288755729864631	0.100086
F	0.3116644725009618 0.1588843071875982 0.3834512339787508	-0.599940
F	0.1883355274990382 0.3411156928124019 0.3834512339787508	-0.599941
F	0.3411156928124019 0.3116644725009618 0.3834512339787508	-0.599941
F	0.1588843071875982 0.1883355274990383 0.3834512339787508	-0.599941
F	0.6884519763137593 0.6587479743456078 0.1261381280969891	-0.599864
F	0.8115480236862407 0.8412520256543922 0.1261381280969891	-0.599864
F	0.6587479743456078 0.8115480236862407 0.1261381280969891	-0.599865
F	0.8412520256543922 0.6884519763137593 0.1261381280969891	-0.599864
F	0.6884519763137593 0.8412520256543922 0.6261381200969884	-0.599864
F	0.8115480236862407 0.6587479743456078 0.6261381200969884	-0.599864
F	0.6587479743456078 0.6884519763137593 0.6261381200969884	-0.599864
F	0.8412520256543922 0.8115480236862407 0.6261381200969884	-0.599864
F	0.3116644725009618 0.3411156928124019 0.8834512339787507	-0.599941
F	0.1883355274990383 0.1588843071875982 0.8834512339787507	-0.599941
F	0.3411156928124019 0.1883355274990383 0.8834512339787507	-0.599941
F	0.1588843071875982 0.3116644725009618 0.8834512339787507	-0.599941
F	0.2500000000000000 0.2500000000000000 0.5035961440459550	-0.611530
F	0.7500000000000000 0.7500000000000000 0.2466868135111683	-0.610833
F	0.7500000000000000 0.7500000000000000 0.7466868445111673	-0.610835
F	0.2500000000000000 0.2500000000000000 0.0035961760459503	-0.611530
O	0.2500000000000000 0.2500000000000000 0.2550971684335619	-0.953292
O	0.7500000000000000 0.7500000000000000 -0.0018649539363264	-0.954039
O	0.7500000000000000 0.7500000000000000 0.4981350510636705	-0.954039
O	0.2500000000000000 0.2500000000000000 0.7550971534335568	-0.953294
Ni	0.2500000000000000 0.2500000000000000 0.1303262984107458	0.802002
Ni	0.7500000000000000 0.7500000000000000 0.3732882499696483	0.800553
Ni	0.7500000000000000 0.7500000000000000 0.8732881859696430	0.800555
Ni	0.2500000000000000 0.2500000000000000 0.6303263464107497	0.802005
Nb	0.2500000000000000 0.2500000000000000 0.3701149423782227	2.468766
Nb	0.7500000000000000 0.7500000000000000 0.1131019179023813	2.470392
Nb	0.7500000000000000 0.7500000000000000 0.6131019339023753	2.470392
Nb	0.2500000000000000 0.2500000000000000 0.8701149423782228	2.468767
	  	
