#======================================================================

# CRYSTAL DATA

#----------------------------------------------------------------------

data_VESTA_phase_1


_pd_phase_name                         NbOFFIVE_2_Ni
_cell_length_a                         13.85342
_cell_length_b                         13.85342
_cell_length_c                         7.95999
_cell_angle_alpha                      90
_cell_angle_beta                       90
_cell_angle_gamma                      90
_symmetry_space_group_name_H-M         P 1
_symmetry_Int_Tables_number            1

loop_
_symmetry_equiv_pos_as_xyz
   x, y, z

loop_
   _atom_site_label
   _atom_site_fract_x
   _atom_site_fract_y
   _atom_site_fract_z
   _atom_site_charge
C	0.5322972461777339 0.7012574783897939 0.1340453223508943	0.104644
C	0.5325222042986291 0.8013271915983202 0.1399309596794704	-0.169326
C	0.4677027538222662 0.2987425566102058 0.1340453223508943	0.104641
C	0.4674777957013705 0.1986728434016794 0.1399309596794704	-0.169324
C	0.2987425566102058 0.5322972461777339 0.1340453223508943	0.104644
C	0.1986728434016794 0.5325222042986291 0.1399309596794704	-0.169326
C	0.7012574783897939 0.4677027538222662 0.1340453223508943	0.104642
C	0.8013271915983202 0.4674777957013705 0.1399309596794704	-0.169324
C	0.4683914928928726 0.7007801158620732 0.8652943238957675	0.102969
C	0.4675153519670440 0.8009860190602474 0.8594420967377572	-0.167728
C	0.5316085071071270 0.2992199191379263 0.8652943238957675	0.102966
C	0.5324846480329564 0.1990140159397521 0.8594420967377572	-0.167725
C	0.7007801158620732 0.5316085071071270 0.8652943238957675	0.102966
C	0.8009860190602474 0.5324846480329564 0.8594420967377572	-0.167725
C	0.2992199191379263 0.4683914928928726 0.8652943238957675	0.102969
C	0.1990140159397521 0.4675153519670440 0.8594420967377572	-0.167728
C	0.5001331464077470 0.1461584251636263 -0.0004026581910110	0.170505
C	0.5001117614110839 0.0439942490674038 -0.0005461042281543	-0.093988
C	0.4998668535922527 0.8538415748363736 -0.0004026581910110	0.170475
C	0.4998882385889152 0.9560057429325957 -0.0005461042281543	-0.093744
C	0.8538415748363736 0.5001331464077470 -0.0004026581910110	0.170505
C	0.9560057429325957 0.5001117614110839 -0.0005461042281543	-0.093988
C	0.1461584251636263 0.4998668535922527 -0.0004026581910110	0.170475
C	0.0439942490674038 0.4998882385889152 -0.0005461042281543	-0.093744
H	0.5578057281258560 0.6589943409819319 0.2405863990505195	0.090668
H	0.5581816901013179 0.8383215464469387 0.2519128226037837	0.127643
H	0.4421942718741438 0.3410055890180620 0.2405863990505195	0.090667
H	0.4418183098986821 0.1616784535530612 0.2519128226037837	0.127644
H	0.3410055890180620 0.5578057281258560 0.2405863990505195	0.090668
H	0.1616784535530612 0.5581816901013179 0.2519128226037837	0.127643
H	0.6589943409819319 0.4421942718741438 0.2405863990505195	0.090667
H	0.8383215464469387 0.4418183098986821 0.2519128226037837	0.127644
H	0.4432275031612639 0.6584047462024221 0.7586144359898654	0.096177
H	0.4417603450491010 0.8379040978153924 0.7474543707420850	0.127719
H	0.5567724968387363 0.3415951837975715 0.7586144359898654	0.096176
H	0.5582396549508991 0.1620959021846073 0.7474543707420850	0.127720
H	0.6584047462024221 0.5567724968387363 0.7586144359898654	0.096176
H	0.8379040978153924 0.5582396549508991 0.7474543707420850	0.127720
H	0.3415951837975715 0.4432275031612639 0.7586144359898654	0.096177
H	0.1620959021846073 0.4417603450491010 0.7474543707420850	0.127719
Ni	0.5000000000000000 0.5000000000000000 0.0045896682308799	0.797202
Nb	0.5000000000000000 0.5000000000000000 0.4809492388668861	2.428283
F	0.5000000000000000 0.5000000000000000 0.7467049144571080	-0.616801
F	0.5986633443375478 0.5999589425312971 0.5067624218764770	-0.579459
F	0.4000410924687021 0.5986633443375478 0.5067624218764770	-0.579458
F	0.4013366906624518 0.4000410924687021 0.5067624218764770	-0.579459
F	0.5999589425312971 0.4013366906624518 0.5067624218764770	-0.579459
O	0.5000000000000000 0.5000000000000000 0.2558967666732229	-0.937659
N	0.4995427715610578 0.3486678043890328 -0.0001295075644757	-0.227688
N	0.5004572284389422 0.6513322306109657 -0.0001295075644757	-0.227687
N	0.6513322306109657 0.4995427715610578 -0.0001295075644757	-0.227688
N	0.3486678043890328 0.5004572284389422 -0.0001295075644757	-0.227687
	  	
