#======================================================================

# CRYSTAL DATA

#----------------------------------------------------------------------

data_VESTA_phase_1


_pd_phase_name                         NbOFFIVE_6_Co_i
_cell_length_a                         17.62368
_cell_length_b                         17.62368
_cell_length_c                         15.52559
_cell_angle_alpha                      90
_cell_angle_beta                       90
_cell_angle_gamma                      90
_symmetry_space_group_name_H-M         P 1
_symmetry_Int_Tables_number            1

loop_
_symmetry_equiv_pos_as_xyz
   x, y, z

loop_
   _atom_site_label
   _atom_site_fract_x
   _atom_site_fract_y
   _atom_site_fract_z
   _atom_site_charge
N	0.2436625745277226 0.1311504607047592 0.1285584400377317	-0.190885
N	0.2563374254722774 0.3688495522952454 0.1285584400377317	-0.190886
N	0.3688495522952454 0.2436625745277226 0.1285584400377317	-0.190885
N	0.1311504607047592 0.2563374254722774 0.1285584400377317	-0.190885
N	0.7558647757356948 0.6366403538276610 0.3718103232048917	-0.185028
N	0.7441352242643052 0.8633596461723390 0.3718103232048917	-0.185028
N	0.6366403538276610 0.7441352242643052 0.3718103232048917	-0.185028
N	0.8633596461723390 0.7558647757356948 0.3718103232048917	-0.185027
N	0.7558647757356948 0.8633596461723390 0.8718103232048918	-0.185029
N	0.7441352242643052 0.6366403538276610 0.8718103232048918	-0.185028
N	0.6366403538276610 0.7558647757356948 0.8718103232048918	-0.185028
N	0.8633596461723390 0.7441352242643052 0.8718103232048918	-0.185028
N	0.2436625745277226 0.3688495522952454 0.6285584400377315	-0.190886
N	0.2563374254722774 0.1311504607047592 0.6285584400377315	-0.190886
N	0.3688495522952454 0.2563374254722774 0.6285584400377315	-0.190885
N	0.1311504607047592 0.2436625745277226 0.6285584400377315	-0.190886
C	0.1995224377967435 0.0950021957687297 0.1859420854002041	0.097323
C	0.1913335633325157 0.0168111409070685 0.1854979532289855	-0.181711
C	0.2317189129901274 0.9741128849005980 0.1247618263256314	0.110004
C	0.2783523048568652 0.0124454589079816 0.0660346717179996	-0.178955
C	0.2820981027495267 0.0909971797175196 0.0693136158764111	0.098974
C	0.2257832131660586 0.8912186938731196 0.1235053259864939	0.058685
C	0.2909141378755233 0.8475441021672354 0.1207692187855129	-0.173582
C	0.2866571331372830 0.7676971251662436 0.1220405917935843	0.084941
C	0.1472952686875280 0.7782494261764922 0.1246368497275909	-0.124418
C	0.1533764021092023 0.8559376681112680 0.1266362222082463	-0.134060
C	0.3004775752032611 0.4049977842312687 0.1859420854002041	0.097323
C	0.3086664496674889 0.4831888690929252 0.1854979532289855	-0.181711
C	0.2682810870098725 0.5258871150994020 0.1247618263256314	0.110003
C	0.2216476951431347 0.4875545560920160 0.0660346717179996	-0.178955
C	0.2179018972504735 0.4090028132824762 0.0693136158764111	0.098974
C	0.2742167868339414 0.6087813061268804 0.1235053259864939	0.058685
C	0.2090858491244792 0.6524558978327646 0.1207692187855129	-0.173584
C	0.2133428668627169 0.7323028748337564 0.1220405917935843	0.084959
C	0.3527047313124720 0.7217505738235078 0.1246368497275909	-0.124406
C	0.3466235978907979 0.6440623318887320 0.1266362222082463	-0.134062
C	0.4049977842312687 0.1995224377967435 0.1859420854002041	0.097321
C	0.4831888690929252 0.1913335633325157 0.1854979532289855	-0.181711
C	0.5258871150994020 0.2317189129901274 0.1247618263256314	0.110003
C	0.4875545560920160 0.2783523048568652 0.0660346717179996	-0.178955
C	0.4090028132824762 0.2820981027495267 0.0693136158764111	0.098972
C	0.6087813061268804 0.2257832131660586 0.1235053259864939	0.058685
C	0.6524558978327646 0.2909141378755233 0.1207692187855129	-0.173583
C	0.7323028748337564 0.2866571331372830 0.1220405917935843	0.084941
C	0.7217505738235078 0.1472952686875280 0.1246368497275909	-0.124418
C	0.6440623318887320 0.1533764021092023 0.1266362222082463	-0.134060
C	0.0950021957687297 0.3004775752032611 0.1859420854002041	0.097321
C	0.0168111409070685 0.3086664496674889 0.1854979532289855	-0.181711
C	0.9741128849005980 0.2682810870098725 0.1247618263256314	0.110003
C	0.0124454589079816 0.2216476951431347 0.0660346717179996	-0.178955
C	0.0909971797175196 0.2179018972504735 0.0693136158764111	0.098972
C	0.8912186938731196 0.2742167868339414 0.1235053259864939	0.058686
C	0.8475441021672354 0.2090858491244792 0.1207692187855129	-0.173584
C	0.7676971251662436 0.2133428668627169 0.1220405917935843	0.084959
C	0.7782494261764922 0.3527047313124720 0.1246368497275909	-0.124406
C	0.8559376681112680 0.3466235978907979 0.1266362222082463	-0.134062
C	0.7992235210800303 0.5996380017114100 0.3136263141896324	0.091086
C	0.8074819737465486 0.5211013941036851 0.3142285359335948	-0.177605
C	0.7676088094741811 0.4769923871832956 0.3745507335237822	0.107552
C	0.7212682760525829 0.5163135534344513 0.4331518049967495	-0.177818
C	0.7178079618432291 0.5951040701059886 0.4307872579660574	0.094492
C	0.7734964009801096 0.3930903106630562 0.3758782756551702	0.061198
C	0.7088556586944955 0.3481782040934469 0.3789475958105454	-0.173641
C	0.7134262385489952 0.2678596674769245 0.3779452011238520	0.086962
C	0.8520411234678551 0.2791079216665103 0.3753549013298821	-0.124147
C	0.8457927042444296 0.3570075956590412 0.3730365814941526	-0.135971
C	0.7007764789199697 0.9003619982885900 0.3136263141896324	0.091087
C	0.6925180262534514 0.9788986058963149 0.3142285359335948	-0.177605
C	0.7323911905258189 0.0230076348167061 0.3745507335237822	0.107551
C	0.7787317239474171 0.9836864995655495 0.4331518049967495	-0.177819
C	0.7821920381567709 0.9048959298940114 0.4307872579660574	0.094493
C	0.7265035990198904 0.1069096893369439 0.3758782756551702	0.061199
C	0.7911443413055045 0.1518217829065555 0.3789475958105454	-0.173642
C	0.7865737614510048 0.2321403325230755 0.3779452011238520	0.086980
C	0.6479588765321449 0.2208920783334898 0.3753549013298821	-0.124135
C	0.6542072957555704 0.1429923783409567 0.3730365814941526	-0.135974
C	0.5996380017114100 0.7007764789199697 0.3136263141896324	0.091084
C	0.5211013941036851 0.6925180262534514 0.3142285359335948	-0.177604
C	0.4769923871832956 0.7323911905258189 0.3745507335237822	0.107551
C	0.5163135534344513 0.7787317239474171 0.4331518049967495	-0.177818
C	0.5951040701059886 0.7821920381567709 0.4307872579660574	0.094490
C	0.3930903106630562 0.7265035990198904 0.3758782756551702	0.061198
C	0.3481782040934469 0.7911443413055045 0.3789475958105454	-0.173641
C	0.2678596674769245 0.7865737614510048 0.3779452011238520	0.086962
C	0.2791079216665103 0.6479588765321449 0.3753549013298821	-0.124147
C	0.3570075956590412 0.6542072957555704 0.3730365814941526	-0.135972
C	0.9003619982885900 0.7992235210800303 0.3136263141896324	0.091085
C	0.9788986058963149 0.8074819737465486 0.3142285359335948	-0.177605
C	0.0230076348167061 0.7676088094741811 0.3745507335237822	0.107552
C	0.9836864995655495 0.7212682760525829 0.4331518049967495	-0.177818
C	0.9048959298940114 0.7178079618432291 0.4307872579660574	0.094490
C	0.1069096893369439 0.7734964009801096 0.3758782756551702	0.061199
C	0.1518217829065555 0.7088556586944955 0.3789475958105454	-0.173643
C	0.2321403325230755 0.7134262385489952 0.3779452011238520	0.086980
C	0.2208920783334898 0.8520411234678551 0.3753549013298821	-0.124135
C	0.1429923783409567 0.8457927042444296 0.3730365814941526	-0.135974
C	0.7992235210800303 0.9003619982885900 0.8136262821896293	0.091087
C	0.8074819737465486 0.9788986058963149 0.8142285679335900	-0.177605
C	0.7676088094741811 0.0230076348167061 0.8745507335237822	0.107551
C	0.7212682760525829 0.9836864995655495 0.9331518369967450	-0.177818
C	0.7178079618432291 0.9048959298940114 0.9307872259660548	0.094493
C	0.7734964009801096 0.1069096893369439 0.8758782116551719	0.061198
C	0.7088556586944955 0.1518217829065555 0.8789476278105479	-0.173640
C	0.7134262385489952 0.2321403325230755 0.8779451381238572	0.086963
C	0.8520411234678551 0.2208920783334898 0.8753549013298823	-0.124147
C	0.8457927042444296 0.1429923783409567 0.8730365814941524	-0.135974
C	0.7007764789199697 0.5996380017114100 0.8136262821896293	0.091086
C	0.6925180262534514 0.5211013941036851 0.8142285679335900	-0.177604
C	0.7323911905258189 0.4769923871832956 0.8745507335237822	0.107552
C	0.7787317239474171 0.5163135534344513 0.9331518369967450	-0.177818
C	0.7821920381567709 0.5951040701059886 0.9307872259660548	0.094492
C	0.7265035990198904 0.3930903106630562 0.8758782116551719	0.061198
C	0.7911443413055045 0.3481782040934469 0.8789476278105479	-0.173641
C	0.7865737614510048 0.2678596674769245 0.8779451381238572	0.086980
C	0.6479588765321449 0.2791079216665103 0.8753549013298823	-0.124136
C	0.6542072957555704 0.3570075956590412 0.8730365814941524	-0.135975
C	0.5996380017114100 0.7992235210800303 0.8136262821896293	0.091085
C	0.5211013941036851 0.8074819737465486 0.8142285679335900	-0.177604
C	0.4769923871832956 0.7676088094741811 0.8745507335237822	0.107551
C	0.5163135534344513 0.7212682760525829 0.9331518369967450	-0.177818
C	0.5951040701059886 0.7178079618432291 0.9307872259660548	0.094490
C	0.3930903106630562 0.7734964009801096 0.8758782116551719	0.061198
C	0.3481782040934469 0.7088556586944955 0.8789476278105479	-0.173640
C	0.2678596674769245 0.7134262385489952 0.8779451381238572	0.086963
C	0.2791079216665103 0.8520411234678551 0.8753549013298823	-0.124147
C	0.3570075956590412 0.8457927042444296 0.8730365814941524	-0.135974
C	0.9003619982885900 0.7007764789199697 0.8136262821896293	0.091084
C	0.9788986058963149 0.6925180262534514 0.8142285679335900	-0.177604
C	0.0230076348167061 0.7323911905258189 0.8745507335237822	0.107551
C	0.9836864995655495 0.7787317239474171 0.9331518369967450	-0.177819
C	0.9048959298940114 0.7821920381567709 0.9307872259660548	0.094490
C	0.1069096893369439 0.7265035990198904 0.8758782116551719	0.061199
C	0.1518217829065555 0.7911443413055045 0.8789476278105479	-0.173642
C	0.2321403325230755 0.7865737614510048 0.8779451381238572	0.086980
C	0.2208920783334898 0.6479588765321449 0.8753549013298823	-0.124136
C	0.1429923783409567 0.6542072957555704 0.8730365814941524	-0.135976
C	0.1995224377967435 0.4049977842312687 0.6859420854002041	0.097323
C	0.1913335633325157 0.4831888690929252 0.6854979212289899	-0.181711
C	0.2317189129901274 0.5258871150994020 0.6247618183256306	0.110002
C	0.2783523048568652 0.4875545560920160 0.5660346357180036	-0.178955
C	0.2820981027495267 0.4090028132824762 0.5693136478764134	0.098974
C	0.2257832131660586 0.6087813061268804 0.6235053819864915	0.058687
C	0.2909141378755233 0.6524558978327646 0.6207692027855116	-0.173578
C	0.2866571331372830 0.7323028748337564 0.6220406387935847	0.084945
C	0.1472952686875280 0.7217505738235078 0.6246368577275916	-0.124411
C	0.1533764021092023 0.6440623318887320 0.6266362372082511	-0.134059
C	0.3004775752032611 0.0950021957687297 0.6859420854002041	0.097322
C	0.3086664496674889 0.0168111409070685 0.6854979212289899	-0.181711
C	0.2682810870098725 0.9741128849005980 0.6247618183256306	0.110003
C	0.2216476951431347 0.0124454589079816 0.5660346357180036	-0.178954
C	0.2179018972504735 0.0909971797175196 0.5693136478764134	0.098974
C	0.2742167868339414 0.8912186938731196 0.6235053819864915	0.058688
C	0.2090858491244792 0.8475441021672354 0.6207692027855116	-0.173579
C	0.2133428668627169 0.7676971251662436 0.6220406387935847	0.084962
C	0.3527047313124720 0.7782494261764922 0.6246368577275916	-0.124400
C	0.3466235978907979 0.8559376681112680 0.6266362372082511	-0.134059
C	0.4049977842312687 0.3004775752032611 0.6859420854002041	0.097321
C	0.4831888690929252 0.3086664496674889 0.6854979212289899	-0.181711
C	0.5258871150994020 0.2682810870098725 0.6247618183256306	0.110003
C	0.4875545560920160 0.2216476951431347 0.5660346357180036	-0.178954
C	0.4090028132824762 0.2179018972504735 0.5693136478764134	0.098972
C	0.6087813061268804 0.2742167868339414 0.6235053819864915	0.058687
C	0.6524558978327646 0.2090858491244792 0.6207692027855116	-0.173579
C	0.7323028748337564 0.2133428668627169 0.6220406387935847	0.084945
C	0.7217505738235078 0.3527047313124720 0.6246368577275916	-0.124411
C	0.6440623318887320 0.3466235978907979 0.6266362372082511	-0.134059
C	0.0950021957687297 0.1995224377967435 0.6859420854002041	0.097320
C	0.0168111409070685 0.1913335633325157 0.6854979212289899	-0.181710
C	0.9741128849005980 0.2317189129901274 0.6247618183256306	0.110002
C	0.0124454589079816 0.2783523048568652 0.5660346357180036	-0.178955
C	0.0909971797175196 0.2820981027495267 0.5693136478764134	0.098972
C	0.8912186938731196 0.2257832131660586 0.6235053819864915	0.058688
C	0.8475441021672354 0.2909141378755233 0.6207692027855116	-0.173579
C	0.7676971251662436 0.2866571331372830 0.6220406387935847	0.084962
C	0.7782494261764922 0.1472952686875280 0.6246368577275916	-0.124400
C	0.8559376681112680 0.1533764021092023 0.6266362372082511	-0.134060
H	0.1710100021349368 0.1305866629655469 0.2334536876540189	0.099955
H	0.1556738199997914 0.9889259848100163 0.2333225557713054	0.115209
H	0.3097993932317640 0.9811722473392499 0.0170996715727478	0.115699
H	0.3154476029888922 0.1236485045875757 0.0231164551200445	0.103313
H	0.3465359513936168 0.8748072062281280 0.1202783811116423	0.107994
H	0.0917325404067095 0.7508539810349824 0.1253493455793240	0.108660
H	0.1027676432916859 0.8915514543650291 0.1287093148055324	0.099076
H	0.3289899848650656 0.3694133640344518 0.2334536876540189	0.099956
H	0.3443261930002063 0.5110740681899846 0.2333225557713054	0.115209
H	0.1902005937682384 0.5188276986607456 0.0170996715727478	0.115699
H	0.1845523970111079 0.3763514814124232 0.0231164551200445	0.103313
H	0.1534640486063831 0.6251927937718720 0.1202783811116423	0.107998
H	0.4082674395932959 0.7491460189650176 0.1253493455793240	0.108662
H	0.3972323567083140 0.6084485456349709 0.1287093148055324	0.099076
H	0.3694133640344518 0.1710100021349368 0.2334536876540189	0.099956
H	0.5110740681899846 0.1556738199997914 0.2333225557713054	0.115209
H	0.5188276986607456 0.3097993932317640 0.0170996715727478	0.115699
H	0.3763514814124232 0.3154476029888922 0.0231164551200445	0.103313
H	0.6251927937718720 0.3465359513936168 0.1202783811116423	0.107995
H	0.7491460189650176 0.0917325404067095 0.1253493455793240	0.108660
H	0.6084485456349709 0.1027676432916859 0.1287093148055324	0.099078
H	0.1305866629655469 0.3289899848650656 0.2334536876540189	0.099956
H	0.9889259848100163 0.3443261930002063 0.2333225557713054	0.115209
H	0.9811722473392499 0.1902005937682384 0.0170996715727478	0.115699
H	0.1236485045875757 0.1845523970111079 0.0231164551200445	0.103313
H	0.8748072062281280 0.1534640486063831 0.1202783811116423	0.108000
H	0.7508539810349824 0.4082674395932959 0.1253493455793240	0.108662
H	0.8915514543650291 0.3972323567083140 0.1287093148055324	0.099078
H	0.8266853041274285 0.6345416269859053 0.2647108216671049	0.105036
H	0.8432896587368344 0.4943058618690454 0.2656646480376468	0.114802
H	0.6893229137602138 0.4857824460152952 0.4823185442411947	0.115316
H	0.6849304695050170 0.6269763429292765 0.4779536054461574	0.100985
H	0.6529226709972539 0.3748092448303522 0.3796637271998961	0.107465
H	0.9078970708736375 0.2523533745369237 0.3746509490238563	0.106625
H	0.8968076682601859 0.3920601505834438 0.3709451306265473	0.098557
H	0.6733146958725715 0.8654583730140947 0.2647108216671049	0.105036
H	0.6567103412631656 0.0056941031309482 0.2656646480376468	0.114802
H	0.8106770862397862 0.0142175809847105 0.4823185442411947	0.115316
H	0.8150695304949830 0.8730236570707235 0.4779536054461574	0.100986
H	0.8470773290027461 0.1251907551696479 0.3796637271998961	0.107469
H	0.5921029291263625 0.2476466254630762 0.3746509490238563	0.106629
H	0.6031923317398141 0.1079398494165560 0.3709451306265473	0.098558
H	0.6345416269859053 0.6733146958725715 0.2647108216671049	0.105036
H	0.4943058618690454 0.6567103412631656 0.2656646480376468	0.114802
H	0.4857824460152952 0.8106770862397862 0.4823185442411947	0.115317
H	0.6269763429292765 0.8150695304949830 0.4779536054461574	0.100985
H	0.3748092448303522 0.8470773290027461 0.3796637271998961	0.107466
H	0.2523533745369237 0.5921029291263625 0.3746509490238563	0.106626
H	0.3920601505834438 0.6031923317398141 0.3709451306265473	0.098559
H	0.8654583730140947 0.8266853041274285 0.2647108216671049	0.105036
H	0.0056941031309482 0.8432896587368344 0.2656646480376468	0.114802
H	0.0142175809847105 0.6893229137602138 0.4823185442411947	0.115316
H	0.8730236570707235 0.6849304695050170 0.4779536054461574	0.100986
H	0.1251907551696479 0.6529226709972539 0.3796637271998961	0.107470
H	0.2476466254630762 0.9078970708736375 0.3746509490238563	0.106628
H	0.1079398494165560 0.8968076682601859 0.3709451306265473	0.098559
H	0.8266853041274285 0.8654583730140947 0.7647108066670999	0.105036
H	0.8432896587368344 0.0056941031309482 0.7656646640376483	0.114801
H	0.6893229137602138 0.0142175809847105 0.9823185442411942	0.115316
H	0.6849304695050170 0.8730236570707235 0.9779536054461578	0.100986
H	0.6529226709972539 0.1251907551696479 0.8796636961998898	0.107462
H	0.9078970708736375 0.2476466254630762 0.8746509490238563	0.106625
H	0.8968076682601859 0.1079398494165560 0.8709451626265430	0.098560
H	0.6733146958725715 0.6345416269859053 0.7647108066670999	0.105036
H	0.6567103412631656 0.4943058618690454 0.7656646640376483	0.114801
H	0.8106770862397862 0.4857824460152952 0.9823185442411942	0.115316
H	0.8150695304949830 0.6269763429292765 0.9779536054461578	0.100985
H	0.8470773290027461 0.3748092448303522 0.8796636961998898	0.107466
H	0.5921029291263625 0.2523533745369237 0.8746509490238563	0.106629
H	0.6031923317398141 0.3920601505834438 0.8709451626265430	0.098560
H	0.6345416269859053 0.8266853041274285 0.7647108066670999	0.105036
H	0.4943058618690454 0.8432896587368344 0.7656646640376483	0.114802
H	0.4857824460152952 0.6893229137602138 0.9823185442411942	0.115317
H	0.6269763429292765 0.6849304695050170 0.9779536054461578	0.100985
H	0.3748092448303522 0.6529226709972539 0.8796636961998898	0.107464
H	0.2523533745369237 0.9078970708736375 0.8746509490238563	0.106625
H	0.3920601505834438 0.8968076682601859 0.8709451626265430	0.098561
H	0.8654583730140947 0.6733146958725715 0.7647108066670999	0.105037
H	0.0056941031309482 0.6567103412631656 0.7656646640376483	0.114801
H	0.0142175809847105 0.8106770862397862 0.9823185442411942	0.115317
H	0.8730236570707235 0.8150695304949830 0.9779536054461578	0.100986
H	0.1251907551696479 0.8470773290027461 0.8796636961998898	0.107467
H	0.2476466254630762 0.5921029291263625 0.8746509490238563	0.106629
H	0.1079398494165560 0.6031923317398141 0.8709451626265430	0.098561
H	0.1710100021349368 0.3694133640344518 0.7334537026540238	0.099956
H	0.1556738199997914 0.5110740681899846 0.7333225397713040	0.115208
H	0.3097993932317640 0.5188276986607456 0.5170997085727471	0.115698
H	0.3154476029888922 0.3763514814124232 0.5231164411200435	0.103313
H	0.3465359513936168 0.6251927937718720 0.6202784051116442	0.107997
H	0.0917325404067095 0.7491460189650176 0.6253493375793233	0.108658
H	0.1027676432916859 0.6084485456349709 0.6287092988055384	0.099079
H	0.3289899848650656 0.1305866629655469 0.7334537026540238	0.099956
H	0.3443261930002063 0.9889259848100163 0.7333225397713040	0.115208
H	0.1902005937682384 0.9811722473392499 0.5170997085727471	0.115698
H	0.1845523970111079 0.1236485045875757 0.5231164411200435	0.103313
H	0.1534640486063831 0.8748072062281280 0.6202784051116442	0.108002
H	0.4082674395932959 0.7508539810349824 0.6253493375793233	0.108660
H	0.3972323567083140 0.8915514543650291 0.6287092988055384	0.099078
H	0.3694133640344518 0.3289899848650656 0.7334537026540238	0.099956
H	0.5110740681899846 0.3443261930002063 0.7333225397713040	0.115209
H	0.5188276986607456 0.1902005937682384 0.5170997085727471	0.115698
H	0.3763514814124232 0.1845523970111079 0.5231164411200435	0.103313
H	0.6251927937718720 0.1534640486063831 0.6202784051116442	0.107999
H	0.7491460189650176 0.4082674395932959 0.6253493375793233	0.108657
H	0.6084485456349709 0.3972323567083140 0.6287092988055384	0.099079
H	0.1305866629655469 0.1710100021349368 0.7334537026540238	0.099956
H	0.9889259848100163 0.1556738199997914 0.7333225397713040	0.115208
H	0.9811722473392499 0.3097993932317640 0.5170997085727471	0.115699
H	0.1236485045875757 0.3154476029888922 0.5231164411200435	0.103313
H	0.8748072062281280 0.3465359513936168 0.6202784051116442	0.108003
H	0.7508539810349824 0.0917325404067095 0.6253493375793233	0.108661
H	0.8915514543650291 0.1027676432916859 0.6287092988055384	0.099080
F	0.3129564452119791 0.1595429814007784 0.3823196386694627	-0.600021
F	0.1870435547880210 0.3404570185992215 0.3823196386694627	-0.600021
F	0.3404570185992215 0.3129564452119791 0.3823196386694627	-0.600021
F	0.1595429814007784 0.1870435547880210 0.3823196386694627	-0.600021
F	0.6856027092775020 0.6590526202408404 0.1263300828705269	-0.605827
F	0.8143972907224980 0.8409473797591596 0.1263300828705269	-0.605827
F	0.6590526202408404 0.8143972907224980 0.1263300828705269	-0.605828
F	0.8409473797591596 0.6856027092775020 0.1263300828705269	-0.605827
F	0.6856027092775020 0.8409473797591596 0.6263300748705258	-0.605827
F	0.8143972907224980 0.6590526202408404 0.6263300748705258	-0.605827
F	0.6590526202408404 0.6856027092775020 0.6263300748705258	-0.605827
F	0.8409473797591596 0.8143972907224980 0.6263300748705258	-0.605827
F	0.3129564452119791 0.3404570185992215 0.8823196386694627	-0.600021
F	0.1870435547880210 0.1595429814007784 0.8823196386694627	-0.600021
F	0.3404570185992215 0.1870435547880210 0.8823196386694627	-0.600021
F	0.1595429814007784 0.3129564452119791 0.8823196386694627	-0.600022
F	0.2500000000000000 0.2500000000000000 0.5047747671787395	-0.617223
F	0.7500000000000000 0.7500000000000000 0.2443621997789535	-0.601158
F	0.7500000000000000 0.7500000000000000 0.7443622307789450	-0.601159
F	0.2500000000000000 0.2500000000000000 0.0047747991787353	-0.617223
O	0.2500000000000000 0.2500000000000000 0.2522651727166492	-0.952311
O	0.7500000000000000 0.7500000000000000 0.0002265327019928	-0.939654
O	0.7500000000000000 0.7500000000000000 0.5002265377019894	-0.939654
O	0.2500000000000000 0.2500000000000000 0.7522651577166447	-0.952312
Co	0.2500000000000000 0.2500000000000000 0.1307700476406329	0.675511
Co	0.7500000000000000 0.7500000000000000 0.3737443526498868	0.648552
Co	0.7500000000000000 0.7500000000000000 0.8737442886498815	0.648553
Co	0.2500000000000000 0.2500000000000000 0.6307700956406370	0.675513
Nb	0.2500000000000000 0.2500000000000000 0.3681113351984109	2.437580
Nb	0.7500000000000000 0.7500000000000000 0.1141422082797971	2.443575
Nb	0.7500000000000000 0.7500000000000000 0.6141422242797913	2.443575
Nb	0.2500000000000000 0.2500000000000000 0.8681113351984110	2.437580
	  	
