#======================================================================

# CRYSTAL DATA

#----------------------------------------------------------------------

data_VESTA_phase_1


_pd_phase_name                         NbOFFIVE_4_Ni_i
_cell_length_a                         23.03517
_cell_length_b                         20.02853
_cell_length_c                         9.78635
_cell_angle_alpha                      90
_cell_angle_beta                       90
_cell_angle_gamma                      90
_symmetry_space_group_name_H-M         P 1
_symmetry_Int_Tables_number            1

loop_
_symmetry_equiv_pos_as_xyz
   x, y, z

loop_
   _atom_site_label
   _atom_site_fract_x
   _atom_site_fract_y
   _atom_site_fract_z
   _atom_site_charge
C	0.4201208580438993 0.5995373178465166 0.6312856390796014	0.087904
C	0.3757480491805139 0.5527545802354390 0.6289325325027999	-0.165068
C	0.2780809980929706 0.4491482107302874 0.6282454597758804	-0.115689
C	0.2309790154818297 0.4059372039292674 0.6275853986278199	-0.112183
C	0.1276919843006117 0.3176815277607016 0.6276323941961922	-0.164560
C	0.0804743229356211 0.2747784284335576 0.6310857070944237	0.082098
C	0.9201209000438956 0.0995373178465165 0.6312856390796014	0.087904
C	0.8757480911805169 0.0527545742354383 0.6289325325027999	-0.165070
C	0.7780810190929695 0.9491482567302907 0.6282454597758804	-0.115685
C	0.7309790354818315 0.9059372499292642 0.6275853986278199	-0.112186
C	0.6276919843006117 0.8176815277607015 0.6276323941961922	-0.164560
C	0.5804743179356173 0.7747784754335576 0.6310857070944237	0.082098
C	0.5798791419561008 0.4004626821534835 0.1312856000796017	0.087904
C	0.6242519508194866 0.4472454197645613 0.1289325165027984	-0.165069
C	0.7219189809070305 0.5508517892697131 0.1282454907758794	-0.115688
C	0.7690209645181685 0.5940627960707325 0.1275854446278162	-0.112183
C	0.8723080566993882 0.6823184252392982 0.1276324091961970	-0.164560
C	0.9195257240643790 0.7252215245664424 0.1310857230944253	0.082098
C	0.0798791469561049 0.9004626361534867 0.1312856000796017	0.087905
C	0.1242519298194810 0.9472453737645643 0.1289325165027984	-0.165070
C	0.2219189809070310 0.0508517842697087 0.1282454907758794	-0.115690
C	0.2690209845181702 0.0940627840707388 0.1275854446278162	-0.112182
C	0.3723080156993884 0.1823184722392984 0.1276324091961970	-0.164560
C	0.4195256820643828 0.2252215485664444 0.1310857230944253	0.082098
C	0.5803868935123029 0.5993249831459054 0.8672471489016631	0.087379
C	0.6246877239896585 0.5525061630273168 0.8684976604191709	-0.163307
C	0.7215565583911823 0.4491514913991323 0.8686212359210350	-0.114768
C	0.7687131826013958 0.4060749011657203 0.8703267187549287	-0.110246
C	0.8720891664326610 0.3181222731780737 0.8724002261037999	-0.167161
C	0.9193111429296041 0.2752125329920246 0.8698291581447907	0.082886
C	0.0803868985123071 0.0993249831459052 0.8672471489016631	0.087379
C	0.1246877029896530 0.0525061570273160 0.8684976604191709	-0.163307
C	0.2215565583911821 0.9491515373991365 0.8686212359210350	-0.114737
C	0.2687132026013977 0.9060749471657178 0.8703267187549287	-0.110325
C	0.3720891254326611 0.8181222731780736 0.8724002261038000	-0.167160
C	0.4193111009296077 0.7752125799920246 0.8698291581447907	0.082886
C	0.4196131064876967 0.4006750168540948 0.3672471799016620	0.087380
C	0.3753122760103417 0.4474938369726836 0.3684977224191691	-0.163308
C	0.2784434206088195 0.5508485086008673 0.3686212359210350	-0.114767
C	0.2312867973986024 0.5939250988342789 0.3703266877549294	-0.110246
C	0.1279108745673388 0.6818776798219260 0.3724001641038017	-0.167161
C	0.0806889040703962 0.7247874200079754 0.3698290961447929	0.082886
C	0.9196131484876935 0.9006749708540979 0.3672471799016620	0.087380
C	0.8753123180103449 0.9474937909726865 0.3684977224191691	-0.163308
C	0.7784434416088177 0.0508485036008635 0.3686212359210350	-0.114767
C	0.7312868173986042 0.0939250868342856 0.3703266877549294	-0.110246
C	0.6279108745673389 0.1818777268219262 0.3724001641038017	-0.167161
C	0.5806888990703922 0.2247874440079772 0.3698290961447928	0.082886
C	0.5803868935123029 0.4006750168540948 0.3672471799016620	0.087380
C	0.6246877239896585 0.4474938369726836 0.3684977224191691	-0.163308
C	0.7215565583911823 0.5508485086008673 0.3686212359210350	-0.114767
C	0.7687131826013958 0.5939250988342789 0.3703266877549294	-0.110246
C	0.8720891664326610 0.6818776798219260 0.3724001641038017	-0.167161
C	0.9193111429296041 0.7247874200079754 0.3698290961447929	0.082885
C	0.0803868985123071 0.9006749708540979 0.3672471799016620	0.087380
C	0.1246877029896530 0.9474937909726865 0.3684977224191691	-0.163308
C	0.2215565583911821 0.0508485036008635 0.3686212359210350	-0.114767
C	0.2687132026013977 0.0939250868342856 0.3703266877549294	-0.110246
C	0.3720891254326611 0.1818777268219262 0.3724001641038017	-0.167162
C	0.4193111009296077 0.2247874440079772 0.3698290961447929	0.082885
C	0.4196131064876967 0.5993249831459054 0.8672471489016631	0.087379
C	0.3753122760103417 0.5525061630273168 0.8684976604191709	-0.163307
C	0.2784434206088195 0.4491514913991323 0.8686212359210350	-0.114768
C	0.2312867973986024 0.4060749011657203 0.8703267187549287	-0.110246
C	0.1279108745673388 0.3181222731780737 0.8724002261038000	-0.167162
C	0.0806889040703962 0.2752125329920246 0.8698291581447907	0.082886
C	0.9196131484876935 0.0993249831459052 0.8672471489016631	0.087379
C	0.8753123180103449 0.0525061570273160 0.8684976604191709	-0.163307
C	0.7784434416088177 0.9491515373991365 0.8686212359210350	-0.114737
C	0.7312868173986042 0.9060749471657178 0.8703267187549287	-0.110325
C	0.6279108745673389 0.8181222731780736 0.8724002261037999	-0.167161
C	0.5806888990703922 0.7752125799920246 0.8698291581447907	0.082885
C	0.4201208580438993 0.4004626821534835 0.1312856000796017	0.087904
C	0.3757480491805139 0.4472454197645613 0.1289325165027984	-0.165069
C	0.2780809980929706 0.5508517892697131 0.1282454907758794	-0.115688
C	0.2309790154818297 0.5940627960707325 0.1275854446278162	-0.112183
C	0.1276919843006117 0.6823184252392982 0.1276324091961970	-0.164562
C	0.0804743229356211 0.7252215245664424 0.1310857230944253	0.082097
C	0.9201209000438956 0.9004626361534867 0.1312856000796017	0.087905
C	0.8757480911805169 0.9472453737645643 0.1289325165027984	-0.165070
C	0.7780810190929695 0.0508517842697087 0.1282454907758794	-0.115690
C	0.7309790354818315 0.0940627840707388 0.1275854446278162	-0.112182
C	0.6276919843006117 0.1823184722392984 0.1276324091961970	-0.164562
C	0.5804743179356173 0.2252215485664444 0.1310857230944253	0.082097
C	0.5798791419561008 0.5995373178465166 0.6312856390796014	0.087904
C	0.6242519508194866 0.5527545802354390 0.6289325325027999	-0.165069
C	0.7219189809070305 0.4491482107302874 0.6282454597758804	-0.115689
C	0.7690209645181685 0.4059372039292674 0.6275853986278199	-0.112183
C	0.8723080566993882 0.3176815277607016 0.6276323941961923	-0.164562
C	0.9195257240643790 0.2747784284335576 0.6310857070944237	0.082098
C	0.0798791469561049 0.0995373178465165 0.6312856390796014	0.087904
C	0.1242519298194810 0.0527545742354383 0.6289325325027999	-0.165070
C	0.2219189809070310 0.9491482567302907 0.6282454597758804	-0.115686
C	0.2690209845181702 0.9059372499292642 0.6275853986278199	-0.112186
C	0.3723080156993884 0.8176815277607015 0.6276323941961922	-0.164562
C	0.4195256820643828 0.7747784754335576 0.6310857070944237	0.082098
C	0.3510882479111991 0.5255697094896740 0.7483317638511949	0.121145
C	0.3031920804112135 0.4750267150102374 0.7482308205510090	0.076529
C	0.2049232423023136 0.3840488106021053 0.7492012291080732	0.063211
C	0.1535450108505446 0.3399767486524857 0.7497022258023777	0.103921
C	0.8510882889111988 0.0255697074896737 0.7483317638511949	0.121151
C	0.8031921434112148 0.9750267610102412 0.7482308205510090	0.076510
C	0.7049232423023134 0.8840488106021052 0.7492012291080732	0.063229
C	0.6535450318505434 0.8399767486524859 0.7497022258023777	0.103919
C	0.6489117520888010 0.4744302905103261 0.2483317488511972	0.121145
C	0.6968078565887852 0.5249732389897588 0.2482308055510113	0.076528
C	0.7950767576976866 0.6159511893978948 0.2492012141080745	0.063211
C	0.8464549681494566 0.6600232513475141 0.2497022108023799	0.103920
C	0.1489117420888001 0.9744302435103257 0.2483317488511972	0.121146
C	0.1968078985887815 0.0249732759897582 0.2482308055510113	0.076529
C	0.2950767576976862 0.1159512003978993 0.2492012141080745	0.063211
C	0.3464549891494554 0.1600232743475125 0.2497022108023799	0.103920
C	0.6489117520888010 0.5255697094896740 0.7483317638511949	0.121144
C	0.6968078565887852 0.4750267150102374 0.7482308205510090	0.076529
C	0.7950767576976866 0.3840488106021053 0.7492012291080732	0.063211
C	0.8464549681494566 0.3399767486524857 0.7497022258023777	0.103921
C	0.1489117420888001 0.0255697074896737 0.7483317638511949	0.121151
C	0.1968078985887815 0.9750267610102412 0.7482308205510090	0.076510
C	0.2950767576976862 0.8840488106021052 0.7492012291080732	0.063229
C	0.3464549891494554 0.8399767486524859 0.7497022258023777	0.103920
C	0.3510882479111991 0.4744302905103261 0.2483317488511972	0.121145
C	0.3031920804112135 0.5249732389897588 0.2482308055510113	0.076528
C	0.2049232423023136 0.6159511893978948 0.2492012141080745	0.063211
C	0.1535450108505446 0.6600232513475141 0.2497022108023799	0.103921
C	0.8510882889111988 0.9744302435103257 0.2483317488511972	0.121146
C	0.8031921434112148 0.0249732759897582 0.2482308055510113	0.076529
C	0.7049232423023134 0.1159512003978993 0.2492012141080745	0.063212
C	0.6535450318505434 0.1600232743475125 0.2497022108023799	0.103921
H	0.4391028289542775 0.6198064344524218 0.5374737384876127	0.117961
H	0.3621734507806698 0.5395551146563702 0.5273394721481711	0.106332
H	0.2948026288610289 0.4615216976531576 0.5288198273288854	0.085033
H	0.2148331741177721 0.3894865235354295 0.5284900627190493	0.104855
H	0.1438065612617252 0.3323377001056816 0.5275132386299247	0.124368
H	0.0599153963862044 0.2553357569508994 0.5383173123887891	0.120284
H	0.9391028289542770 0.1198064114524231 0.5374737384876127	0.117961
H	0.8621734507806700 0.0395551346563647 0.5273394721481711	0.106332
H	0.7948025668610306 0.9615216976531579 0.5288198273288854	0.085032
H	0.7148331531177743 0.8894865705354296 0.5284900627190493	0.104856
H	0.6438065612617251 0.8323377231056797 0.5275132386299247	0.124368
H	0.5599153813862071 0.7553357569508999 0.5383173123887891	0.120284
H	0.5608971710457230 0.3801935885475769 0.0374737084876100	0.117961
H	0.6378265492193300 0.4604448853436298 0.0273394721481711	0.106332
H	0.7051974331389694 0.5384783023468421 0.0288198893288840	0.085033
H	0.7851668468822257 0.6105134764645708 0.0284900317190428	0.104856
H	0.8561933967382714 0.6676623238943207 0.0275132696299236	0.124368
H	0.9400846606137893 0.7446642430491001 0.0383172813887899	0.120284
H	0.0608971560457178 0.8801936115475820 0.0374737084876100	0.117961
H	0.1378265802193293 0.9604448393436331 0.0273394721481711	0.106329
H	0.2051973921389694 0.0384783083468428 0.0288198893288840	0.085034
H	0.2851668468822260 0.1105134644645693 0.0284900317190428	0.104856
H	0.3561934387382750 0.1676623118943194 0.0275132696299236	0.124368
H	0.4400845776137933 0.2446642190490985 0.0383172813887899	0.120284
H	0.5615598949103890 0.6196530009145286 -0.0388444494913211	0.117396
H	0.6387222214086185 0.5389120195032218 -0.0304401663597109	0.104071
H	0.7043826059565805 0.4614704384512766 -0.0323399571214727	0.085770
H	0.7845982410913007 0.3898226786075298 -0.0302117800613900	0.104125
H	0.8556950337072277 0.3331718148486408 -0.0279262919258089	0.123389
H	0.9398439061535804 0.2559110294213942 -0.0373083790745236	0.118669
H	0.0615598799103839 0.1196529779145302 -0.0388444494913211	0.117396
H	0.1387222524086173 0.0389120395032164 -0.0304401663597109	0.104071
H	0.2043825649565813 0.9614704384512766 -0.0323399571214727	0.085806
H	0.2845982410913008 0.8898227256075298 -0.0302117800613900	0.104137
H	0.3556950757072312 0.8331718378486392 -0.0279262919258089	0.123390
H	0.4398438231535844 0.7559110294213944 -0.0373083790745236	0.118669
H	0.4384401050896112 0.3803470220854699 0.4611555715086769	0.117395
H	0.3612777785913815 0.4610879804967782 0.4695598586402872	0.104071
H	0.2956174560434169 0.5385295615487234 0.4676600198785288	0.085770
H	0.2154017799086973 0.6101773213924705 0.4697882639386065	0.104126
H	0.1443049242927686 0.6668282091513611 0.4720736580741871	0.123389
H	0.0601561508464135 0.7440889705786056 0.4626916049254818	0.118669
H	0.9384401050896110 0.8803470450854752 0.4611555715086769	0.117395
H	0.8612777785913815 0.9610879344967815 0.4695598586402872	0.104071
H	0.7956173940434195 0.0385295675487240 0.4676600198785288	0.085770
H	0.7154017589086993 0.1101773093924693 0.4697882639386065	0.104126
H	0.6443049242927689 0.1668281971513603 0.4720736580741871	0.123389
H	0.5601561358464160 0.2440889465786037 0.4626916049254818	0.118669
H	0.5615598949103890 0.3803470220854699 0.4611555715086769	0.117395
H	0.6387222214086185 0.4610879804967782 0.4695598586402872	0.104071
H	0.7043826059565805 0.5385295615487234 0.4676600198785288	0.085770
H	0.7845982410913007 0.6101773213924705 0.4697882639386065	0.104126
H	0.8556950337072277 0.6668282091513611 0.4720736580741871	0.123389
H	0.9398439061535804 0.7440889705786056 0.4626916049254818	0.118669
H	0.0615598799103839 0.8803470450854752 0.4611555715086769	0.117395
H	0.1387222524086173 0.9610879344967815 0.4695598586402872	0.104071
H	0.2043825649565813 0.0385295675487240 0.4676600198785288	0.085770
H	0.2845982410913008 0.1101773093924693 0.4697882639386065	0.104126
H	0.3556950757072312 0.1668281971513603 0.4720736580741871	0.123389
H	0.4398438231535844 0.2440889465786037 0.4626916049254818	0.118669
H	0.4384401050896112 0.6196530009145286 -0.0388444494913211	0.117395
H	0.3612777785913815 0.5389120195032218 -0.0304401663597109	0.104071
H	0.2956174560434169 0.4614704384512766 -0.0323399571214728	0.085770
H	0.2154017799086973 0.3898226786075298 -0.0302117800613900	0.104125
H	0.1443049242927686 0.3331718148486408 -0.0279262919258089	0.123390
H	0.0601561508464135 0.2559110294213942 -0.0373083790745236	0.118669
H	0.9384401050896110 0.1196529779145302 -0.0388444494913211	0.117395
H	0.8612777785913815 0.0389120395032164 -0.0304401663597109	0.104071
H	0.7956173940434195 0.9614704384512766 -0.0323399571214727	0.085806
H	0.7154017589086993 0.8898227256075298 -0.0302117800613900	0.104137
H	0.6443049242927689 0.8331718378486392 -0.0279262919258089	0.123390
H	0.5601561358464160 0.7559110294213944 -0.0373083790745236	0.118669
H	0.4391028289542775 0.3801935885475769 0.0374737084876100	0.117961
H	0.3621734507806698 0.4604448853436298 0.0273394721481711	0.106332
H	0.2948026288610289 0.5384783023468421 0.0288198893288840	0.085033
H	0.2148331741177721 0.6105134764645708 0.0284900317190428	0.104856
H	0.1438065612617252 0.6676623238943207 0.0275132696299236	0.124368
H	0.0599153963862044 0.7446642430491001 0.0383172813887899	0.120285
H	0.9391028289542770 0.8801936115475820 0.0374737084876100	0.117961
H	0.8621734507806700 0.9604448393436331 0.0273394721481711	0.106328
H	0.7948025668610306 0.0384783083468428 0.0288198893288840	0.085034
H	0.7148331531177743 0.1105134644645693 0.0284900317190428	0.104856
H	0.6438065612617251 0.1676623118943194 0.0275132696299236	0.124368
H	0.5599153813862071 0.2446642190490985 0.0383172813887899	0.120285
H	0.5608971710457230 0.6198064344524218 0.5374737384876127	0.117962
H	0.6378265492193300 0.5395551146563702 0.5273394721481711	0.106332
H	0.7051974331389694 0.4615216976531576 0.5288198273288854	0.085033
H	0.7851668468822257 0.3894865235354295 0.5284900627190493	0.104855
H	0.8561933967382714 0.3323377001056816 0.5275132386299247	0.124369
H	0.9400846606137893 0.2553357569508994 0.5383173123887891	0.120284
H	0.0608971560457178 0.1198064114524231 0.5374737384876127	0.117962
H	0.1378265802193293 0.0395551346563647 0.5273394721481711	0.106332
H	0.2051973921389694 0.9615216976531579 0.5288198273288854	0.085032
H	0.2851668468822260 0.8894865705354296 0.5284900627190493	0.104856
H	0.3561934387382750 0.8323377231056797 0.5275132386299247	0.124369
H	0.4400845776137933 0.7553357569508999 0.5383173123887891	0.120284
Ni	0.5000000000000000 0.6882047824851123 0.7509933783580256	0.395999
Ni	-0.0000000000000000 0.1882047824851122 0.7509933783580256	0.395999
Ni	0.5000000000000000 0.3117952175148875 0.2509933633580277	0.395999
Ni	-0.0000000000000000 0.8117951705148874 0.2509933633580277	0.395999
F	0.5000000000000000 0.6845146172201723 0.4577071957871983	-0.655049
F	-0.0000000000000000 0.1845146512201752 0.4577071957871983	-0.655049
F	0.5000000000000000 0.3154853597798292 -0.0422928352128007	-0.655049
F	-0.0000000000000000 0.8154853367798310 -0.0422928352128007	-0.655049
F	0.4397889701298411 0.7503804288951603 0.2603099016763105	-0.618609
F	0.5597001851451472 0.6126928116872750 0.2612765446039755	-0.610804
F	0.9397889701298409 0.2503804748951567 0.2603099016763105	-0.618610
F	0.0597001851451470 0.1126928236872689 0.2612765446039755	-0.610804
F	0.5602110298701591 0.2496195251048435 0.7603099166763082	-0.618611
F	0.4402998148548531 0.3873071883127250 0.7612765596039736	-0.610802
F	0.0602110088701608 0.7496195711048397 0.7603099166763082	-0.618611
F	0.9402998148548529 0.8873072343127288 0.7612765596039736	-0.610802
F	0.5602110298701591 0.7503804288951603 0.2603099016763105	-0.618609
F	0.4402998148548531 0.6126928116872750 0.2612765446039755	-0.610804
F	0.0602110088701608 0.2503804748951567 0.2603099016763105	-0.618610
F	0.9402998148548529 0.1126928236872689 0.2612765446039755	-0.610804
F	0.4397889701298411 0.2496195251048435 0.7603099166763082	-0.618611
F	0.5597001851451471 0.3873071883127250 0.7612765596039736	-0.610802
F	0.9397889701298409 0.7496195711048397 0.7603099166763082	-0.618611
F	0.0597001851451470 0.8873072343127288 0.7612765596039736	-0.610802
O	0.5000000000000000 0.6831277910263555 0.0538051594680497	-0.956486
O	-0.0000000000000000 0.1831278250263582 0.0538051594680497	-0.956486
O	0.5000000000000000 0.3168721859736464 0.5538051824680481	-0.956486
O	-0.0000000000000000 0.8168721629736478 0.5538051824680481	-0.956486
N	0.4420412381380671 0.6223668354807076 0.7496237506021051	-0.141475
N	0.5581625227374907 0.7535561519936128 0.7507619377575367	-0.150572
N	0.9420412791380671 0.1223668464807051 0.7496237506021051	-0.141475
N	0.0581625387374919 0.2535561049936127 0.7507619377575367	-0.150572
N	0.5579587618619327 0.3776331415192941 0.2496237356021072	-0.141476
N	0.4418374772625094 0.2464438710063855 0.2507619227575392	-0.150571
N	0.0579587618619327 0.8776331645192924 0.2496237356021072	-0.141476
N	0.9418374772625093 0.7464438480063872 0.2507619227575392	-0.150571
N	0.5579587618619327 0.6223668354807076 0.7496237506021051	-0.141475
N	0.4418374772625094 0.7535561519936128 0.7507619377575367	-0.150572
N	0.0579587618619327 0.1223668464807051 0.7496237506021051	-0.141475
N	0.9418374772625093 0.2535561049936127 0.7507619377575367	-0.150572
N	0.4420412381380671 0.3776331415192941 0.2496237356021072	-0.141476
N	0.5581625227374907 0.2464438710063855 0.2507619227575392	-0.150571
N	0.9420412791380671 0.8776331645192924 0.2496237356021072	-0.141476
N	0.0581625387374919 0.7464438480063872 0.2507619227575392	-0.150571
Nb	0.5000000000000000 0.6819780611189394 0.2374743631009337	2.449768
Nb	-0.0000000000000000 0.1819781071189358 0.2374743631009337	2.449768
Nb	0.5000000000000000 0.3180218928810642 0.7374743781009315	2.449768
Nb	-0.0000000000000000 0.8180219388810606 0.7374743781009314	2.449768
	  	
