#======================================================================

# CRYSTAL DATA

#----------------------------------------------------------------------

data_VESTA_phase_1


_pd_phase_name                         NbOFFIVE_2_Fe
_cell_length_a                         14.05106
_cell_length_b                         14.05106
_cell_length_c                         7.98773
_cell_angle_alpha                      90
_cell_angle_beta                       90
_cell_angle_gamma                      90
_symmetry_space_group_name_H-M         P 1
_symmetry_Int_Tables_number            1

loop_
_symmetry_equiv_pos_as_xyz
   x, y, z

loop_
   _atom_site_label
   _atom_site_fract_x
   _atom_site_fract_y
   _atom_site_fract_z
   _atom_site_charge
C	0.5321577078887144 0.7055667353674020 0.1331223421691804	0.098499
C	0.5321952958726365 0.8042549228208556 0.1393406251889898	-0.169615
C	0.4678422921112855 0.2944332996325973 0.1331223421691804	0.098497
C	0.4678047041273631 0.1957451121791435 0.1393406251889898	-0.169612
C	0.2944332996325973 0.5321577078887144 0.1331223421691804	0.098499
C	0.1957451121791435 0.5321952958726365 0.1393406251889898	-0.169615
C	0.7055667353674020 0.4678422921112855 0.1331223421691804	0.098497
C	0.8042549228208556 0.4678047041273631 0.1393406251889898	-0.169612
C	0.4687263121366663 0.7052305964886080 0.8653769351362756	0.096212
C	0.4679668761253389 0.8039942081090791 0.8596103380002238	-0.168391
C	0.5312736878633334 0.2947694385113912 0.8653769351362756	0.096209
C	0.5320331238746612 0.1960058268909204 0.8596103380002238	-0.168389
C	0.7052305964886080 0.5312736878633334 0.8653769351362756	0.096209
C	0.8039942081090791 0.5320331238746612 0.8596103380002238	-0.168389
C	0.2947694385113912 0.4687263121366663 0.8653769351362756	0.096212
C	0.1960058268909204 0.4679668761253389 0.8596103380002238	-0.168391
C	0.5000683069968244 0.1440085670190863 0.9993647910750266	0.166608
C	0.5001136837579345 0.0433823292436090 0.9993511386035555	-0.094151
C	0.4999316930031755 0.8559914329809135 0.9993647910750266	0.166574
C	0.4998863162420655 0.9566176627563904 0.9993511386035555	-0.093882
C	0.8559914329809135 0.5000683069968244 0.9993647910750266	0.166608
C	0.9566176627563904 0.5001136837579345 0.9993511386035555	-0.094151
C	0.1440085670190863 0.4999316930031755 0.9993647910750266	0.166574
C	0.0433823292436090 0.4998863162420655 0.9993511386035555	-0.093882
H	0.5578687046294454 0.6638275138952229 0.2389880846709680	0.095126
H	0.5576074204311672 0.8410277944831144 0.2506171236082958	0.127939
H	0.4421312953705546 0.3361724161047714 0.2389880846709680	0.095125
H	0.4423925795688330 0.1589722055168854 0.2506171236082958	0.127940
H	0.3361724161047714 0.5578687046294454 0.2389880846709680	0.095126
H	0.1589722055168854 0.5576074204311672 0.2506171236082958	0.127939
H	0.6638275138952229 0.4421312953705546 0.2389880846709680	0.095125
H	0.8410277944831144 0.4423925795688330 0.2506171236082958	0.127940
H	0.4434681533935894 0.6633228323419481 0.7593734581206307	0.102291
H	0.4422573367246725 0.8406712963461105 0.7484001054593047	0.127811
H	0.5565318466064106 0.3366770976580389 0.7593734581206307	0.102291
H	0.5577426632753274 0.1593287036538894 0.7484001054593047	0.127813
H	0.6633228323419481 0.5565318466064106 0.7593734581206307	0.102291
H	0.8406712963461105 0.5577426632753274 0.7484001054593047	0.127813
H	0.3366770976580389 0.4434681533935894 0.7593734581206307	0.102291
H	0.1593287036538894 0.4422573367246725 0.7484001054593047	0.127811
Fe	0.5000000000000000 0.5000000000000000 0.0039155491336428	0.600559
Nb	0.5000000000000000 0.5000000000000000 0.4816790319352972	2.425298
F	0.5000000000000000 0.5000000000000000 0.7484363880730249	-0.576897
F	0.5965654329213952 0.5984748358203422 0.5094543695268587	-0.584415
F	0.4015251991796572 0.5965654329213952 0.5094543695268587	-0.584415
F	0.4034346020786040 0.4015251991796572 0.5094543695268587	-0.584415
F	0.5984748358203422 0.4034346020786040 0.5094543695268587	-0.584415
O	0.5000000000000000 0.5000000000000000 0.2565631636199857	-0.903473
N	0.4993548645964665 0.3438001081048597 0.9993521852502092	-0.184404
N	0.5006451354035333 0.6561999268951395 0.9993521852502092	-0.184403
N	0.6561999268951395 0.4993548645964665 0.9993521852502092	-0.184404
N	0.3438001081048597 0.5006451354035333 0.9993521852502092	-0.184404
	  	
