#======================================================================

# CRYSTAL DATA

#----------------------------------------------------------------------

data_VESTA_phase_1


_pd_phase_name                         NbOFFIVE_16_Zn_i
_cell_length_a                         25.19249
_cell_length_b                         25.19249
_cell_length_c                         7.81572
_cell_angle_alpha                      90
_cell_angle_beta                       90
_cell_angle_gamma                      90
_symmetry_space_group_name_H-M         P 1
_symmetry_Int_Tables_number            1

loop_
_symmetry_equiv_pos_as_xyz
   x, y, z

loop_
   _atom_site_label
   _atom_site_fract_x
   _atom_site_fract_y
   _atom_site_fract_z
   _atom_site_charge
C	0.4781162990099724 0.3865010114347661 0.3686218341928851	0.098552
C	0.4770771904252437 0.3313920703846118 0.3642067213297546	-0.171638
C	0.9551486099989969 0.6129533839218759 0.9436859066411832	-0.125805
C	0.9553153861303705 0.5578231739684349 0.9442750186272532	-0.123556
C	0.5218837389900307 0.6134989885652341 0.3686218341928851	0.098552
C	0.5229227715747600 0.6686078916153922 0.3642067213297546	-0.171639
C	0.0448513850009991 0.3870466160781239 0.9436859066411832	-0.125805
C	0.0446846188696265 0.4421768260315654 0.9442750186272532	-0.123556
C	0.6134989885652341 0.4781162990099724 0.3686218341928851	0.098552
C	0.6686078916153922 0.4770771904252437 0.3642067213297546	-0.171639
C	0.3870466160781239 0.9551486099989969 0.9436859066411832	-0.125805
C	0.4421768260315654 0.9553153861303705 0.9442750186272532	-0.123556
C	0.3865010114347661 0.5218837389900307 0.3686218341928851	0.098552
C	0.3313920703846118 0.5229227715747600 0.3642067213297546	-0.171638
C	0.6129533839218759 0.0448513850009991 0.9436859066411832	-0.125805
C	0.5578231739684349 0.0446846188696265 0.9442750186272532	-0.123556
C	0.5221758667825003 0.3866062318222300 0.6288257896554963	0.099438
C	0.5229086059821891 0.3315352492411936 0.6348734679822658	-0.172077
C	0.0448475936282054 0.6129525850648420 0.0563545944532251	-0.125857
C	0.0446838611490400 0.5578234001686168 0.0557481497504824	-0.123481
C	0.4778241712175029 0.6133937681777701 0.6288257896554963	0.099438
C	0.4770913560178149 0.6684647127588100 0.6348734679822658	-0.172077
C	0.9551524013717905 0.3870474149351584 0.0563545944532251	-0.125857
C	0.9553161438509569 0.4421765998313835 0.0557481497504824	-0.123481
C	0.3866062318222300 0.4778241712175029 0.6288257896554963	0.099438
C	0.3315352492411936 0.4770913560178149 0.6348734679822658	-0.172076
C	0.6129525850648420 0.9551524013717905 0.0563545944532251	-0.125857
C	0.5578234001686168 0.9553161438509569 0.0557481497504824	-0.123481
C	0.6133937681777701 0.5221758667825003 0.6288257896554963	0.099438
C	0.6684647127588100 0.5229086059821891 0.6348734679822658	-0.172077
C	0.3870474149351584 0.0448475936282054 0.0563545944532251	-0.125857
C	0.4421765998313835 0.0446838611490400 0.0557481497504824	-0.123481
C	0.5448475986282095 0.8870474149351580 0.5563546024532258	-0.125857
C	0.5446838561490431 0.9421765998313832 0.5557481857504851	-0.123482
C	0.0221758497825025 0.1133937591777728 0.1288258216554919	0.099440
C	0.0229086439821849 0.1684647317588084 0.1348734679822661	-0.172077
C	0.4551524403717903 0.1129525750648409 0.5563546024532258	-0.125857
C	0.4553161438509569 0.0578233901686158 0.5557481857504851	-0.123482
C	0.9778240952174966 0.8866062318222299 0.1288258216554919	0.099440
C	0.9770913560178148 0.8315352492411939 0.1348734679822661	-0.172077
C	0.1129525750648409 0.5448475986282095 0.5563546024532258	-0.125857
C	0.0578233901686158 0.5446838561490431 0.5557481857504851	-0.123482
C	0.8866062318222299 0.0221758497825025 0.1288258216554919	0.099440
C	0.8315352492411939 0.0229086439821849 0.1348734679822661	-0.172077
C	0.8870474149351580 0.4551524403717903 0.5563546024532258	-0.125857
C	0.9421765998313832 0.4553161438509569 0.5557481857504851	-0.123482
C	0.1133937591777728 0.9778240952174966 0.1288258216554919	0.099440
C	0.1684647317588084 0.9770913560178148 0.1348734679822661	-0.172077
C	0.4551486489989967 0.8870466160781241 0.4436859066411836	-0.125804
C	0.4553153861303701 0.9421768260315651 0.4442750186272530	-0.123557
C	0.9781162230099661 0.1134989795652366 0.8686218341928846	0.098555
C	0.9770771904252440 0.1686079106153902 0.8642066893297523	-0.171637
C	0.5448513900010031 0.1129533739218753 0.4436859066411836	-0.125804
C	0.5446846138696295 0.0578231639684338 0.4442750186272530	-0.123557
C	0.0218837219900328 0.8865010114347659 0.8686218341928846	0.098555
C	0.0229228095747564 0.8313920703846117 0.8642066893297523	-0.171637
C	0.8870466160781241 0.5448513900010031 0.4436859066411836	-0.125804
C	0.9421768260315651 0.5446846138696295 0.4442750186272530	-0.123557
C	0.1134989795652366 0.0218837219900328 0.8686218341928846	0.098555
C	0.1686079106153902 0.0229228095747564 0.8642066893297523	-0.171637
C	0.1129533739218753 0.4551486489989967 0.4436859066411836	-0.125804
C	0.0578231639684338 0.4553153861303701 0.4442750186272530	-0.123557
C	0.8865010114347659 0.9781162230099661 0.8686218341928846	0.098555
C	0.8313920703846117 0.9770771904252440 0.8642066893297523	-0.171637
C	0.4999556456847786 0.3025572178544568 0.4997245260289208	0.173641
C	0.4999422860409868 0.2462307735077456 0.5000992899000806	-0.115822
C	0.4999941932916323 0.1978107940256781 0.5000713560806187	-0.094848
C	0.5000033742406937 0.1415017180588120 0.5000382606118586	0.124859
C	0.5000004398535839 0.0292516814230186 0.5000139997389319	0.065822
C	0.0000443543152213 0.8025572378544588 -0.0002754739710790	0.173640
C	0.0000577139590132 0.7462307925077438 0.0000992899000806	-0.115823
C	0.0000058067083676 0.6978107940256780 0.0000713560806187	-0.094845
C	-0.0000033742406938 0.6415017180588120 0.0000382606118584	0.124859
C	-0.0000004398535840 0.5292516774230183 0.0000139997389320	0.065823
C	0.5000443543152211 0.6974427241455452 0.4997245260289208	0.173641
C	0.5000577139590132 0.7537692454922522 0.5000992899000806	-0.115822
C	0.5000058067083677 0.8021891669743223 0.5000713560806187	-0.094848
C	0.4999966257593062 0.8584982429411884 0.5000382606118586	0.124859
C	0.4999995601464159 0.9707483615769814 0.5000139997389319	0.065822
C	-0.0000443543152213 0.1974427621455415 -0.0002754739710790	0.173640
C	-0.0000577139590132 0.2537692264922546 0.0000992899000806	-0.115823
C	-0.0000058067083676 0.3021891859743202 0.0000713560806187	-0.094845
C	0.0000033742406938 0.3584982819411880 0.0000382606118584	0.124859
C	0.0000004398535840 0.4707483225769817 0.0000139997389320	0.065823
C	0.6974427241455452 0.4999556456847786 0.4997245260289208	0.173641
C	0.7537692454922522 0.4999422860409868 0.5000992899000806	-0.115822
C	0.8021891669743223 0.4999941932916323 0.5000713560806187	-0.094848
C	0.8584982429411884 0.5000033742406937 0.5000382606118586	0.124859
C	0.9707483615769814 0.5000004398535839 0.5000139997389319	0.065822
C	0.1974427621455415 0.0000443543152213 -0.0002754739710790	0.173640
C	0.2537692264922546 0.0000577139590132 0.0000992899000806	-0.115823
C	0.3021891859743202 0.0000058067083676 0.0000713560806187	-0.094845
C	0.3584982819411880 -0.0000033742406938 0.0000382606118584	0.124859
C	0.4707483225769817 -0.0000004398535840 0.0000139997389320	0.065823
C	0.3025572178544568 0.5000443543152211 0.4997245260289208	0.173641
C	0.2462307735077456 0.5000577139590132 0.5000992899000806	-0.115822
C	0.1978107940256781 0.5000058067083677 0.5000713560806187	-0.094848
C	0.1415017180588120 0.4999966257593062 0.5000382606118586	0.124859
C	0.0292516814230186 0.4999995601464159 0.5000139997389319	0.065822
C	0.8025572378544588 -0.0000443543152213 -0.0002754739710790	0.173640
C	0.7462307925077438 -0.0000577139590132 0.0000992899000806	-0.115823
C	0.6978107940256780 -0.0000058067083676 0.0000713560806187	-0.094845
C	0.6415017180588120 0.0000033742406938 0.0000382606118584	0.124859
C	0.5292516774230183 0.0000004398535840 0.0000139997389320	0.065823
H	0.4610410400757555 0.4098022622915202 0.2644246355382812	0.099553
H	0.4588739471320298 0.3110454517235992 0.2562135496323124	0.125144
H	0.9204646798374444 0.6346346863908947 0.8983325963338799	0.111184
H	0.9206980580491171 0.5364470440749552 0.8965463248121693	0.105605
H	0.5389589599242444 0.5901977757084762 0.2644246355382812	0.099553
H	0.5411260908679665 0.6889545672764058 0.2562135496323124	0.125144
H	0.0795353201625555 0.3653653516091018 0.8983325963338799	0.111184
H	0.0793019229508847 0.4635529559250446 0.8965463248121693	0.105605
H	0.5901977757084762 0.4610410400757555 0.2644246355382812	0.099553
H	0.6889545672764058 0.4588739471320298 0.2562135496323124	0.125144
H	0.3653653516091018 0.9204646798374444 0.8983325963338799	0.111184
H	0.4635529559250446 0.9206980580491171 0.8965463248121693	0.105605
H	0.4098022622915202 0.5389589599242444 0.2644246355382812	0.099553
H	0.3110454517235992 0.5411260908679665 0.2562135496323124	0.125144
H	0.6346346863908947 0.0795353201625555 0.8983325963338799	0.111184
H	0.5364470440749552 0.0793019229508847 0.8965463248121693	0.105605
H	0.5391861713833580 0.4100809336806937 0.7326095570663951	0.093942
H	0.5408802436388281 0.3113761304747616 0.7436236346021088	0.125314
H	0.0795317332304112 0.6346358303125362 0.1016997387661697	0.111171
H	0.0793019630150802 0.5364485726649761 0.1034775072076618	0.105547
H	0.4608138286166421 0.5899191043193025 0.7326095570663951	0.093942
H	0.4591197943611676 0.6886238885252435 0.7436236346021088	0.125314
H	0.9204682667695886 0.3653642076874600 0.1016997387661697	0.111171
H	0.9206980179849215 0.4635514273350239 0.1034775072076618	0.105547
H	0.4100809336806937 0.4608138286166421 0.7326095570663951	0.093942
H	0.3113761304747616 0.4591197943611676 0.7436236346021088	0.125314
H	0.6346358303125362 0.9204682667695886 0.1016997387661697	0.111171
H	0.5364485726649761 0.9206980179849215 0.1034775072076618	0.105547
H	0.5899191043193025 0.5391861713833580 0.7326095570663951	0.093942
H	0.6886238885252435 0.5408802436388281 0.7436236346021088	0.125314
H	0.3653642076874600 0.0795317332304112 0.1016997387661697	0.111171
H	0.4635514273350239 0.0793019630150802 0.1034775072076618	0.105547
H	0.5795316952304154 0.8653641696874638 0.6016997627661717	0.111171
H	0.5793019440150825 0.9635513893350278 0.6034775232076628	0.105547
H	0.0391861733833582 0.0899190663193064 0.2326095570663951	0.093941
H	0.0408802056388325 0.1886238695252385 0.2436236346021085	0.125314
H	0.4204682667695889 0.1346358013125373 0.6016997627661717	0.111171
H	0.4206980559849178 0.0364485896649739 0.6034775232076628	0.105548
H	0.9608138666166451 0.9100809336806935 0.2326095570663951	0.093941
H	0.9591197943611679 0.8113761494747597 0.2436236346021085	0.125314
H	0.1346358013125373 0.5795316952304154 0.6016997627661717	0.111171
H	0.0364485896649739 0.5793019440150825 0.6034775232076628	0.105548
H	0.9100809336806935 0.0391861733833582 0.2326095570663951	0.093941
H	0.8113761494747597 0.0408802056388325 0.2436236346021085	0.125314
H	0.8653641696874638 0.4204682667695889 0.6016997627661717	0.111171
H	0.9635513893350278 0.4206980559849178 0.6034775232076628	0.105547
H	0.0899190663193064 0.9608138666166451 0.2326095570663951	0.093941
H	0.1886238695252385 0.9591197943611679 0.2436236346021085	0.125314
H	0.4204646798374443 0.8653653136091053 0.3983325643338771	0.111185
H	0.4206980960491134 0.9635529179250487 0.3965463888121675	0.105606
H	0.9610410780757588 0.0901977377084798 0.7644246515382823	0.099552
H	0.9588739471320296 0.1889545482764008 0.7562135176323168	0.125142
H	0.5795352821625596 0.1346346573908957 0.3983325643338771	0.111185
H	0.5793019039508869 0.0364470610749533 0.3965463888121675	0.105606
H	0.0389589619242444 0.9098022622915198 0.7644246515382823	0.099552
H	0.0411260528679703 0.8110454707235973 0.7562135176323168	0.125142
H	0.8653653136091053 0.5795352821625596 0.3983325643338771	0.111185
H	0.9635529179250487 0.5793019039508869 0.3965463888121675	0.105606
H	0.0901977377084798 0.0389589619242444 0.7644246515382823	0.099552
H	0.1889545482764008 0.0411260528679703 0.7562135176323168	0.125142
H	0.1346346573908957 0.4204646798374443 0.3983325643338771	0.111185
H	0.0364470610749533 0.4206980960491134 0.3965463888121675	0.105606
H	0.9098022622915198 0.9610410780757588 0.7644246515382823	0.099552
H	0.8110454707235973 0.9588739471320296 0.7562135176323168	0.125142
Zn	0.5000000000000000 0.5000000000000000 0.5055354737094517	0.778180
Zn	-0.0000000000000000 0.0000000000000000 0.0055354737094521	0.778172
Nb	0.5000000000000000 0.5000000000000000 -0.0151930641832816	2.443178
Nb	-0.0000000000000000 0.0000000000000000 0.4848069358167185	2.443180
F	0.5000000000000000 0.5000000000000000 0.2471682275401700	-0.597912
F	-0.0000000000000000 0.0000000000000000 0.7471681795401659	-0.597911
F	0.5551877583177744 0.5545059967927560 0.0096204204392082	-0.589257
F	0.0545059687927606 0.0551877303177791 0.5096204204392082	-0.589257
F	0.4448122796822217 0.4454940412072404 0.0096204204392082	-0.589257
F	0.9454940032072440 0.9448122416822256 0.5096204204392082	-0.589257
F	0.4454940412072404 0.5551877583177744 0.0096204204392082	-0.589257
F	0.9448122416822256 0.0545059687927606 0.5096204204392082	-0.589257
F	0.5545059967927560 0.4448122796822217 0.0096204204392082	-0.589257
F	0.0551877303177791 0.9454940032072440 0.5096204204392082	-0.589257
O	0.5000000000000000 0.5000000000000000 0.7568503321218140	-0.929706
O	-0.0000000000000000 0.0000000000000000 0.2568503001218110	-0.929706
N	0.5002863497839436 0.4137413914442754 0.4983228463118165	-0.220867
N	-0.0002863497839438 0.9137414294442784 -0.0016771536881835	-0.220868
N	0.4997136502160562 0.5862586085557248 0.4983228463118165	-0.220867
N	0.0002863497839438 0.0862585805557223 -0.0016771536881835	-0.220868
N	0.5862586085557248 0.5002863497839436 0.4983228463118165	-0.220867
N	0.0862585805557223 -0.0002863497839438 -0.0016771536881835	-0.220868
N	0.4137413914442754 0.4997136502160562 0.4983228463118165	-0.220867
N	0.9137414294442784 0.0002863497839438 -0.0016771536881835	-0.220868
	  	
