#======================================================================

# CRYSTAL DATA

#----------------------------------------------------------------------

data_VESTA_phase_1


_pd_phase_name                         NbOFFIVE_1_Zn
_cell_length_a                         11.39733
_cell_length_b                         11.39733
_cell_length_c                         8.02860
_cell_angle_alpha                      90
_cell_angle_beta                       90
_cell_angle_gamma                      90
_symmetry_space_group_name_H-M         P 1
_symmetry_Int_Tables_number            1

loop_
_symmetry_equiv_pos_as_xyz
   x, y, z

loop_
   _atom_site_label
   _atom_site_fract_x
   _atom_site_fract_y
   _atom_site_fract_z
   _atom_site_charge
C	0.2502946910979074 0.4580916636426250 0.3679585216587249	0.104867
C	0.1282835576477663 0.4574643134348776 0.3626452630693617	-0.175503
C	0.7497053519020922 0.5419083793573749 0.3679585216587249	0.104867
C	0.8717163883522291 0.5425356865651224 0.3626452630693617	-0.175503
C	0.5419083793573749 0.2502946910979074 0.3679585216587249	0.104867
C	0.5425356865651224 0.1282835576477663 0.3626452630693617	-0.175503
C	0.4580916636426250 0.7497053519020922 0.3679585216587249	0.104867
C	0.4574643134348776 0.8717163883522291 0.3626452630693617	-0.175503
C	0.7501942808118222 0.4571450578281332 0.6303483588532268	0.104504
C	0.8720973090274748 0.4570294238582357 0.6358245245543703	-0.177567
C	0.2498057621881779 0.5428549851718669 0.6303483588532268	0.104504
C	0.1279026369725205 0.5429705761417644 0.6358245245543703	-0.177567
C	0.4571450578281332 0.2498057621881779 0.6303483588532268	0.104504
C	0.4570294238582357 0.1279026369725205 0.6358245245543703	-0.177567
C	0.5428549851718669 0.7501942808118222 0.6303483588532268	0.104504
C	0.5429705761417644 0.8720973090274748 0.6358245245543703	-0.177567
C	0.0646769187831251 0.5001030212193930 0.4991033504789186	0.102560
C	0.9353231022168805 0.4998969787806073 0.4991033504789186	0.102560
C	0.4998969787806073 0.0646769187831251 0.4991033504789186	0.102560
C	0.5001030212193930 0.9353231022168805 0.4991033504789186	0.102560
H	0.3023939261120616 0.4243713965322224 0.2644743257308107	0.099315
H	0.0833630233494720 0.4216813255931863 0.2541812947771513	0.121986
H	0.6976060528879326 0.5756286034677772 0.2644743257308107	0.099315
H	0.9166369606505268 0.5783186744068135 0.2541812947771513	0.121986
H	0.5756286034677772 0.3023939261120616 0.2644743257308107	0.099315
H	0.5783186744068135 0.0833630233494720 0.2541812947771513	0.121987
H	0.4243713965322224 0.6976060528879326 0.2644743257308107	0.099315
H	0.4216813255931863 0.9166369606505268 0.2541812947771513	0.121986
H	0.6982043044577463 0.4232484044558419 0.7337319734387903	0.092841
H	0.9171864760624168 0.4216240816684465 0.7443657633397124	0.121787
H	0.3017956745422486 0.5767515955441583 0.7337319734387903	0.092841
H	0.0828135079375817 0.5783759183315534 0.7443657633397124	0.121787
H	0.4232484044558419 0.3017956745422486 0.7337319734387903	0.092841
H	0.4216240816684465 0.0828135079375817 0.7443657633397124	0.121788
H	0.5767515955441583 0.6982043044577463 0.7337319734387903	0.092841
H	0.5783759183315534 0.9171864760624168 0.7443657633397124	0.121787
Zn	0.5000000000000000 0.5000000000000000 0.5073598308828219	0.764267
Nb	0.5000000000000000 0.5000000000000000 -0.0161783635768960	2.443079
O	0.5000000000000000 0.5000000000000000 0.7604228863458889	-0.931439
F	0.5000000000000000 0.5000000000000000 0.2445421476229219	-0.611123
F	0.3794832398225516 0.3786567050757642 0.0090435946670261	-0.589993
F	0.6205168031774481 0.6213433379242360 0.0090435946670261	-0.589993
F	0.6213433379242359 0.3794832398225515 0.0090435946670261	-0.589993
F	0.3786567050757642 0.6205168031774481 0.0090435946670261	-0.589993
N	0.3100690983869748 0.5005989723546537 0.4992864331132214	-0.220994
N	0.6899309446130254 0.4994010276453462 0.4992864331132214	-0.220994
N	0.4994010276453462 0.3100690983869748 0.4992864331132214	-0.220994
N	0.5005989723546537 0.6899309446130254 0.4992864331132214	-0.220994
	  	
