#======================================================================

# CRYSTAL DATA

#----------------------------------------------------------------------

data_VESTA_phase_1


_pd_phase_name                         NbOFFIVE_15_Cd_i
_cell_length_a                         30.34225
_cell_length_b                         29.72119
_cell_length_c                         8.35654
_cell_angle_alpha                      90
_cell_angle_beta                       90
_cell_angle_gamma                      90
_symmetry_space_group_name_H-M         P 1
_symmetry_Int_Tables_number            1

loop_
_symmetry_equiv_pos_as_xyz
   x, y, z

loop_
   _atom_site_label
   _atom_site_fract_x
   _atom_site_fract_y
   _atom_site_fract_z
   _atom_site_charge
C	0.9299950698821807 0.0990773920890083 0.8874280440188101	0.103255
C	0.8985715618852751 0.0651644206654640 0.8935771514464615	-0.165909
C	0.7695597624809086 0.9361106692671785 0.8958735352978786	-0.113616
C	0.7361533873412145 0.9043579404076472 0.8956714848552754	-0.116626
C	0.5717001114196144 0.7450274053936030 0.8875147343291636	0.101723
C	0.6047463482680020 0.7772877209219706 0.8933504947525487	-0.169717
C	0.4299950058821754 0.5990773750890103 0.8874280440188103	0.103350
C	0.3985715298852727 0.5651644006654621 0.8935771514464615	-0.165959
C	0.2695597624809086 0.4361106372671760 0.8958735352978786	-0.113616
C	0.2361533873412144 0.4043579404076472 0.8956714848552754	-0.116627
C	0.0717001514196110 0.2450274213936041 0.8875147343291636	0.101723
C	0.1047463402680087 0.2772877039219726 0.8933504947525487	-0.169717
C	0.0700049741178229 0.9009226249109897 0.3874280440188105	0.103350
C	0.1014284701147273 0.9348355993345379 0.3935771514464618	-0.165959
C	0.2304402695190872 0.0638893717328213 0.3958735352978788	-0.113632
C	0.2638466286587868 0.0956420515923520 0.3956714848552753	-0.116620
C	0.4282998565803899 0.2549725946063972 0.3875147033291649	0.101722
C	0.3952536517319980 0.2227122790780296 0.3933504947525484	-0.169717
C	0.5700049301178193 0.4009225919109908 0.3874280440188105	0.103262
C	0.6014284381147249 0.4348355673345349 0.3935771514464618	-0.165947
C	0.7304402375190914 0.5638893307328215 0.3958735352978787	-0.113632
C	0.7638466126587855 0.5956420595923528 0.3956714848552753	-0.116620
C	0.9282998885803856 0.7549725946063970 0.3875147033291649	0.101723
C	0.8952536517319980 0.7227122790780294 0.3933504947525484	-0.169716
C	0.0699988535737035 0.0990991501222491 0.6093810509975798	0.108060
C	0.1014589561147747 0.0651495803076408 0.6040180504886234	-0.165209
C	0.2304459024238195 0.9361070304605686 0.6040091049935629	-0.114232
C	0.2638475911975223 0.9043580425206200 0.6042092063880298	-0.116190
C	0.4283341706427595 0.7450252293951830 0.6096898873546479	0.102414
C	0.3952509109848244 0.7773173266187628 0.6044602530982116	-0.168096
C	0.5699988095736997 0.5990991331222518 0.6093810509975798	0.107911
C	0.6014589241147721 0.5651495603076392 0.6040180504886234	-0.165208
C	0.7304458704238240 0.4361069984605661 0.6040091049935629	-0.114233
C	0.7638475751975206 0.4043580425206198 0.6042092063880298	-0.116190
C	0.9283342026427551 0.2450252453951844 0.6096898873546478	0.102414
C	0.8952509109848242 0.2773173096187647 0.6044602530982116	-0.168095
C	0.9300011904263003 0.9009008668777482 0.1093810749975749	0.107912
C	0.8985410758852279 0.9348504396923608 0.1040180264886285	-0.165209
C	0.7695541295761760 0.0638930105394312 0.1040091439935624	-0.114218
C	0.7361524248024794 0.0956419494793796 0.1042092293880284	-0.116192
C	0.5716657973572449 0.2549747706048172 0.1096898793546475	0.102414
C	0.6047490890151758 0.2226826733812374 0.1044602690982132	-0.168095
C	0.4300011264262947 0.4009008338777496 0.1093810749975749	0.108068
C	0.3985410438852252 0.4348504076923582 0.1040180264886285	-0.165250
C	0.2695541295761761 0.5638929695394314 0.1040091439935624	-0.114218
C	0.2361524248024792 0.5956419574793800 0.1042092293880284	-0.116191
C	0.0716658373572410 0.7549747706048170 0.1096898793546475	0.102413
C	0.1047490810151820 0.7226826733812372 0.1044602690982132	-0.168096
C	0.0699988535737035 0.9009008668777482 0.1093810749975749	0.108068
C	0.1014589561147747 0.9348504396923608 0.1040180264886285	-0.165250
C	0.2304459024238195 0.0638930105394312 0.1040091439935624	-0.114217
C	0.2638475911975223 0.0956419494793796 0.1042092293880284	-0.116192
C	0.4283341706427595 0.2549747706048172 0.1096898793546475	0.102414
C	0.3952509109848244 0.2226826733812374 0.1044602690982132	-0.168095
C	0.5699988095736997 0.4009008338777496 0.1093810749975749	0.107912
C	0.6014589241147721 0.4348504076923582 0.1040180264886285	-0.165209
C	0.7304458704238240 0.5638929695394314 0.1040091439935624	-0.114217
C	0.7638475751975206 0.5956419574793800 0.1042092293880284	-0.116192
C	0.9283342026427551 0.7549747706048170 0.1096898793546475	0.102414
C	0.8952509109848242 0.7226826733812372 0.1044602690982132	-0.168095
C	0.9300011904263003 0.0990991501222491 0.6093810509975798	0.107904
C	0.8985410758852279 0.0651495803076408 0.6040180504886234	-0.165168
C	0.7695541295761760 0.9361070304605686 0.6040091049935629	-0.114233
C	0.7361524248024794 0.9043580425206200 0.6042092063880298	-0.116190
C	0.5716657973572449 0.7450252293951830 0.6096898873546478	0.102414
C	0.6047490890151758 0.7773173266187628 0.6044602530982116	-0.168095
C	0.4300011264262947 0.5990991331222518 0.6093810509975798	0.108067
C	0.3985410438852252 0.5651495603076392 0.6040180504886234	-0.165249
C	0.2695541295761761 0.4361069984605661 0.6040091049935629	-0.114232
C	0.2361524248024792 0.4043580425206198 0.6042092063880298	-0.116190
C	0.0716658373572410 0.2450252453951844 0.6096898873546478	0.102414
C	0.1047490810151820 0.2773173096187647 0.6044602530982116	-0.168096
C	0.9299950698821807 0.9009226249109897 0.3874280440188105	0.103262
C	0.8985715618852751 0.9348355993345379 0.3935771514464618	-0.165947
C	0.7695597624809086 0.0638893717328213 0.3958735352978787	-0.113632
C	0.7361533873412145 0.0956420515923520 0.3956714848552753	-0.116620
C	0.5717001114196144 0.2549725946063972 0.3875147033291649	0.101722
C	0.6047463482680020 0.2227122790780297 0.3933504947525484	-0.169716
C	0.4299950058821754 0.4009225919109908 0.3874280440188105	0.103350
C	0.3985715298852727 0.4348355673345349 0.3935771514464618	-0.165959
C	0.2695597624809086 0.5638893307328215 0.3958735352978787	-0.113632
C	0.2361533873412144 0.5956420595923528 0.3956714848552753	-0.116620
C	0.0717001514196110 0.7549725946063970 0.3875147033291649	0.101723
C	0.1047463402680087 0.7227122790780294 0.3933504947525484	-0.169717
C	0.0700049741178229 0.0990773920890083 0.8874280440188101	0.103343
C	0.1014284701147273 0.0651644206654640 0.8935771514464615	-0.165921
C	0.2304402695190872 0.9361106692671785 0.8958735352978786	-0.113616
C	0.2638466286587868 0.9043579404076472 0.8956714848552754	-0.116627
C	0.4282998565803899 0.7450274053936030 0.8875147343291636	0.101723
C	0.3952536517319980 0.7772877209219706 0.8933504947525487	-0.169717
C	0.5700049301178193 0.5990773750890103 0.8874280440188101	0.103262
C	0.6014284381147249 0.5651644006654621 0.8935771514464615	-0.165947
C	0.7304402375190914 0.4361106372671760 0.8958735352978786	-0.113616
C	0.7638466126587855 0.4043579404076472 0.8956714848552754	-0.116627
C	0.9282998885803856 0.2450274213936041 0.8875147343291636	0.101723
C	0.8952536517319980 0.2772877039219726 0.8933504947525487	-0.169716
C	0.6558772834555164 0.8270100302326479 0.7492061295538439	-0.103509
C	0.8820444840537532 0.0475975044708539 0.7488616656904545	0.161687
C	0.8205040763910993 0.9851239505384060 0.7497301438942250	-0.098367
C	0.6221358466737117 0.7942084093832168 0.7489469787468759	0.169552
C	0.7867380089700263 0.9524712725502672 0.7499365068085637	0.127199
C	0.7189005335805146 0.8878958879283734 0.7499423833173396	0.139436
C	0.6850184114725355 0.8553210694899930 0.7497729928770578	-0.100766
C	0.8493613030896912 0.0137328905309632 0.7491393351030122	-0.107527
C	0.1558772354555196 0.3270100632326473 0.7492061295538439	-0.103509
C	0.3820444520537510 0.5475974794708556 0.7488616656904545	0.161698
C	0.3205041083911021 0.4851239835384122 0.7497301438942250	-0.098395
C	0.1221358226737102 0.2942084093832171 0.7489469787468759	0.169552
C	0.2867380409700221 0.4524712725502676 0.7499365068085637	0.127204
C	0.2189005015805118 0.3878959209283722 0.7499423833173396	0.139436
C	0.1850184274725364 0.3553210694899925 0.7497729928770578	-0.100766
C	0.3493613350896867 0.5137329265309659 0.7491393351030122	-0.107448
C	0.3441227805444816 0.1729899527673469 0.2492061135538424	-0.103508
C	0.1179555319462476 0.9524025205291444 0.2488616496904535	0.161698
C	0.1794959236089006 0.0148760304615888 0.2497301278942235	-0.098390
C	0.3778641853262903 0.2057915906167830 0.2489469627468739	0.169552
C	0.2132619750299793 0.0475287104497274 0.2499364908085628	0.127192
C	0.2810994984194882 0.1121040950716289 0.2499423673173384	0.139436
C	0.3149815885274650 0.1446789305100075 0.2497729768770573	-0.100767
C	0.1506386809103075 0.9862670734690341 0.2491393191030113	-0.107447
C	0.8441227165444836 0.6729899697673521 0.2492061135538424	-0.103508
C	0.6179555159462468 0.4524025205291446 0.2488616496904535	0.161685
C	0.6794959236089007 0.5148760494615940 0.2497301278942235	-0.098391
C	0.8778641533262883 0.7057915906167832 0.2489469627468739	0.169552
C	0.7132619910299737 0.5475287274497328 0.2499364908085628	0.127192
C	0.7810994664194854 0.6121041120716266 0.2499423673173384	0.139436
C	0.8149815885274645 0.6446789305100070 0.2497729768770573	-0.100767
C	0.6506386969103088 0.4862671064690332 0.2491393191030113	-0.107445
C	0.3441227805444816 0.8270100302326479 0.7492061295538439	-0.103509
C	0.1179555319462476 0.0475975044708539 0.7488616656904545	0.161700
C	0.1794959236089006 0.9851239505384060 0.7497301438942250	-0.098366
C	0.3778641853262903 0.7942084093832168 0.7489469787468759	0.169552
C	0.2132619750299793 0.9524712725502672 0.7499365068085637	0.127199
C	0.2810994984194882 0.8878958879283734 0.7499423833173396	0.139436
C	0.3149815885274650 0.8553210694899930 0.7497729928770578	-0.100766
C	0.1506386809103075 0.0137328905309632 0.7491393351030122	-0.107529
C	0.8441227165444836 0.3270100632326473 0.7492061295538439	-0.103509
C	0.6179555159462468 0.5475974794708556 0.7488616656904545	0.161684
C	0.6794959236089007 0.4851239835384122 0.7497301438942250	-0.098396
C	0.8778641533262883 0.2942084093832171 0.7489469787468759	0.169553
C	0.7132619910299737 0.4524712725502676 0.7499365068085637	0.127204
C	0.7810994664194854 0.3878959209283722 0.7499423833173396	0.139436
C	0.8149815885274645 0.3553210694899925 0.7497729928770578	-0.100766
C	0.6506386969103088 0.5137329265309659 0.7491393351030122	-0.107446
C	0.6558772834555164 0.1729899527673469 0.2492061135538424	-0.103508
C	0.8820444840537532 0.9524025205291444 0.2488616496904535	0.161685
C	0.8205040763910993 0.0148760304615888 0.2497301278942235	-0.098390
C	0.6221358466737117 0.2057915906167830 0.2489469627468739	0.169552
C	0.7867380089700263 0.0475287104497274 0.2499364908085628	0.127192
C	0.7189005335805146 0.1121040950716289 0.2499423673173384	0.139436
C	0.6850184114725355 0.1446789305100075 0.2497729768770573	-0.100767
C	0.8493613030896912 0.9862670734690341 0.2491393191030113	-0.107445
C	0.1558772354555196 0.6729899697673521 0.2492061135538424	-0.103508
C	0.3820444520537510 0.4524025205291446 0.2488616496904535	0.161698
C	0.3205041083911021 0.5148760494615940 0.2497301278942235	-0.098390
C	0.1221358226737102 0.7057915906167832 0.2489469627468739	0.169552
C	0.2867380409700221 0.5475287274497328 0.2499364908085628	0.127192
C	0.2189005015805118 0.6121041120716266 0.2499423673173384	0.139436
C	0.1850184274725364 0.6446789305100070 0.2497729768770573	-0.100767
C	0.3493613350896867 0.4862671064690332 0.2491393191030113	-0.107447
H	0.9435801658598415 0.1137058275947143 -0.0034645711624097	0.092393
H	0.8868538033393369 0.0525168697495008 0.0083151576318890	0.119909
H	0.7829624835706227 0.9487759370737507 0.0082200917777941	0.107025
H	0.7228414413169151 0.8916648676896438 0.0079901773893581	0.115271
H	0.5574466242920276 0.7311256167042566 -0.0032910203512501	0.091445
H	0.6170140814174218 0.7892688736012654 0.0080872249774039	0.124966
H	0.4435802308598364 0.6137058025947156 -0.0034645711624097	0.092383
H	0.3868538033393373 0.5525168367495013 0.0083151576318890	0.119916
H	0.2829624515706273 0.4487759700737501 0.0082200917777941	0.107025
H	0.2228414413169152 0.3916648346896446 0.0079901773893581	0.115271
H	0.0574465762920304 0.2311256327042576 -0.0032910203512501	0.091445
H	0.1170141294174255 0.2892688076012674 0.0080872249774039	0.124966
H	0.0564197861401615 0.8862941974052844 0.4965354138375926	0.092382
H	0.1131461966606627 0.9474831632504987 0.5083151576318889	0.119917
H	0.2170375484293726 0.0512240339262502 0.5082200917777938	0.107028
H	0.2771585586830850 0.1083351733103562 0.5079901463893517	0.115271
H	0.4425534407079674 0.2688743672957423 0.4967089876487507	0.091444
H	0.3829858545825801 0.2107311753987350 0.5080872519774098	0.124965
H	0.5564198341401585 0.3862941974052841 0.4965354138375926	0.092393
H	0.6131461966606631 0.4474831302504991 0.5083151576318889	0.119916
H	0.7170375164293773 0.5512240299262501 0.5082200917777938	0.107028
H	0.7771585586830849 0.6083351323103562 0.5079901463893517	0.115271
H	0.9425533757079724 0.7688743832957434 0.4967089876487507	0.091445
H	0.8829859185825782 0.7107311263987346 0.5080872519774098	0.124965
H	0.0565253971930287 0.1136038579777357 0.4998710717705680	0.098727
H	0.1132629109830020 0.0524068311314722 0.4895372308880994	0.119491
H	0.2170437044375209 0.9487758833621998 0.4916607731288201	0.107121
H	0.2771658283795675 0.8916608438452323 0.4919114112847366	0.115138
H	0.4424896806496553 0.7312405016365443 0.5001494896130948	0.098986
H	0.3829165575140910 0.7893748222373267 0.4899117542223025	0.125058
H	0.5565254451930258 0.6136038329777369 0.4998710717705681	0.098756
H	0.6132629109830019 0.5524067981314728 0.4895372308880994	0.119494
H	0.7170436724375256 0.4487759163621990 0.4916607731288201	0.107121
H	0.7771658283795672 0.3916608108452330 0.4919114112847366	0.115138
H	0.9424896156496601 0.2312405176365456 0.5001494896130948	0.098986
H	0.8829166215140891 0.2893747562373290 0.4899117542223025	0.125058
H	0.9434745548069742 0.8863961670222631 0.9998710407705693	0.098755
H	0.8867370890169981 0.9475932018685272 0.9895371998881005	0.119495
H	0.7829563275624744 0.0512240876378013 0.9916607411288175	0.107120
H	0.7228341716204328 0.1083391971547677 0.9919114112847368	0.115139
H	0.5575103843503399 0.2687594823634544 0.0001494896130949	0.098987
H	0.6170833784859109 0.2106252267626733 0.9899117542223023	0.125057
H	0.4434746198069691 0.3863961670222629 0.9998710407705693	0.098727
H	0.3867370890169980 0.4475931688685279 0.9895371998881005	0.119499
H	0.2829562955624790 0.5512240836378011 0.9916607411288175	0.107119
H	0.2228341716204323 0.6083391561547677 0.9919114112847368	0.115139
H	0.0575103363503427 0.7687594983634557 0.0001494896130949	0.098986
H	0.1170834264859147 0.7106251777626733 0.9899117542223023	0.125057
H	0.0565253971930287 0.8863961670222631 0.9998710407705693	0.098726
H	0.1132629109830020 0.9475932018685272 0.9895371998881005	0.119499
H	0.2170437044375209 0.0512240876378013 0.9916607411288175	0.107120
H	0.2771658283795675 0.1083391971547677 0.9919114112847368	0.115139
H	0.4424896806496553 0.2687594823634544 0.0001494896130949	0.098987
H	0.3829165575140910 0.2106252267626733 0.9899117542223023	0.125057
H	0.5565254451930258 0.3863961670222629 0.9998710407705693	0.098755
H	0.6132629109830019 0.4475931688685279 0.9895371998881005	0.119495
H	0.7170436724375256 0.5512240836378011 0.9916607411288175	0.107120
H	0.7771658283795672 0.6083391561547677 0.9919114112847368	0.115139
H	0.9424896156496601 0.7687594983634557 0.0001494896130949	0.098986
H	0.8829166215140891 0.7106251777626733 0.9899117542223023	0.125057
H	0.9434745548069742 0.1136038579777357 0.4998710717705680	0.098756
H	0.8867370890169981 0.0524068311314722 0.4895372308880994	0.119487
H	0.7829563275624744 0.9487758833621998 0.4916607731288201	0.107121
H	0.7228341716204328 0.8916608438452323 0.4919114112847366	0.115138
H	0.5575103843503399 0.7312405016365443 0.5001494896130948	0.098986
H	0.6170833784859109 0.7893748222373267 0.4899117542223025	0.125058
H	0.4434746198069691 0.6136038329777369 0.4998710717705680	0.098727
H	0.3867370890169980 0.5524067981314728 0.4895372308880994	0.119498
H	0.2829562955624790 0.4487759163621990 0.4916607731288201	0.107121
H	0.2228341716204323 0.3916608108452330 0.4919114112847366	0.115138
H	0.0575103363503427 0.2312405176365456 0.5001494896130948	0.098986
H	0.1170834264859147 0.2893747562373290 0.4899117542223025	0.125058
H	0.9435801658598415 0.8862941974052844 0.4965354138375926	0.092393
H	0.8868538033393369 0.9474831632504987 0.5083151576318889	0.119916
H	0.7829624835706227 0.0512240339262502 0.5082200917777938	0.107028
H	0.7228414413169151 0.1083351733103562 0.5079901463893517	0.115271
H	0.5574466242920276 0.2688743672957423 0.4967089876487507	0.091444
H	0.6170140814174218 0.2107311753987350 0.5080872519774098	0.124965
H	0.4435802308598364 0.3862941974052841 0.4965354138375926	0.092383
H	0.3868538033393373 0.4474831302504991 0.5083151576318889	0.119916
H	0.2829624515706273 0.5512240299262501 0.5082200917777938	0.107028
H	0.2228414413169152 0.6083351323103562 0.5079901463893517	0.115271
H	0.0574465762920304 0.7688743832957434 0.4967089876487507	0.091445
H	0.1170141294174255 0.7107311263987346 0.5080872519774098	0.124965
H	0.0564197861401615 0.1137058275947143 -0.0034645711624097	0.092383
H	0.1131461966606627 0.0525168697495008 0.0083151576318890	0.119910
H	0.2170375484293726 0.9487759370737507 0.0082200917777941	0.107025
H	0.2771585586830850 0.8916648676896438 0.0079901773893581	0.115271
H	0.4425534407079674 0.7311256167042566 -0.0032910203512501	0.091445
H	0.3829858545825801 0.7892688736012654 0.0080872249774039	0.124966
H	0.5564198341401585 0.6137058025947156 -0.0034645711624097	0.092393
H	0.6131461966606631 0.5525168367495013 0.0083151576318890	0.119915
H	0.7170375164293773 0.4487759700737501 0.0082200917777941	0.107025
H	0.7771585586830849 0.3916648346896446 0.0079901773893581	0.115271
H	0.9425533757079724 0.2311256327042576 -0.0032910203512501	0.091445
H	0.8829859185825782 0.2892688076012674 0.0080872249774039	0.124966
Cd	0.5000000000000000 0.6730234351934855 0.7573782156709601	0.859408
Cd	-0.0000000000000000 0.1730234021934866 0.7573782156709601	0.859408
Cd	0.5000000000000000 0.3269765978065134 0.2573781996709585	0.859410
Cd	-0.0000000000000000 0.8269765648065145 0.2573781996709585	0.859408
Nb	0.5000000000000000 0.6728388148375331 0.2376523460129480	2.452685
Nb	-0.0000000000000000 0.1728388638375336 0.2376523460129480	2.452685
Nb	0.5000000000000000 0.3271611201624722 0.7376523620129498	2.452799
Nb	-0.0000000000000000 0.8271611851624669 0.7376523620129498	2.452684
F	0.5000000000000000 0.7383444746598575 0.2626500203418271	-0.598375
F	0.5000000000000000 0.6073924752902436 0.2636684579151128	-0.594667
F	-0.0000000000000000 0.2383444416598579 0.2626500203418271	-0.598375
F	-0.0000000000000000 0.1073924832902440 0.2636684579151128	-0.594667
F	0.5000000000000000 0.2616555423401404 0.7626500363418280	-0.598390
F	0.5000000000000000 0.3926074917097576 0.7636684739151144	-0.594731
F	-0.0000000000000000 0.7616555253401425 0.7626500363418280	-0.598377
F	-0.0000000000000000 0.8926075247097564 0.7636684739151144	-0.594665
F	0.5641546825971637 0.6727260738957815 0.2634368849994958	-0.598242
F	0.0641546745971633 0.1727260568957842 0.2634368849994958	-0.598242
F	0.4358453174028362 0.3272739261042180 0.7634369009994971	-0.598250
F	0.9358453174028363 0.8272739261042185 0.7634369009994971	-0.598241
F	0.4358453174028362 0.6727260738957815 0.2634368849994958	-0.598242
F	0.9358453174028363 0.1727260568957842 0.2634368849994958	-0.598242
F	0.5641546825971637 0.3272739261042180 0.7634369009994971	-0.598250
F	0.0641546745971633 0.8272739261042185 0.7634369009994971	-0.598241
F	0.5000000000000000 0.6729952667103752 0.4877526761682555	-0.616306
F	-0.0000000000000000 0.1729952667103755 0.4877526761682555	-0.616306
F	0.5000000000000000 0.3270047332896245 -0.0122472618317464	-0.616314
F	-0.0000000000000000 0.8270047332896248 -0.0122472618317464	-0.616306
O	0.5000000000000000 0.6728443342873797 0.0226907148661749	-0.939644
O	-0.0000000000000000 0.1728443342873795 0.0226907148661749	-0.939644
O	0.5000000000000000 0.3271556657126206 0.5226906958661763	-0.939651
O	-0.0000000000000000 0.8271556657126203 0.5226906958661763	-0.939644
N	0.5554371616607597 0.7290956383724746 0.7486248054008567	-0.236510
N	0.9453795155125148 0.1158285509892542 0.7484242789294425	-0.235798
N	0.0554372016607562 0.2290956543724761 0.7486248054008567	-0.236505
N	0.4453794835125189 0.6158285269892517 0.7484242789294425	-0.235978
N	0.4445628063392444 0.2709043456275239 0.2486247894008558	-0.236503
N	0.0546205124874807 0.8841714730107483 0.2484242629294408	-0.235980
N	0.9445628383392403 0.7709043616275254 0.2486247894008558	-0.236508
N	0.5546204844874852 0.3841714400107488 0.2484242629294408	-0.235803
N	0.4445628063392444 0.7290956383724746 0.7486248054008567	-0.236505
N	0.0546205124874807 0.1158285509892542 0.7484242789294425	-0.235976
N	0.9445628383392403 0.2290956543724761 0.7486248054008567	-0.236510
N	0.5546204844874852 0.6158285269892517 0.7484242789294425	-0.235800
N	0.5554371616607597 0.2709043456275239 0.2486247894008558	-0.236508
N	0.9453795155125148 0.8841714730107483 0.2484242629294408	-0.235802
N	0.0554372016607562 0.7709043616275254 0.2486247894008558	-0.236503
N	0.4453794835125189 0.3841714400107488 0.2484242629294408	-0.235981
	  	
