#======================================================================

# CRYSTAL DATA

#----------------------------------------------------------------------

data_VESTA_phase_1


_pd_phase_name                         NbOFFIVE_13_Co_i
_cell_length_a                         15.20695
_cell_length_b                         15.20527
_cell_length_c                         8.01018
_cell_angle_alpha                      90.20776
_cell_angle_beta                       89.93556
_cell_angle_gamma                      89.80516
_symmetry_space_group_name_H-M         P 1
_symmetry_Int_Tables_number            1

loop_
_symmetry_equiv_pos_as_xyz
   x, y, z

loop_
   _atom_site_label
   _atom_site_fract_x
   _atom_site_fract_y
   _atom_site_fract_z
   _atom_site_charge
C	0.5420884756556794 0.6790329965956549 0.8771845686562842	0.096114
C	0.5453897354464905 0.7706557738416423 0.8746702931818514	-0.148575
C	0.4613911078479089 0.3228481522790533 0.8802927972060575	0.097802
C	0.4585522440625162 0.2312339738717603 0.8790880203643660	-0.139013
C	0.8192630952139592 0.9729856964791697 0.3673666536124449	0.105211
C	0.7281530360336019 0.9696749773483512 0.3613392871200252	-0.134097
C	0.3225616014555102 0.5430921324894297 0.8750557649376137	0.096931
C	0.2309356673208284 0.5466757337149715 0.8714030460626196	-0.144769
C	0.1829867925906884 0.9696099787471616 0.3618331398765773	0.099715
C	0.2741417344113486 0.9688067338298042 0.3569361394174722	-0.135174
C	0.6785780535712574 0.4612665949070945 0.8828200991020889	0.099291
C	0.7701531698740224 0.4586108823787714 0.8810686149605097	-0.138945
C	0.4539824932236883 0.6806788466908396 0.1138449044952586	0.100577
C	0.4512808021146697 0.7721733797010767 0.1154790867313287	-0.138768
C	0.5426463094986718 0.3239469336315741 0.1253942548371072	0.100119
C	0.5455770330225765 0.2323712870223694 0.1289109974448279	-0.150452
C	0.1821140767630816 0.0231169797698281 0.6339749619763310	0.109049
C	0.2730951571216827 0.0247477500924192 0.6399611061510007	-0.140038
C	0.6775337508720304 0.5461540543798535 0.1241722474946619	0.099182
C	0.7690996282288962 0.5494315032084636 0.1268763097719962	-0.150022
C	0.8168695074724456 0.0327041060137607 0.6348894790779911	0.100379
C	0.7258223149960454 0.0326584192851643 0.6391957992986744	-0.137860
C	0.3207269390731253 0.4570644351907522 0.1136893767546071	0.098888
C	0.2291996623419291 0.4545066902184781 0.1140980030029550	-0.139740
C	0.9630494804914937 0.8157822820943101 0.6282558833574251	0.107811
C	0.9619774441375722 0.7246687805004877 0.6332185058493951	-0.137447
C	0.9794263831173183 0.1815334416080504 0.6398160919656365	0.100732
C	0.9777928317650724 0.2725306967987721 0.6429423166645861	-0.138664
C	0.0236526654073214 0.8156051176774496 0.3618448550621420	0.100325
C	0.0255459818863740 0.7245024111067315 0.3562481026076891	-0.135686
C	0.0305197029566241 0.1786507083707685 0.3661101198131417	0.106622
C	0.0315579750825015 0.2698073025493211 0.3584979147404605	-0.136459
C	0.0040992910708988 0.3173980334407135 0.4992285789938747	0.043755
C	0.0022175163386372 0.4132620742110928 0.4977681454154638	0.255264
C	0.4989413306695553 0.8189527426150428 0.9952990276692761	0.057761
C	0.5000361200513190 0.9165237001057123 0.9988015202007980	0.247452
C	0.9947951320995000 0.6782447070235386 0.4951123822665568	0.038739
C	0.9973912638957688 0.5822624619630375 0.4961231675213401	0.248713
C	0.5018241162656080 0.1842582482277545 0.0049652230663011	0.056921
C	0.5011771591483788 0.0865896767516884 0.0060261945325429	0.252077
C	0.6807040547547873 -0.0000722612745099 0.5001041032983715	0.037872
C	0.5847954352552598 0.9968881009417601 0.5017265143685437	0.249427
C	0.1825140306516198 0.5012433247382168 0.9921895927414696	0.056034
C	0.0848934661924585 0.5023615437801159 0.9942100383791858	0.247704
C	0.3199035181795609 0.9963892798096003 0.4990465462179022	0.042332
C	0.4157722825188262 0.9955027553565923 0.5012544193146452	0.255601
C	0.8171615656854727 0.5039675784442288 0.0044948290101939	0.057578
C	0.9148201869108463 0.5035803602132679 0.0032540689221613	0.250173
H	0.5745139356915354 0.6399289366991258 0.7806632346144540	0.109499
H	0.5833315957356282 0.8030168357245332 0.7772395942543155	0.127175
H	0.4316716808525489 0.3610628745282682 0.7800049956233509	0.110549
H	0.4248442616940650 0.1970105264407366 0.7781671492413916	0.121559
H	0.8591928918279537 0.9503206645310368 0.2626726745256479	0.105370
H	0.6952362813412321 0.9442806331116986 0.2506895953383551	0.123014
H	0.3617079715199371 0.5747093897576422 0.7783509547889855	0.108571
H	0.1987637759606798 0.5839995623429333 0.7727976760714970	0.126621
H	0.1448711678109001 0.9499901044245030 0.2531376277968169	0.099451
H	0.3082114294728904 0.9483513199754164 0.2436173808252823	0.119175
H	0.6402641886739974 0.4301861053902182 0.7840708602927365	0.109978
H	0.8043812995996569 0.4236013473179280 0.7813416008367875	0.121006
H	0.4213248742865675 0.6424204318045446 0.2103157487022896	0.108197
H	0.4152853588056128 0.8065038352210204 0.2137208262149282	0.118996
H	0.5727034877354839 0.3629985507876475 0.2242490727075565	0.105898
H	0.5804589485802759 0.1998852235082713 0.2303527122754680	0.127373
H	0.1428313253116650 0.0442033272222945 0.7405619067428370	0.098532
H	0.3064348496860582 0.0464858017675525 0.7528383642516316	0.121111
H	0.6384423348099115 0.5776705653565013 0.2216987591355190	0.106106
H	0.8015437269823041 0.5860428702579293 0.2263569339723678	0.127352
H	0.8544870507950174 0.0553131090881714 0.7421163357769253	0.094118
H	0.6910958424379108 0.0561794297235306 0.7496093199347452	0.122177
H	0.3588199659076384 0.4252553437074527 0.2116470834348204	0.107452
H	0.1946809815258984 0.4192261416711837 0.2123314895285078	0.119569
H	0.9392564313202042 0.8548806765459226 0.7332505179720156	0.101543
H	0.9374485960695961 0.6908859093160430 0.7433356132633284	0.121353
H	0.9607854173506409 0.1439588340329075 0.7494326084856522	0.092151
H	0.9573578520457898 0.3073155655846273 0.7555147363707199	0.121037
H	0.0457835161743523 0.8539936140060049 0.2556095443811808	0.098146
H	0.0500988579884271 0.6908512218076182 0.2454299876551011	0.121773
H	0.0504385395301028 0.1385060545034926 0.2595776341232537	0.107127
H	0.0518972612017695 0.3026127758876875 0.2442632400727600	0.121992
N	0.9471942341585038 0.5402758606511853 0.6099012259056056	-0.139516
N	0.4222064113158311 0.0458812742511256 0.0064350547621594	-0.150617
N	0.5427245920842141 0.0467939340784772 0.6169890025491843	-0.138027
N	0.9560221764449411 0.4245933647854852 0.0014620910367690	-0.149027
N	0.0503433142083460 0.5417287580025484 0.3839647473208436	-0.137672
N	0.5795207382055193 0.0442947561243669 0.0084234951903221	-0.149096
N	0.9566433277914975 0.5819483870467439 0.0018711072616214	-0.148836
N	0.5443989604569992 0.9431234346304331 0.3915123050696590	-0.138585
N	0.0533834026402460 0.4552035292304689 0.3858861484916756	-0.136129
N	0.5789956706113188 0.9572539249789135 0.0006931828665723	-0.147843
N	0.4577925971623165 0.9421683611921106 0.3919382968989666	-0.134868
N	0.0436381090962837 0.5813365573760088 0.9936242036859206	-0.145729
N	0.9490956029092501 0.4538208196801112 0.6095990377691752	-0.135902
N	0.4217196258233555 0.9588076732513033 0.0060153279952956	-0.144765
N	0.0431052383546575 0.4240213452061627 0.9996989310638759	-0.148366
N	0.4563316199589407 0.0464249810507439 0.6160782347493111	-0.138650
N	0.0043671255349249 0.1356283026105063 0.5039717397322093	-0.171493
N	0.4982145470967708 0.6343156650231733 0.9963821281532860	-0.176428
N	0.9942790988195105 0.8602831020628603 0.4959916813006115	-0.171698
N	0.5017318934590550 0.3689524669618524 0.0026298609333015	-0.180424
N	0.8625919128328906 0.0036077707273047 0.5018435959225449	-0.169897
N	0.3672055810618614 0.5001191802596034 0.9957416923995083	-0.176851
N	0.1379988991509460 0.9952925218165223 0.4982364175267774	-0.171032
N	0.6325181048193138 0.5032920239312871 0.0036476571476938	-0.177471
Co	0.0002794058413817 0.9980240323226885 0.5066997258216452	0.630096
Co	0.4998045915390029 0.5017323819917481 0.0041310820912243	0.638104
Nb	0.0005646027207554 0.9955333281684478 0.9833207694868105	2.409208
Nb	0.4992246311201430 0.5036617299444290 0.4828428150066266	2.434579
F	-0.0000178071621768 -0.0012064197471615 0.2472435538354289	-0.614482
F	0.5024621914499894 0.5011305486127201 0.7410993966825188	-0.619082
F	0.0927075246693147 0.0837519546849710 0.0098005007372809	-0.577977
F	0.5908224999267123 0.5940902355944664 0.5063418688636798	-0.598639
F	0.9100007398814906 0.9064661565285556 0.0136458542553210	-0.577198
F	0.4085030537385159 0.4128240962848733 0.5092998242279301	-0.599358
F	0.9116268481380800 0.0881146715383662 0.0030805072764800	-0.579491
F	0.4089805729861435 0.5954270431050309 0.5132524605591030	-0.597966
F	0.0900355960111535 0.9042908104441636 0.0151796053087614	-0.575955
F	0.5905997495817062 0.4121906834861671 0.5016303709399373	-0.598842
O	0.0004836667122801 0.9944716719339735 0.7588912442670218	-0.940164
O	0.4970623023763078 0.5042402213916676 0.2599344831823634	-0.948325
	  	
