#======================================================================

# CRYSTAL DATA

#----------------------------------------------------------------------

data_VESTA_phase_1


_pd_phase_name                         NbOFFIVE_5_Co_i
_cell_length_a                         19.62413
_cell_length_b                         19.62413
_cell_length_c                         16.22277
_cell_angle_alpha                      90
_cell_angle_beta                       90
_cell_angle_gamma                      90
_symmetry_space_group_name_H-M         P 1
_symmetry_Int_Tables_number            1

loop_
_symmetry_equiv_pos_as_xyz
   x, y, z

loop_
   _atom_site_label
   _atom_site_fract_x
   _atom_site_fract_y
   _atom_site_fract_z
   _atom_site_charge
F	0.3247984051705284 0.1839074783430528 0.3475353899269313	-0.599915
F	0.1752015828294705 0.3160925336569411 0.3475353899269313	-0.599915
F	0.3160925336569411 0.3247984051705284 0.3475353899269313	-0.599914
F	0.1839074783430528 0.1752015828294705 0.3475353899269313	-0.599915
F	0.6755149744211801 0.6836309492527912 0.1441828639475524	-0.599543
F	0.8244850255788199 0.8163690507472089 0.1441828639475524	-0.599542
F	0.6836309492527912 0.8244850255788199 0.1441828639475524	-0.599542
F	0.8163690507472088 0.6755149744211801 0.1441828639475524	-0.599543
F	0.6755149744211801 0.8163690507472088 0.6441828789475500	-0.599541
F	0.8244850255788199 0.6836309492527912 0.6441828789475500	-0.599543
F	0.6836309492527912 0.6755149744211801 0.6441828789475500	-0.599542
F	0.8163690507472088 0.8244850255788199 0.6441828789475500	-0.599542
F	0.3247984051705284 0.3160925336569411 0.8475353589269322	-0.599914
F	0.1752015828294705 0.1839074783430528 0.8475353589269322	-0.599916
F	0.3160925336569411 0.1752015828294705 0.8475353589269322	-0.599916
F	0.1839074783430528 0.3247984051705284 0.8475353589269322	-0.599914
F	0.2500000000000000 0.2500000000000000 0.2326147913348502	-0.612643
F	0.7500000000000000 0.7500000000000000 0.0292202402702417	-0.612466
F	0.7500000000000000 0.7500000000000000 0.5292202362702412	-0.612467
F	0.2500000000000000 0.2500000000000000 0.7326148373348469	-0.612642
O	0.2500000000000000 0.2500000000000000 0.4694468881478652	-0.931640
O	0.7500000000000000 0.7500000000000000 0.2661639748806973	-0.931921
O	0.7500000000000000 0.7500000000000000 0.7661639438806985	-0.931920
O	0.2500000000000000 0.2500000000000000 0.9694468881478654	-0.931641
N	0.3502485167266082 0.2480303338419461 0.6012933688036722	-0.181686
N	0.1497514592733970 0.2519696901580485 0.6012933688036722	-0.181671
N	0.2519696901580485 0.3502485167266082 0.6012933688036722	-0.181671
N	0.2480303338419461 0.1497514592733970 0.6012933688036722	-0.181685
N	0.6497238850701343 0.7471210610338327 0.8981431114059015	-0.182211
N	0.8502760669298688 0.7528789389661673 0.8981431114059015	-0.182211
N	0.7471210610338327 0.8502760669298688 0.8981431114059015	-0.182211
N	0.7528789389661673 0.6497238850701343 0.8981431114059015	-0.182212
N	0.6497238850701343 0.7528789389661673 0.3981431114059015	-0.182213
N	0.8502760669298688 0.7471210610338327 0.3981431114059015	-0.182213
N	0.7471210610338327 0.6497238850701343 0.3981431114059015	-0.182213
N	0.7528789389661673 0.8502760669298688 0.3981431114059015	-0.182213
N	0.3502485167266082 0.2519696901580485 0.1012933768036731	-0.181673
N	0.1497514592733970 0.2480303338419461 0.1012933768036731	-0.181687
N	0.2519696901580485 0.1497514592733970 0.1012933768036731	-0.181672
N	0.2480303338419461 0.3502485167266082 0.1012933768036731	-0.181687
C	0.3838863210101257 0.2184424932854240 0.6644896578741670	0.090356
C	0.4545295828281039 0.2169632129634117 0.6682801126904535	-0.175073
C	0.4933919385835797 0.2473417501473379 0.6056254039307046	0.103689
C	0.4574676967490097 0.2777326544138554 0.5404220756902433	-0.179283
C	0.3867922463449683 0.2770501105108709 0.5401241754198151	0.095834
C	0.5683710858403634 0.2479064091866577 0.6084793662253951	0.056475
C	0.6050248115941680 0.1913185872131639 0.6377568938274060	-0.130756
C	0.6758373431412242 0.1920066382283182 0.6399023280953011	-0.125393
C	0.7124964660479651 0.2497523196021776 0.6142571515084262	0.068421
C	0.6758502431448038 0.3066862651987747 0.5861703733981952	-0.121040
C	0.6050964328429780 0.3055018236616449 0.5825531814808915	-0.126015
C	0.1161136909898754 0.2815574827145741 0.6644896578741670	0.090362
C	0.0454704321718939 0.2830368110365832 0.6682801126904535	-0.175086
C	0.0066080694164209 0.2526582498526621 0.6056254039307046	0.103693
C	0.0425323242509886 0.2222673455861446 0.5404220756902433	-0.179285
C	0.1132077776550336 0.2229498894891289 0.5401241754198151	0.095836
C	0.9316288661596397 0.2520936148133374 0.6084793662253951	0.056474
C	0.8949751404058351 0.3086814127868359 0.6377568938274060	-0.130757
C	0.8241626568587758 0.3079933737716830 0.6399023280953011	-0.125393
C	0.7875035339520349 0.2502477043978172 0.6142571515084262	0.068420
C	0.8241497568551962 0.1933137468012264 0.5861703733981952	-0.121041
C	0.8949035671570220 0.1944981523383531 0.5825531814808915	-0.126015
C	0.2815574827145741 0.3838863210101257 0.6644896578741670	0.090362
C	0.2830368110365832 0.4545295828281039 0.6682801126904535	-0.175085
C	0.2526582498526621 0.4933919385835797 0.6056254039307046	0.103693
C	0.2222673455861446 0.4574676967490097 0.5404220756902433	-0.179284
C	0.2229498894891289 0.3867922463449683 0.5401241754198151	0.095834
C	0.2520936148133374 0.5683710858403634 0.6084793662253951	0.056475
C	0.3086814127868359 0.6050248115941680 0.6377568938274060	-0.130756
C	0.3079933737716830 0.6758373431412242 0.6399023280953011	-0.125393
C	0.2502477043978172 0.7124964660479651 0.6142571515084262	0.068422
C	0.1933137468012264 0.6758502431448038 0.5861703733981952	-0.121040
C	0.1944981523383531 0.6050964328429780 0.5825531814808915	-0.126014
C	0.2184424932854240 0.1161136909898754 0.6644896578741670	0.090357
C	0.2169632129634117 0.0454704321718939 0.6682801126904535	-0.175073
C	0.2473417501473379 0.0066080694164209 0.6056254039307046	0.103690
C	0.2777326544138554 0.0425323242509886 0.5404220756902433	-0.179283
C	0.2770501105108709 0.1132077776550336 0.5401241754198151	0.095836
C	0.2479064091866577 0.9316288661596397 0.6084793662253951	0.056475
C	0.1913185872131639 0.8949751404058351 0.6377568938274060	-0.130758
C	0.1920066382283182 0.8241626568587758 0.6399023280953011	-0.125393
C	0.2497523196021776 0.7875035339520349 0.6142571515084262	0.068420
C	0.3066862651987747 0.8241497568551962 0.5861703733981952	-0.121041
C	0.3055018236616449 0.8949035671570220 0.5825531814808915	-0.126016
C	0.6154980506863181 0.7174100608213785 0.8355091449586762	0.095074
C	0.5449152840610713 0.7163424764152088 0.8321289570700448	-0.177160
C	0.5065954656351817 0.7470889542325281 0.8949939870043017	0.102603
C	0.5430127217966447 0.7771214854827837 0.9600524280893452	-0.176953
C	0.6137609567126286 0.7760577855080109 0.9599138298763709	0.091482
C	0.4316500764531026 0.7479948172777279 0.8921203357194276	0.055661
C	0.3950570991635997 0.6914241327387779 0.8626744878792326	-0.130019
C	0.3242657650507416 0.6921270855824299 0.8603653430869505	-0.125262
C	0.2875312966508140 0.7498306202430520 0.8859606459301517	0.067908
C	0.3241815538788530 0.8067633357230658 0.9140856523196371	-0.119413
C	0.3949437037187932 0.8056309729571669 0.9179455095244337	-0.126826
C	0.8845019023136815 0.7825899391786215 0.8355091449586762	0.095073
C	0.9550847159389287 0.7836575235847912 0.8321289570700448	-0.177158
C	0.9934045343648183 0.7529110457674719 0.8949939870043017	0.102602
C	0.9569872782033553 0.7228785145172163 0.9600524280893452	-0.176954
C	0.8862390432873714 0.7239422144919891 0.9599138298763709	0.091482
C	0.0683499235468973 0.7520051827222721 0.8921203357194276	0.055661
C	0.1049428768364052 0.8085759152612190 0.8626744878792326	-0.130018
C	0.1757342349492585 0.8078729624175741 0.8603653430869505	-0.125261
C	0.2124687033491860 0.7501693797569480 0.8859606459301517	0.067907
C	0.1758184701211492 0.6932367122769382 0.9140856523196371	-0.119413
C	0.1050562962812068 0.6943690750428300 0.9179455095244337	-0.126825
C	0.7174100608213785 0.8845019023136815 0.8355091449586762	0.095073
C	0.7163424764152088 0.9550847159389287 0.8321289570700448	-0.177159
C	0.7470889542325281 0.9934045343648183 0.8949939870043017	0.102603
C	0.7771214854827837 0.9569872782033553 0.9600524280893452	-0.176953
C	0.7760577855080109 0.8862390432873714 0.9599138298763709	0.091482
C	0.7479948172777279 0.0683499235468973 0.8921203357194276	0.055661
C	0.6914241327387779 0.1049428768364052 0.8626744878792326	-0.130018
C	0.6921270855824299 0.1757342349492585 0.8603653430869505	-0.125262
C	0.7498306202430520 0.2124687033491860 0.8859606459301517	0.067908
C	0.8067633357230658 0.1758184701211492 0.9140856523196371	-0.119413
C	0.8056309729571669 0.1050562962812068 0.9179455095244337	-0.126825
C	0.7825899391786215 0.6154980506863181 0.8355091449586762	0.095075
C	0.7836575235847912 0.5449152840610713 0.8321289570700448	-0.177158
C	0.7529110457674719 0.5065954656351817 0.8949939870043017	0.102603
C	0.7228785145172163 0.5430127217966447 0.9600524280893452	-0.176954
C	0.7239422144919891 0.6137609567126286 0.9599138298763709	0.091483
C	0.7520051827222721 0.4316500764531026 0.8921203357194276	0.055661
C	0.8085759152612190 0.3950570991635997 0.8626744878792326	-0.130019
C	0.8078729624175741 0.3242657650507416 0.8603653430869505	-0.125261
C	0.7501693797569480 0.2875312966508140 0.8859606459301517	0.067907
C	0.6932367122769382 0.3241815538788530 0.9140856523196371	-0.119413
C	0.6943690750428300 0.3949437037187932 0.9179455095244337	-0.126826
C	0.6154980506863181 0.7825899391786215 0.3355091769586791	0.095073
C	0.5449152840610713 0.7836575235847912 0.3321289260700460	-0.177158
C	0.5065954656351817 0.7529110457674719 0.3949940490043000	0.102599
C	0.5430127217966447 0.7228785145172163 0.4600523970893460	-0.176954
C	0.6137609567126286 0.7239422144919891 0.4599138298763711	0.091482
C	0.4316500764531026 0.7520051827222721 0.3921203667194270	0.055678
C	0.3950570991635997 0.8085759152612190 0.3626745508792343	-0.130027
C	0.3242657650507416 0.8078729624175741 0.3603653430869505	-0.125256
C	0.2875312966508140 0.7501693797569480 0.3859606459301516	0.067908
C	0.3241815538788530 0.6932367122769382 0.4140856523196373	-0.119413
C	0.3949437037187932 0.6943690750428300 0.4179455405244467	-0.126830
C	0.8845019023136815 0.7174100608213785 0.3355091769586791	0.095073
C	0.9550847159389287 0.7163424764152088 0.3321289260700460	-0.177159
C	0.9934045343648183 0.7470889542325281 0.3949940490043000	0.102598
C	0.9569872782033553 0.7771214854827837 0.4600523970893460	-0.176952
C	0.8862390432873714 0.7760577855080109 0.4599138298763711	0.091481
C	0.0683499235468973 0.7479948172777279 0.3921203667194270	0.055678
C	0.1049428768364052 0.6914241327387779 0.3626745508792343	-0.130026
C	0.1757342349492585 0.6921270855824299 0.3603653430869505	-0.125255
C	0.2124687033491860 0.7498306202430520 0.3859606459301516	0.067907
C	0.1758184701211492 0.8067633357230658 0.4140856523196373	-0.119411
C	0.1050562962812068 0.8056309729571669 0.4179455405244467	-0.126829
C	0.7174100608213785 0.6154980506863181 0.3355091769586791	0.095074
C	0.7163424764152088 0.5449152840610713 0.3321289260700460	-0.177159
C	0.7470889542325281 0.5065954656351817 0.3949940490043000	0.102598
C	0.7771214854827837 0.5430127217966447 0.4600523970893460	-0.176953
C	0.7760577855080109 0.6137609567126286 0.4599138298763711	0.091483
C	0.7479948172777279 0.4316500764531026 0.3921203667194270	0.055678
C	0.6914241327387779 0.3950570991635997 0.3626745508792343	-0.130027
C	0.6921270855824299 0.3242657650507416 0.3603653430869505	-0.125256
C	0.7498306202430520 0.2875312966508140 0.3859606459301516	0.067908
C	0.8067633357230658 0.3241815538788530 0.4140856523196373	-0.119412
C	0.8056309729571669 0.3949437037187932 0.4179455405244467	-0.126830
C	0.7825899391786215 0.8845019023136815 0.3355091769586791	0.095073
C	0.7836575235847912 0.9550847159389287 0.3321289260700460	-0.177158
C	0.7529110457674719 0.9934045343648183 0.3949940490043000	0.102598
C	0.7228785145172163 0.9569872782033553 0.4600523970893460	-0.176953
C	0.7239422144919891 0.8862390432873714 0.4599138298763711	0.091482
C	0.7520051827222721 0.0683499235468973 0.3921203667194270	0.055678
C	0.8085759152612190 0.1049428768364052 0.3626745508792343	-0.130026
C	0.8078729624175741 0.1757342349492585 0.3603653430869505	-0.125255
C	0.7501693797569480 0.2124687033491860 0.3859606459301516	0.067908
C	0.6932367122769382 0.1758184701211493 0.4140856523196373	-0.119411
C	0.6943690750428300 0.1050562962812068 0.4179455405244467	-0.126829
C	0.3838863210101257 0.2815574827145741 0.1644896578741669	0.090361
C	0.4545295828281039 0.2830368110365832 0.1682801436904523	-0.175085
C	0.4933919385835797 0.2526582498526621 0.1056253499307070	0.103692
C	0.4574676967490097 0.2222673455861446 0.0404220996902449	-0.179285
C	0.3867922463449683 0.2229498894891289 0.0401241984198134	0.095834
C	0.5683710858403634 0.2520936148133374 0.1084793352253955	0.056475
C	0.6050248115941680 0.3086814127868359 0.1377568468274055	-0.130757
C	0.6758373431412242 0.3079933737716830 0.1399023440953021	-0.125393
C	0.7124964660479651 0.2502477043978172 0.1142571595084266	0.068420
C	0.6758502431448038 0.1933137468012264 0.0861703963981936	-0.121041
C	0.6050964328429780 0.1944981523383531 0.0825531574808893	-0.126015
C	0.1161136909898754 0.2184424932854240 0.1644896578741669	0.090356
C	0.0454704321718939 0.2169632129634117 0.1682801436904523	-0.175074
C	0.0066080694164209 0.2473417501473379 0.1056253499307070	0.103689
C	0.0425323242509886 0.2777326544138554 0.0404220996902449	-0.179284
C	0.1132077776550336 0.2770501105108709 0.0401241984198134	0.095835
C	0.9316288661596397 0.2479064091866577 0.1084793352253955	0.056475
C	0.8949751404058351 0.1913185872131639 0.1377568468274055	-0.130758
C	0.8241626568587758 0.1920066382283182 0.1399023440953021	-0.125393
C	0.7875035339520349 0.2497523196021776 0.1142571595084266	0.068419
C	0.8241497568551962 0.3066862651987747 0.0861703963981936	-0.121041
C	0.8949035671570220 0.3055018236616449 0.0825531574808893	-0.126017
C	0.2815574827145741 0.1161136909898754 0.1644896578741669	0.090363
C	0.2830368110365832 0.0454704321718939 0.1682801436904523	-0.175086
C	0.2526582498526621 0.0066080694164209 0.1056253499307070	0.103692
C	0.2222673455861446 0.0425323242509886 0.0404220996902449	-0.179284
C	0.2229498894891289 0.1132077776550336 0.0401241984198134	0.095835
C	0.2520936148133374 0.9316288661596397 0.1084793352253955	0.056475
C	0.3086814127868359 0.8949751404058351 0.1377568468274055	-0.130758
C	0.3079933737716830 0.8241626568587758 0.1399023440953021	-0.125393
C	0.2502477043978172 0.7875035339520349 0.1142571595084266	0.068420
C	0.1933137468012264 0.8241497568551962 0.0861703963981936	-0.121041
C	0.1944981523383531 0.8949035671570220 0.0825531574808893	-0.126016
C	0.2184424932854240 0.3838863210101257 0.1644896578741669	0.090355
C	0.2169632129634117 0.4545295828281039 0.1682801436904523	-0.175072
C	0.2473417501473379 0.4933919385835797 0.1056253499307070	0.103689
C	0.2777326544138554 0.4574676967490097 0.0404220996902449	-0.179283
C	0.2770501105108709 0.3867922463449683 0.0401241984198134	0.095834
C	0.2479064091866577 0.5683710858403634 0.1084793352253955	0.056475
C	0.1913185872131639 0.6050248115941680 0.1377568468274055	-0.130757
C	0.1920066382283182 0.6758373431412242 0.1399023440953021	-0.125393
C	0.2497523196021776 0.7124964660479651 0.1142571595084266	0.068419
C	0.3066862651987747 0.6758502431448038 0.0861703963981936	-0.121041
C	0.3055018236616449 0.6050964328429780 0.0825531574808893	-0.126016
H	0.3528656407115343 0.1969686963214765 0.7137724656551313	0.105846
H	0.4787138384713791 0.1937783153490159 0.7218673369416770	0.117596
H	0.4841624959817152 0.3008990746013878 0.4885882372181041	0.116887
H	0.3577703745261604 0.2992252735954262 0.4895266503378115	0.100598
H	0.5775248915809652 0.1458584537565733 0.6575480934910720	0.100166
H	0.7033292243809772 0.1476281765791574 0.6629258226644646	0.102232
H	0.7032481647619216 0.3516226210187451 0.5646576297784861	0.102643
H	0.5776735606110770 0.3502033831949251 0.5603688050155183	0.103179
H	0.1471343712884595 0.3030313036785233 0.7137724656551313	0.105835
H	0.0212861915286234 0.3062216606509750 0.7218673369416770	0.117596
H	0.0158375070182816 0.1991009253986122 0.4885882372181041	0.116887
H	0.1422296134738387 0.2007747264045739 0.4895266503378115	0.100598
H	0.9224750604190379 0.3541415582434275 0.6575480934910720	0.100166
H	0.7966707756190228 0.3523718114208417 0.6629258226644646	0.102231
H	0.7967518352380784 0.1483773789812548 0.5646576297784861	0.102640
H	0.9223264393889230 0.1497966168050748 0.5603688050155183	0.103178
H	0.3030313036785233 0.3528656407115343 0.7137724656551313	0.105834
H	0.3062216606509750 0.4787138384713791 0.7218673369416770	0.117596
H	0.1991009253986122 0.4841624959817152 0.4885882372181041	0.116887
H	0.2007747264045739 0.3577703745261604 0.4895266503378115	0.100598
H	0.3541415582434275 0.5775248915809652 0.6575480934910720	0.100168
H	0.3523718114208417 0.7033292243809772 0.6629258226644646	0.102233
H	0.1483773789812548 0.7032481647619216 0.5646576297784861	0.102642
H	0.1497966168050748 0.5776735606110770 0.5603688050155183	0.103179
H	0.1969686963214765 0.1471343712884595 0.7137724656551313	0.105847
H	0.1937783153490159 0.0212861915286234 0.7218673369416770	0.117596
H	0.3008990746013878 0.0158375070182816 0.4885882372181041	0.116887
H	0.2992252735954262 0.1422296134738387 0.4895266503378115	0.100599
H	0.1458584537565733 0.9224750604190379 0.6575480934910720	0.100167
H	0.1476281765791574 0.7966707756190228 0.6629258226644646	0.102231
H	0.3516226210187451 0.7967518352380784 0.5646576297784861	0.102641
H	0.3502033831949251 0.9223264393889230 0.5603688050155183	0.103180
H	0.6462064439831453 0.6954890289453594 0.7862658755300918	0.100647
H	0.5202145541703805 0.6932256969008707 0.7788468008429307	0.117340
H	0.5166437072119618 0.8002730452791306 0.0121642764529545	0.117309
H	0.6429943011170217 0.7978385020995081 0.0105869114111342	0.105374
H	0.4226403286799207 0.6459998804464194 0.8429006225779262	0.099927
H	0.2968792407260624 0.6477562180366856 0.8372110733985427	0.102226
H	0.2966795305181605 0.8516805273421307 0.9354571917988206	0.102079
H	0.4222910702389096 0.8503878303281450 0.9401643088514108	0.104071
H	0.8537936030168550 0.8045110190546446 0.7862658755300918	0.100647
H	0.9797854458296195 0.8067743030991293 0.7788468008429307	0.117339
H	0.9833562457880378 0.6997269547208694 0.0121642764529545	0.117308
H	0.8570056508829814 0.7021614979004919 0.0105869114111342	0.105373
H	0.0773596953200742 0.8540001195535806 0.8429006225779262	0.099928
H	0.2031207592739376 0.8522437819633144 0.8372110733985427	0.102225
H	0.2033204694818398 0.6483194246578653 0.9354571917988206	0.102078
H	0.0777089417610912 0.6496121216718510 0.9401643088514108	0.104072
H	0.6954890289453594 0.8537936030168550 0.7862658755300918	0.100647
H	0.6932256969008707 0.9797854458296195 0.7788468008429307	0.117339
H	0.8002730452791306 0.9833562457880378 0.0121642764529545	0.117308
H	0.7978385020995081 0.8570056508829814 0.0105869114111342	0.105373
H	0.6459998804464194 0.0773596953200742 0.8429006225779262	0.099928
H	0.6477562180366856 0.2031207592739376 0.8372110733985427	0.102226
H	0.8516805273421307 0.2033204694818398 0.9354571917988206	0.102080
H	0.8503878303281450 0.0777089417610912 0.9401643088514108	0.104073
H	0.8045110190546446 0.6462064439831453 0.7862658755300918	0.100647
H	0.8067743030991293 0.5202145541703805 0.7788468008429307	0.117340
H	0.6997269547208694 0.5166437072119618 0.0121642764529545	0.117309
H	0.7021614979004919 0.6429943011170217 0.0105869114111342	0.105374
H	0.8540001195535806 0.4226403286799207 0.8429006225779262	0.099929
H	0.8522437819633144 0.2968792407260624 0.8372110733985427	0.102225
H	0.6483194246578653 0.2966795305181605 0.9354571917988206	0.102077
H	0.6496121216718510 0.4222910702389096 0.9401643088514108	0.104072
H	0.6462064439831453 0.8045110190546446 0.2862658445300927	0.100648
H	0.5202145541703805 0.8067743030991293 0.2788468008429303	0.117339
H	0.5166437072119618 0.6997269547208694 0.5121642954529594	0.117309
H	0.6429943011170217 0.7021614979004919 0.5105868824111353	0.105373
H	0.4226403286799207 0.8540001195535806 0.3429006225779260	0.099918
H	0.2968792407260624 0.8522437819633144 0.3372111043985490	0.102225
H	0.2966795305181605 0.6483194246578653 0.4354571917988205	0.102078
H	0.4222910702389096 0.6496121216718510 0.4401643708514089	0.104073
H	0.8537936030168550 0.6954890289453594 0.2862658445300927	0.100647
H	0.9797854458296195 0.6932256969008707 0.2788468008429303	0.117340
H	0.9833562457880378 0.8002730452791306 0.5121642954529594	0.117308
H	0.8570056508829814 0.7978385020995081 0.5105868824111353	0.105373
H	0.0773596953200742 0.6459998804464194 0.3429006225779260	0.099919
H	0.2031207592739376 0.6477562180366856 0.3372111043985490	0.102224
H	0.2033204694818398 0.8516805273421307 0.4354571917988205	0.102078
H	0.0777089417610912 0.8503878303281450 0.4401643708514089	0.104074
H	0.6954890289453594 0.6462064439831453 0.2862658445300927	0.100648
H	0.6932256969008707 0.5202145541703805 0.2788468008429303	0.117340
H	0.8002730452791306 0.5166437072119618 0.5121642954529594	0.117309
H	0.7978385020995081 0.6429943011170217 0.5105868824111353	0.105373
H	0.6459998804464194 0.4226403286799207 0.3429006225779260	0.099919
H	0.6477562180366856 0.2968792407260624 0.3372111043985490	0.102225
H	0.8516805273421307 0.2966795305181605 0.4354571917988205	0.102078
H	0.8503878303281450 0.4222910702389096 0.4401643708514089	0.104075
H	0.8045110190546446 0.8537936030168550 0.2862658445300927	0.100647
H	0.8067743030991293 0.9797854458296195 0.2788468008429303	0.117339
H	0.6997269547208694 0.9833562457880378 0.5121642954529594	0.117309
H	0.7021614979004919 0.8570056508829814 0.5105868824111353	0.105373
H	0.8540001195535806 0.0773596953200742 0.3429006225779260	0.099920
H	0.8522437819633144 0.2031207592739376 0.3372111043985490	0.102224
H	0.6483194246578653 0.2033204694818398 0.4354571917988205	0.102077
H	0.6496121216718510 0.0777089417610912 0.4401643708514089	0.104074
H	0.3528656407115343 0.3030313036785233 0.2137724966551300	0.105835
H	0.4787138384713791 0.3062216606509750 0.2218673219416795	0.117597
H	0.4841624959817152 0.1991009253986122 0.9885882062180980	0.116887
H	0.3577703745261604 0.2007747264045739 0.9895266503378114	0.100598
H	0.5775248915809652 0.3541415582434275 0.1575480934910719	0.100169
H	0.7033292243809772 0.3523718114208417 0.1629258066644633	0.102231
H	0.7032481647619216 0.1483773789812548 0.0646576377784870	0.102641
H	0.5776735606110770 0.1497966168050748 0.0603687580155183	0.103181
H	0.1471343712884595 0.1969686963214765 0.2137724966551300	0.105847
H	0.0212861915286234 0.1937783153490159 0.2218673219416795	0.117597
H	0.0158375070182816 0.3008990746013878 0.9885882062180980	0.116888
H	0.1422296134738387 0.2992252735954262 0.9895266503378114	0.100599
H	0.9224750604190379 0.1458584537565733 0.1575480934910719	0.100168
H	0.7966707756190228 0.1476281765791574 0.1629258066644633	0.102229
H	0.7967518352380784 0.3516226210187451 0.0646576377784870	0.102640
H	0.9223264393889230 0.3502033831949251 0.0603687580155183	0.103181
H	0.3030313036785233 0.1471343712884595 0.2137724966551300	0.105835
H	0.3062216606509750 0.0212861915286234 0.2218673219416795	0.117598
H	0.1991009253986122 0.0158375070182816 0.9885882062180980	0.116888
H	0.2007747264045739 0.1422296134738387 0.9895266503378114	0.100599
H	0.3541415582434275 0.9224750604190379 0.1575480934910719	0.100170
H	0.3523718114208417 0.7966707756190228 0.1629258066644633	0.102231
H	0.1483773789812548 0.7967518352380784 0.0646576377784870	0.102640
H	0.1497966168050748 0.9223264393889230 0.0603687580155183	0.103182
H	0.1969686963214765 0.3528656407115343 0.2137724966551300	0.105847
H	0.1937783153490159 0.4787138384713791 0.2218673219416795	0.117596
H	0.3008990746013878 0.4841624959817152 0.9885882062180980	0.116887
H	0.2992252735954262 0.3577703745261604 0.9895266503378114	0.100598
H	0.1458584537565733 0.5775248915809652 0.1575480934910719	0.100169
H	0.1476281765791574 0.7033292243809772 0.1629258066644633	0.102230
H	0.3516226210187451 0.7032481647619216 0.0646576377784870	0.102640
H	0.3502033831949251 0.5776735606110770 0.0603687580155183	0.103182
Co	0.2500000000000000 0.2500000000000000 0.5986185972419585	0.612385
Co	0.7500000000000000 0.7500000000000000 0.8965858356582195	0.615101
Co	0.7500000000000000 0.7500000000000000 0.3965858356582196	0.615104
Co	0.2500000000000000 0.2500000000000000 0.0986186052419593	0.612388
Nb	0.2500000000000000 0.2500000000000000 0.3597143686320623	2.432742
Nb	0.7500000000000000 0.7500000000000000 0.1563638552353362	2.432145
Nb	0.7500000000000000 0.7500000000000000 0.6563638552353364	2.432145
Nb	0.2500000000000000 0.2500000000000000 0.8597143996320614	2.432743
	  	
