#======================================================================

# CRYSTAL DATA

#----------------------------------------------------------------------

data_VESTA_phase_1


_pd_phase_name                         NbOFFIVE_14_Zn_i
_cell_length_a                         13.40677
_cell_length_b                         13.38055
_cell_length_c                         8.06379
_cell_angle_alpha                      87.73091
_cell_angle_beta                       87.73367
_cell_angle_gamma                      89.47869
_symmetry_space_group_name_H-M         P 1
_symmetry_Int_Tables_number            1

loop_
_symmetry_equiv_pos_as_xyz
   x, y, z

loop_
   _atom_site_label
   _atom_site_fract_x
   _atom_site_fract_y
   _atom_site_fract_z
   _atom_site_charge
C	0.5718483430096958 0.2686020710226664 0.3614369994795846	-0.183433
C	0.4682799654992458 0.2731423411936350 0.3670719377622946	0.111150
C	0.9346731873335384 0.2901475141322722 0.4130464937643048	-0.172044
C	0.0380581151462235 0.2833240215484752 0.3997108010313732	0.112763
C	0.2667326367378378 0.5715830338018026 0.3638129453780719	-0.182586
C	0.2711603256854918 0.4677864247397003 0.3699193937053948	0.112348
C	0.2981675087102965 0.9347906111613070 0.4078156835310686	-0.172987
C	0.2903322291937230 0.0383132344944139 0.3954568212768296	0.110607
C	0.9301015822714731 0.2343825509615823 0.1322496699832112	-0.180485
C	0.0338186855616995 0.2309209979151981 0.1292518271312300	0.111147
C	0.5635341245117170 0.2060880918074480 0.0854076042996819	-0.169469
C	0.4601218593703137 0.2142333632328517 0.1011440863372632	0.110768
C	0.2073467913236697 0.5631624910553119 0.0858278782489699	-0.173538
C	0.2156128076375872 0.4596427333166373 0.1018557278318226	0.110760
C	0.2310930955556694 0.9300234115287731 0.1346242997878551	-0.182525
C	0.2273193350328788 0.0339357470892433 0.1319282713677015	0.115014
C	0.4303393234046760 0.7354396780350524 0.6322798183796817	-0.178818
C	0.5340012929973786 0.7330534415480408 0.6288176895069397	0.112276
C	0.0632932235450746 0.7267454606849950 0.5741817567341994	-0.164631
C	0.9598222450097662 0.7304322203319321 0.5929897369235254	0.115240
C	0.7360236028203712 0.4305169432851286 0.6318522036150641	-0.179157
C	0.7336954834475683 0.5343983942034617 0.6285134392771088	0.113257
C	0.7142177126767777 0.0630188721996489 0.5794082102437187	-0.165556
C	0.7200901283408014 0.9593681964728660 0.5965672182712582	0.110476
C	0.0716728291165032 0.7621392765073858 0.8647558927020955	-0.182956
C	0.9681145626686668 0.7643653610152394 0.8720709761795112	0.114308
C	0.4347804332871919 0.7800193142518539 0.9193279178502651	-0.163826
C	0.5382401148208001 0.7762559861289909 0.9043326700030242	0.114430
C	0.7807120141954308 0.4346555268295253 0.9188077447772560	-0.167017
C	0.7763845190566676 0.5382811557662671 0.9043282939524576	0.113383
C	0.7670422930180044 0.0711847157287140 0.8615699253492580	-0.181540
C	0.7707873893468843 0.9674544836560229 0.8676652150643499	0.112216
C	0.6207329719893938 0.2351307138580019 0.2164848788136298	0.188611
C	0.8792676914476711 0.2635436749524641 0.2782290184089341	0.189458
C	0.2348608844746215 0.6204641877971420 0.2178647910585508	0.190832
C	0.2662868283947322 0.8792487685601656 0.2765356399495714	0.190059
C	0.3794724179129327 0.7587258655934809 0.7817111490282138	0.186421
C	0.1204799468820882 0.7432916372658032 0.7116209930578777	0.188557
C	0.7592637162883847 0.3794111501615296 0.7810677416568035	0.187789
C	0.7387618765977761 0.1202021668272283 0.7132205580797545	0.188950
H	0.6139824619180300 0.2864728554400912 0.4688737920719060	0.107245
H	0.4271727079137740 0.2971537002824599 0.4780828603337881	0.091263
H	0.8974323693405463 0.3152398272307741 0.5262254587945060	0.124574
H	0.0838599721106211 0.3025892267189913 0.5021875117167331	0.091134
H	0.2833807699642912 0.6141537574155338 0.4714459024788036	0.108809
H	0.2938130159582403 0.4266448508828205 0.4817796307048018	0.090650
H	0.3278925629901955 0.8975840812248415 0.5176799317574411	0.124966
H	0.3130176876389937 0.0843143239523817 0.4957510791678152	0.092081
H	0.8894997930701460 0.2187049298267888 0.0220762209857266	0.109627
H	0.0761711779219342 0.2099789866352106 0.0176127465040045	0.096218
H	0.5991461206128835 0.1778827282763501 0.9730192785769264	0.125208
H	0.4130811374027297 0.1930948780131954 0.0013138102893261	0.098209
H	0.1806130458780731 0.5986832407216038 0.9722354912558188	0.125843
H	0.1959438369202294 0.4124668260723504 0.0012763926939221	0.098591
H	0.2110710682041681 0.8891789636408941 0.0269433068438031	0.112718
H	0.2020770155774634 0.0763363299307886 0.0229958513949946	0.096191
H	0.3902489935362312 0.7221545987025244 0.5204718057497477	0.105657
H	0.5765600159105716 0.7155569296459315 0.5156939719207326	0.095594
H	0.0988629465306727 0.7114200470515880 0.4543440741150793	0.123567
H	0.9128888677293273 0.7174245368511695 0.4891257279821768	0.094353
H	0.7233545144554377 0.3902650032138391 0.5198935622447005	0.107049
H	0.7165199014683109 0.5771467815778001 0.5153393114217791	0.096144
H	0.6908935235708333 0.0988016102904425 0.4638570493757574	0.124987
H	0.7014347964705377 0.9123972290083490 0.4952770512875229	0.095606
H	0.1135370422339926 0.7719706300010524 0.9760226032268030	0.101453
H	0.9268416219868202 0.7781229705549414 0.9880634900186623	0.088476
H	0.3974426756354864 0.7989902973192079 0.0359931244605372	0.122148
H	0.5838892416652877 0.7927459038939988 0.0082928469589276	0.088007
H	0.8001709044224576 0.3971402135126456 0.0351211673700965	0.123260
H	0.7925652867738971 0.5839397580848001 0.0085231458120972	0.088288
H	0.7822730057699274 0.1130193627375557 0.9707357349953724	0.104381
H	0.7916752738560133 0.9260411729894865 0.9802306451040851	0.090730
N	0.7743364222424999 0.2741628806353654 0.2957473175148512	-0.105345
N	0.2781922771450390 0.7741276846719778 0.2916598368807676	-0.106948
N	0.7257018897672011 0.2235337643524239 0.1977479493286304	-0.103398
N	0.2227199641067019 0.7255260212393069 0.2009941448013127	-0.104044
N	0.2254350602823488 0.7367087785049932 0.6857646250815148	-0.100186
N	0.7295886354928903 0.2253609954943681 0.6901564116555453	-0.101795
N	0.2744875555877053 0.7653951726186692 0.8055780348126311	-0.101078
N	0.7673340142881216 0.2742728803794084 0.8027432254759009	-0.102227
N	0.4131644098019175 0.2472632594912376 0.2394020466147963	-0.213668
N	0.0870682156940169 0.2537648294875867 0.2608817971132661	-0.214265
N	0.2469390285232578 0.4125637517892507 0.2413537869260973	-0.215407
N	0.2551893686882270 0.0872615329366816 0.2604867517751530	-0.214203
N	0.5872211928148103 0.7526630414194420 0.7622736137920610	-0.211247
N	0.9128690420570875 0.7489890167366837 0.7391932344545176	-0.213493
N	0.7529001917519997 0.5875524132169475 0.7622838602309978	-0.211267
N	0.7480314363001749 0.9123011813516498 0.7380036410802480	-0.209853
F	0.3503020672987053 0.1420819883863878 0.7645321889384012	-0.580902
F	0.1475420069289405 0.3524431383165141 0.7616664536287315	-0.580699
F	0.3536928956748632 0.3484901796491094 0.7466605083603649	-0.583041
F	0.1455762185904791 0.1476466577910632 0.7827603242661260	-0.582064
F	0.6428300480734216 0.8507226112895809 0.2635543427419811	-0.576517
F	0.8522020810574017 0.6473603355929773 0.2625928072343153	-0.576891
F	0.6478542564665936 0.6459928223121145 0.2790679296001145	-0.578388
F	0.8488203767720147 0.8535922846025491 0.2504421247927275	-0.579668
F	0.2497916391364463 0.2494618003092541 -0.0013772095159979	-0.610674
F	0.7481867410537829 0.7491507762812368 0.4987775756304382	-0.606840
O	0.2499970699321595 0.2479752781328020 0.5145886289621778	-0.928705
O	0.7497828312543187 0.7507957201070832 0.0143851722620860	-0.923719
Nb	0.2497419798827854 0.2478953726913568 0.7374570989504148	2.432847
Nb	0.7483749869198527 0.7499440930290786 0.2373566842899653	2.424336
Zn	0.2501658943057540 0.2498757896913923 0.2611058236098880	0.764490
Zn	0.7501231533491312 0.7500714391288108 0.7609407032958790	0.761579
	  	
