#======================================================================

# CRYSTAL DATA

#----------------------------------------------------------------------

data_VESTA_phase_1


_pd_phase_name                         NbOFFIVE_18_Co
_cell_length_a                         14.18931
_cell_length_b                         13.88634
_cell_length_c                         8.21337
_cell_angle_alpha                      89.27185
_cell_angle_beta                       95.67332
_cell_angle_gamma                      89.98516
_symmetry_space_group_name_H-M         P 1
_symmetry_Int_Tables_number            1

loop_
_symmetry_equiv_pos_as_xyz
   x, y, z

loop_
   _atom_site_label
   _atom_site_fract_x
   _atom_site_fract_y
   _atom_site_fract_z
   _atom_site_charge
F	0.4001778119539081 0.3677224819294359 0.5045096853994339	-0.573803
F	0.5136011192771655 0.4821294849738356 0.7364404678417481	-0.631920
F	0.3963148147885497 0.5623706994459752 0.5063234044295228	-0.556618
F	0.9001778789539109 0.8677224479294402 0.5045096853994339	-0.573800
F	0.0136010922771672 0.9821294159738401 0.7364404678417481	-0.631922
F	0.8963147477885475 0.0623707204459733 0.5063234044295228	-0.556618
F	0.5829368893660053 0.3569578696545945 0.5067635516416311	-0.575919
F	0.6065578377932138 0.5533826505557190 0.4998972381896912	-0.559993
F	0.0829369153660079 0.8569578356545995 0.5067635516416311	-0.575920
F	0.1065578297932128 0.0533826715557174 0.4998972381896912	-0.559995
O	0.4853105012311760 0.4783559271117457 0.2620170810464033	-0.936738
O	0.9853104682311770 0.9783558581117513 0.2620170810464033	-0.936740
C	0.6828438664722566 0.1519414904772265 0.6613302949272987	-0.425456
C	0.7569328025778599 0.1508183190050814 0.8025424802442953	0.210227
C	0.7616163317592419 0.1984354935924821 0.9521925139983797	-0.152162
C	0.6904963322234793 0.2622286066824470 0.0098655447068766	-0.144307
C	0.6738856924656704 0.3606176371139623 0.9674912126393010	0.220773
C	0.7279237284629760 0.4237557207164210 0.8620638694383514	-0.428703
C	0.8912004521079766 0.2061028257051936 0.1986066905579632	-0.433854
C	0.8500691879334520 0.1718693643326542 0.0360809067291812	0.219609
C	0.6250207026959302 0.2389168764237275 0.1212872035319065	0.207105
C	0.6052938702549664 0.1474557382536284 0.2078737261329511	-0.423645
C	0.1828438834722545 0.6519415244772224 0.6613302949272987	-0.425492
C	0.2569328365778549 0.6508183530050845 0.8025424802442953	0.210241
C	0.2616163827592424 0.6984355275924783 0.9521925139983797	-0.152157
C	0.1904963662234752 0.7622286066824463 0.0098655447068766	-0.144289
C	0.1738856674656644 0.8606176711139651 0.9674912126393010	0.220774
C	0.2279237784629733 0.9237557547164171 0.8620638694383514	-0.428703
C	0.3912003851079748 0.7061028087051887 0.1986066905579632	-0.433855
C	0.3500692549334544 0.6718693643326542 0.0360809067291812	0.219602
C	0.1250207026959375 0.7389168934237252 0.1212872035319065	0.207101
C	0.1052938112549719 0.6474557552536262 0.2078737261329511	-0.423641
C	0.3205342523398466 0.1538791024475779 0.3397786490070832	-0.424239
C	0.2457809783712351 0.1512699138241091 0.1997530491995290	0.212867
C	0.2393695459596843 0.1982294794888734 0.0471545850838808	-0.148398
C	0.3093435328976120 0.2634016680331741 0.9870849802732080	-0.147205
C	0.3248251497173857 0.3614498669352972 0.0288000467904531	0.218381
C	0.2685680477059627 0.4230052501395967 0.1308084698720287	-0.423257
C	0.1080414329729358 0.2033168841998862 0.8024958695010075	-0.437627
C	0.1508801844473481 0.1704650261414591 0.9664370003388889	0.223408
C	0.3760759298619086 0.2420781880810710 0.8777700747180659	0.206516
C	0.3967056475687675 0.1520626423649887 0.7913079235622903	-0.425657
C	0.8205342853398458 0.6538791364475737 0.3397786490070832	-0.424240
C	0.7457810113712344 0.6512699478241119 0.1997530491995290	0.212857
C	0.7393695799596873 0.6982295134888694 0.0471545850838808	-0.148377
C	0.8093435668976147 0.7634016680331738 0.9870849802732080	-0.147191
C	0.8248251157173899 0.8614499009352996 0.0288000467904532	0.218380
C	0.7685681157059612 0.9230052841395924 0.1308084698720287	-0.423260
C	0.6080413699729347 0.7033168671998808 0.8024958695010075	-0.437616
C	0.6508802354473487 0.6704650261414582 0.9664370003388889	0.223378
C	0.8760759298619086 0.7420782050810683 0.8777700747180659	0.206511
C	0.8967055805687658 0.6520626593649868 0.7913079235622903	-0.425658
H	0.7131824944763703 0.1706761581860526 0.5472021582728006	0.150389
H	0.6286597441312034 0.2058703422099455 0.6797735606605615	0.143829
H	0.6488292154473484 0.0810145032857487 0.6455183071589782	0.133136
H	0.6805043431042870 0.4674854233033594 0.7774822192578923	0.144787
H	0.7727905237831523 0.3796486980574949 0.7910585740676477	0.139021
H	0.7736540771700103 0.4729468252329764 0.9385770701019702	0.128016
H	0.8628951991248869 0.0660683284573745 0.7066451074151864	0.280492
H	0.8907961680239532 0.1498757184007856 0.2934145014684290	0.147891
H	0.8489025715034869 0.2668765701896149 0.2352047087411748	0.132842
H	0.9648007779800698 0.2297946901281669 0.1945658196973351	0.139736
H	0.5815501963090418 0.1621900585895291 0.3282847601718074	0.145005
H	0.6690221252202440 0.1023894822637543 0.2250912696686850	0.151231
H	0.5493078116564687 0.1057311490228919 0.1382113479300939	0.130695
H	0.5229749439686679 0.3327325126821990 0.2121635921269239	0.265406
H	0.2131824604763750 0.6706761581860521 0.5472021582728006	0.150406
H	0.1286597531312011 0.7058702912099447 0.6797735606605615	0.143860
H	0.1488291894473464 0.5810144862857507 0.6455183071589782	0.133108
H	0.1805043771042825 0.9674854573033627 0.7774822192578923	0.144788
H	0.2727905737831491 0.8796487320574977 0.7910585740676477	0.139021
H	0.2736540771700100 0.9729467902329700 0.9385770701019702	0.128015
H	0.3628952661248886 0.5660683194573777 0.7066451074151864	0.280494
H	0.3907961680239534 0.6498757184007852 0.2934145014684290	0.147890
H	0.3489025715034865 0.7668765351896153 0.2352047087411748	0.132841
H	0.4648007779800693 0.7297947071281647 0.1945658196973351	0.139737
H	0.0815501753090444 0.6621900755895264 0.3282847601718074	0.145004
H	0.1690221752202411 0.6023894742637609 0.2250912696686850	0.151231
H	0.0493077736564655 0.6057310970228870 0.1382113479300939	0.130693
H	0.0229749299686664 0.8327325476821978 0.2121635921269239	0.265406
H	0.2906010593832331 0.1728758145224858 0.4532828547236240	0.151909
H	0.3739946022124306 0.2080517063067969 0.3174036966885522	0.140989
H	0.3555162778621631 0.0834149690990957 0.3594009818663407	0.134516
H	0.3145570860945912 0.4683255325532619 0.2129234000993638	0.139415
H	0.2249388887748721 0.3780212173966930 0.2044625835650549	0.137876
H	0.2214785519242072 0.4709365671200072 0.0517498984031647	0.128185
H	0.1421646604961817 0.0661484193846830 0.3041704709511986	0.275762
H	0.1059467588928335 0.1456285940172237 0.7123882210379010	0.151662
H	0.1504365992274024 0.2627295355702745 0.7592954350224282	0.134670
H	0.0350112080627914 0.2282582814136520 0.8080226369004283	0.142252
H	0.4207434152629360 0.1691319444404486 0.6712768530693909	0.145880
H	0.3331549661871889 0.1070226520629879 0.7732282778491303	0.151012
H	0.4526040037822761 0.1093165779739067 0.8613123299475911	0.131068
H	0.4774989319398285 0.3379923861197883 0.7872987536767289	0.269006
H	0.7906010933832361 0.6728758145224853 0.4532828547236240	0.151909
H	0.8739946022124307 0.7080516553067960 0.3174036966885522	0.140988
H	0.8555162448621634 0.5834149520990980 0.3594009818663407	0.134516
H	0.8145571190945906 0.9683255665532650 0.2129234000993638	0.139415
H	0.7249389227748757 0.8780212513966956 0.2044625835650550	0.137879
H	0.7214785349242093 0.9709365321200012 0.0517498984031647	0.128186
H	0.6421647024961850 0.5661484103846858 0.3041704709511986	0.275764
H	0.6059468008928371 0.6456285940172241 0.7123882210379010	0.151661
H	0.6504366162274005 0.7627295005702754 0.7592954350224282	0.134670
H	0.5350111870627932 0.7282582984136503 0.8080226369004283	0.142250
H	0.9207434152629361 0.6691319614404463 0.6712768530693909	0.145881
H	0.8331550341871876 0.6070226440629944 0.7732282778491303	0.151012
H	0.9526040037822763 0.6093165259739020 0.8613123299475911	0.131070
H	0.9774989319398288 0.8379924211197872 0.7872987536767289	0.269005
N	0.8374668175694270 0.0989517332469395 0.8046479608205623	-0.144784
N	0.6021201416677632 0.3943154186034756 0.0463688905505461	-0.261267
N	0.8952430760362592 0.1105612555578629 0.9445611861146290	-0.269998
N	0.5749228629155718 0.3198389380848161 0.1383856772624919	-0.139358
N	0.3374667505694252 0.5989517162469342 0.8046479608205623	-0.144790
N	0.1021201586677610 0.8943154536034748 0.0463688905505461	-0.261275
N	0.3952430420362563 0.6105612895578585 0.9445611861146290	-0.269995
N	0.0749228629155718 0.8198389380848159 0.1383856772624919	-0.139358
N	0.1662155018564006 0.0985133152162972 0.2027535974355596	-0.144049
N	0.3969919843257927 0.3967908352554838 0.9517824109828510	-0.257261
N	0.1072211429904342 0.1091190230504416 0.0629014715299482	-0.270110
N	0.4257460646641843 0.3237249673440708 0.8613160823771212	-0.140587
N	0.6662155018564009 0.5985132982162930 0.2027535974355596	-0.144050
N	0.8969919843257924 0.8967908702554833 0.9517824109828510	-0.257265
N	0.6072211679904330 0.6091190570504368 0.0629014715299482	-0.270099
N	0.9257460646641841 0.8237249673440710 0.8613160823771212	-0.140585
Nb	0.4957425973084738 0.4656879664030532 0.4807408711915410	2.404096
Nb	-0.0042574006915262 0.9656880354030486 0.4807408711915410	2.404102
Co	0.5015059304570721 0.5078526576162155 0.0104562533929987	0.887239
Co	0.0015059304570724 0.0078526616162157 0.0104562533929987	0.887253
	  	
