#======================================================================

# CRYSTAL DATA

#----------------------------------------------------------------------

data_VESTA_phase_1


_pd_phase_name                         NbOFFIVE_15_Co_i
_cell_length_a                         30.02664
_cell_length_b                         29.06250
_cell_length_c                         8.03433
_cell_angle_alpha                      90
_cell_angle_beta                       90
_cell_angle_gamma                      90
_symmetry_space_group_name_H-M         P 1
_symmetry_Int_Tables_number            1

loop_
_symmetry_equiv_pos_as_xyz
   x, y, z

loop_
   _atom_site_label
   _atom_site_fract_x
   _atom_site_fract_y
   _atom_site_fract_z
   _atom_site_charge
C	0.9323813922764995 0.1021349785527748 0.8932626830643962	0.106912
C	0.9007137992654608 0.0674256368272264 0.8992145696533340	-0.166822
C	0.7698319024671686 0.9362617739585645 0.9019887634063295	-0.113231
C	0.7357690144474716 0.9041848200380199 0.9017605192338214	-0.117591
C	0.5691009403893079 0.7421071985092523 0.8933055771174793	0.104913
C	0.6025148000357583 0.7750182168290584 0.8989448354752562	-0.171937
C	0.4323813282764947 0.6021349615527772 0.8932626830643962	0.106909
C	0.4007137672654579 0.5674256168272250 0.8992145696533340	-0.166823
C	0.2698319024671684 0.4362617419585617 0.9019887634063295	-0.113231
C	0.2357690144474716 0.4041848200380198 0.9017605192338214	-0.117591
C	0.0691009803893040 0.2421072145092536 0.8933055771174793	0.104913
C	0.1025147920357649 0.2750181998290607 0.8989448354752562	-0.171937
C	0.0676186517235038 0.8978650384472228 0.3932626830643964	0.106910
C	0.0992862327345421 0.9325743831727750 0.3992145696533341	-0.166824
C	0.2301681295328271 0.0637382670414354 0.4019887634063294	-0.113223
C	0.2642310015525295 0.0958151719619795 0.4017605192338213	-0.117591
C	0.4308990276106968 0.2578928014907480 0.3933055461174796	0.104913
C	0.3974851999642416 0.2249817831709415 0.3989448354752562	-0.171937
C	0.5676186077235005 0.3978650054472241 0.3932626830643964	0.106913
C	0.5992862007345392 0.4325743511727725 0.3992145696533341	-0.166822
C	0.7301680975328314 0.5637382260414355 0.4019887634063294	-0.113231
C	0.7642309855525284 0.5958151799619801 0.4017605192338213	-0.117591
C	0.9308990596106921 0.7578928014907477 0.3933055461174796	0.104913
C	0.8974851999642417 0.7249817831709416 0.3989448354752562	-0.171937
C	0.0674093988510249 0.1023205403921707 0.6051333087208848	0.104248
C	0.0991115004750480 0.0675741578617409 0.5989477475368770	-0.165389
C	0.2301715122330346 0.9362578355942751 0.5980232516232215	-0.113575
C	0.2642274353168623 0.9041875335680819 0.5982491159014413	-0.117062
C	0.4310931867251823 0.7418859733297868 0.6054373233050037	0.103362
C	0.3976561158738731 0.7748364840209803 0.5993878652873960	-0.170120
C	0.5674093548510210 0.6023205233921731 0.6051333087208848	0.104298
C	0.5991114684750458 0.5675741378617395 0.5989477475368770	-0.165414
C	0.7301714802330393 0.4362578035942721 0.5980232516232215	-0.113561
C	0.7642274193168611 0.4041875335680819 0.5982491159014413	-0.117107
C	0.9310932187251779 0.2418859893297882 0.6054373233050037	0.103362
C	0.8976561158738733 0.2748364670209825 0.5993878652873960	-0.170120
C	0.9325906451489790 0.8976794766078269 0.1051333327208795	0.104298
C	0.9008885315249542 0.9324258621382605 0.0989477235368818	-0.165414
C	0.7698285197669607 0.0637422054057250 0.0980232906232213	-0.113561
C	0.7357725806831389 0.0958124584319174 0.0982491389014395	-0.117107
C	0.5689067812748221 0.2581140266702130 0.1054373153050027	0.103361
C	0.6023438841261267 0.2251635159790198 0.0993878812873969	-0.170120
C	0.4325905811489734 0.3976794436078279 0.1051333327208795	0.104248
C	0.4008884995249519 0.4324258301382582 0.0989477235368818	-0.165389
C	0.2698285197669610 0.5637421644057249 0.0980232906232213	-0.113561
C	0.2357725806831392 0.5958124664319181 0.0982491389014395	-0.117107
C	0.0689068212748183 0.7581140266702132 0.1054373153050027	0.103361
C	0.1023438761261330 0.7251635159790197 0.0993878812873969	-0.170120
C	0.0674093988510249 0.8976794766078269 0.1051333327208795	0.104248
C	0.0991115004750480 0.9324258621382605 0.0989477235368818	-0.165389
C	0.2301715122330346 0.0637422054057250 0.0980232906232213	-0.113575
C	0.2642274353168623 0.0958124584319174 0.0982491389014395	-0.117062
C	0.4310931867251823 0.2581140266702130 0.1054373153050027	0.103362
C	0.3976561158738731 0.2251635159790198 0.0993878812873969	-0.170120
C	0.5674093548510210 0.3976794436078279 0.1051333327208795	0.104298
C	0.5991114684750458 0.4324258301382582 0.0989477235368817	-0.165414
C	0.7301714802330393 0.5637421644057249 0.0980232906232213	-0.113561
C	0.7642274193168611 0.5958124664319181 0.0982491389014395	-0.117107
C	0.9310932187251779 0.7581140266702132 0.1054373153050027	0.103362
C	0.8976561158738733 0.7251635159790197 0.0993878812873969	-0.170120
C	0.9325906451489790 0.1023205403921707 0.6051333087208848	0.104298
C	0.9008885315249542 0.0675741578617409 0.5989477475368770	-0.165414
C	0.7698285197669607 0.9362578355942751 0.5980232516232215	-0.113561
C	0.7357725806831389 0.9041875335680819 0.5982491159014413	-0.117107
C	0.5689067812748221 0.7418859733297868 0.6054373233050037	0.103362
C	0.6023438841261267 0.7748364840209803 0.5993878652873960	-0.170120
C	0.4325905811489734 0.6023205233921731 0.6051333087208848	0.104247
C	0.4008884995249519 0.5675741378617395 0.5989477475368770	-0.165389
C	0.2698285197669610 0.4362578035942721 0.5980232516232215	-0.113561
C	0.2357725806831392 0.4041875335680819 0.5982491159014413	-0.117107
C	0.0689068212748183 0.2418859893297882 0.6054373233050037	0.103362
C	0.1023438761261330 0.2748364670209825 0.5993878652873960	-0.170120
C	0.9323813922764995 0.8978650384472228 0.3932626830643964	0.106912
C	0.9007137992654608 0.9325743831727750 0.3992145696533341	-0.166823
C	0.7698319024671686 0.0637382670414354 0.4019887634063294	-0.113230
C	0.7357690144474716 0.0958151719619795 0.4017605192338213	-0.117591
C	0.5691009403893079 0.2578928014907480 0.3933055461174796	0.104913
C	0.6025148000357583 0.2249817831709415 0.3989448354752562	-0.171937
C	0.4323813282764947 0.3978650054472241 0.3932626830643964	0.106909
C	0.4007137672654579 0.4325743511727725 0.3992145696533341	-0.166823
C	0.2698319024671684 0.5637382260414355 0.4019887634063294	-0.113230
C	0.2357690144474716 0.5958151799619801 0.4017605192338213	-0.117591
C	0.0691009803893040 0.7578928014907477 0.3933055461174796	0.104913
C	0.1025147920357649 0.7249817831709416 0.3989448354752562	-0.171937
C	0.0676186517235038 0.1021349785527748 0.8932626830643962	0.106909
C	0.0992862327345421 0.0674256368272264 0.8992145696533340	-0.166823
C	0.2301681295328271 0.9362617739585645 0.9019887634063295	-0.113222
C	0.2642310015525295 0.9041848200380199 0.9017605192338214	-0.117591
C	0.4308990276106968 0.7421071985092523 0.8933055771174793	0.104914
C	0.3974851999642416 0.7750182168290584 0.8989448354752562	-0.171937
C	0.5676186077235005 0.6021349615527772 0.8932626830643962	0.106912
C	0.5992862007345392 0.5674256168272250 0.8992145696533340	-0.166822
C	0.7301680975328314 0.4362617419585617 0.9019887634063295	-0.113231
C	0.7642309855525284 0.4041848200380198 0.9017605192338214	-0.117591
C	0.9308990596106921 0.2421072145092536 0.8933055771174793	0.104914
C	0.8974851999642417 0.2750181998290607 0.8989448354752562	-0.171937
C	0.6542397182164720 0.8257209150507774 0.7488395682508959	-0.105357
C	0.8840889041381149 0.0494302675774158 0.7488667504251600	0.161902
C	0.8217526172653893 0.9857240606821001 0.7497421555009058	-0.098666
C	0.6200972533366879 0.7922708454964642 0.7489039489422893	0.169729
C	0.7873167092669807 0.9527139208945528 0.7500008484860914	0.125990
C	0.7182427403143173 0.8875767146563631 0.7499973528210275	0.140824
C	0.6838030658473969 0.8545364465768795 0.7497234889174588	-0.101072
C	0.8510580091602492 0.0148310726552943 0.7488689182278651	-0.107381
C	0.1542396702164750 0.3257209480507765 0.7488395682508959	-0.105357
C	0.3840888721381121 0.5494302425774172 0.7488667504251600	0.161906
C	0.3217526492653920 0.4857240936821063 0.7497421555009058	-0.098666
C	0.1200972293366862 0.2922708454964643 0.7489039489422893	0.169729
C	0.2873167412669760 0.4527139208945530 0.7500008484860914	0.125990
C	0.2182427083143146 0.3875767476563622 0.7499973528210275	0.140824
C	0.1838030818473979 0.3545364465768793 0.7497234889174588	-0.101072
C	0.3510580411602452 0.5148311086552970 0.7488689182278651	-0.107381
C	0.3457603457835262 0.1742790679492178 0.2488395522508942	-0.105356
C	0.1159111118618865 0.9505697574225828 0.2488667344251586	0.161906
C	0.1782473827346109 0.0142759203178948 0.2497421395009048	-0.098668
C	0.3799027786633145 0.2077291545035357 0.2489039329422879	0.169729
C	0.2126832747330253 0.0472860621054420 0.2500008324860899	0.125974
C	0.2817572916856852 0.1124232683436392 0.2499973368210262	0.140815
C	0.3161969341526034 0.1454635534231205 0.2497234729174581	-0.101072
C	0.1489419748397491 0.9851688913447030 0.2488689022278635	-0.107381
C	0.8457602817835280 0.6742790849492226 0.2488395522508942	-0.105356
C	0.6159110958618851 0.4505697574225827 0.2488667344251586	0.161902
C	0.6782473827346107 0.5142759393178999 0.2497421395009048	-0.098665
C	0.8799027466633121 0.7077291545035358 0.2489039329422879	0.169729
C	0.7126832907330193 0.5472860791054472 0.2500008324860899	0.125990
C	0.7817572596856827 0.6124232853436369 0.2499973368210262	0.140824
C	0.8161969341526031 0.6454635534231205 0.2497234729174581	-0.101072
C	0.6489419908397508 0.4851689243447018 0.2488689022278635	-0.107383
C	0.3457603457835262 0.8257209150507774 0.7488395682508959	-0.105357
C	0.1159111118618865 0.0494302675774158 0.7488667504251600	0.161906
C	0.1782473827346109 0.9857240606821001 0.7497421555009058	-0.098670
C	0.3799027786633145 0.7922708454964642 0.7489039489422893	0.169729
C	0.2126832747330253 0.9527139208945528 0.7500008484860914	0.125974
C	0.2817572916856852 0.8875767146563631 0.7499973528210275	0.140814
C	0.3161969341526034 0.8545364465768795 0.7497234889174588	-0.101071
C	0.1489419748397491 0.0148310726552943 0.7488689182278651	-0.107379
C	0.8457602817835280 0.3257209480507765 0.7488395682508959	-0.105357
C	0.6159110958618851 0.5494302425774172 0.7488667504251600	0.161902
C	0.6782473827346107 0.4857240936821063 0.7497421555009058	-0.098666
C	0.8799027466633121 0.2922708454964643 0.7489039489422893	0.169729
C	0.7126832907330193 0.4527139208945530 0.7500008484860914	0.125990
C	0.7817572596856827 0.3875767476563622 0.7499973528210275	0.140824
C	0.8161969341526031 0.3545364465768793 0.7497234889174588	-0.101072
C	0.6489419908397508 0.5148311086552970 0.7488689182278651	-0.107381
C	0.6542397182164720 0.1742790679492178 0.2488395522508942	-0.105356
C	0.8840889041381149 0.9505697574225828 0.2488667344251586	0.161902
C	0.8217526172653893 0.0142759203178948 0.2497421395009048	-0.098665
C	0.6200972533366879 0.2077291545035357 0.2489039329422879	0.169729
C	0.7873167092669807 0.0472860621054420 0.2500008324860899	0.125990
C	0.7182427403143173 0.1124232683436392 0.2499973368210262	0.140825
C	0.6838030658473969 0.1454635534231205 0.2497234729174581	-0.101072
C	0.8510580091602492 0.9851688913447030 0.2488689022278635	-0.107383
C	0.1542396702164750 0.6742790849492226 0.2488395522508942	-0.105356
C	0.3840888721381121 0.4505697574225827 0.2488667344251586	0.161907
C	0.3217526492653920 0.5142759393178999 0.2497421395009048	-0.098665
C	0.1200972293366862 0.7077291545035358 0.2489039329422879	0.169729
C	0.2873167412669760 0.5472860791054472 0.2500008324860899	0.125990
C	0.2182427083143146 0.6124232853436369 0.2499973368210262	0.140824
C	0.1838030818473979 0.6454635534231205 0.2497234729174581	-0.101072
C	0.3510580411602452 0.4851689243447018 0.2488689022278635	-0.107382
H	0.9456869636503528 0.1167594320482145 0.0074860801697990	0.088264
H	0.8889182867452092 0.0543974914338460 0.0184594696600843	0.121612
H	0.7835020624756823 0.9490991725281998 0.0187109730536283	0.106303
H	0.7221620241928629 0.8913626478123191 0.0184602083909530	0.115568
H	0.5550433556588130 0.7282913751759669 0.0075955180120361	0.087682
H	0.6149446808703763 0.7872456705895031 0.0182765271838023	0.127391
H	0.4456870286503474 0.6167594070482161 0.0074860801697990	0.088265
H	0.3889182867452097 0.5543974584338469 0.0184594696600843	0.121611
H	0.2835020304756865 0.4490992055281985 0.0187109730536283	0.106303
H	0.2221620241928627 0.3913626148123202 0.0184602083909530	0.115568
H	0.0550433076588159 0.2282913911759680 0.0075955180120361	0.087682
H	0.1149447288703806 0.2872456045895048 0.0182765271838023	0.127392
H	0.0543129883496503 0.8832405929517839 0.5074860651698012	0.088264
H	0.1110817132547905 0.9456025415661531 0.5184594696600843	0.121612
H	0.2164979695243135 0.0509007984718016 0.5187109730536278	0.106302
H	0.2778379758071372 0.1086373931876804 0.5184601773909469	0.115569
H	0.4449567093411819 0.2717086088240321 0.5075955260120366	0.087682
H	0.3850552551296252 0.2127543784104973 0.5182765541838077	0.127391
H	0.5543130363496472 0.3832405929517839 0.5074860651698012	0.088264
H	0.6110817132547908 0.4456025085661541 0.5184594696600843	0.121612
H	0.7164979375243177 0.5509007944718011 0.5187109730536278	0.106303
H	0.7778379758071371 0.6086373521876809 0.5184601773909469	0.115569
H	0.9449566443411870 0.7717086248240331 0.5075955260120366	0.087682
H	0.8850553191296237 0.7127543294104969 0.5182765541838077	0.127391
H	0.0540307225692710 0.1169700556964061 0.4910004102599569	0.097942
H	0.1108712165375782 0.0545910277901994 0.4795982154161211	0.121369
H	0.2164974050297010 0.9491010673920662 0.4813123694278307	0.106404
H	0.2778436149554833 0.8913587625008220 0.4815700928675890	0.115430
H	0.4451864074599619 0.7280021020606631 0.4912500345388814	0.096364
H	0.3853027993670762 0.7870226775028982 0.4799083443345061	0.126742
H	0.5540307705692683 0.6169700306964075 0.4910004102599569	0.097935
H	0.6108712165375780 0.5545909947902002 0.4795982154161211	0.121363
H	0.7164973730297054 0.4491011003920653 0.4813123694278307	0.106408
H	0.7778436149554837 0.3913587295008224 0.4815700928675890	0.115436
H	0.9451863424599668 0.2280021180606648 0.4912500345388814	0.096364
H	0.8853028633670745 0.2870226115028998 0.4799083443345061	0.126742
H	0.9459692294307317 0.8830299693035925 0.9910003792599581	0.097934
H	0.8891287834624220 0.9454090052097998 0.9795981844161220	0.121364
H	0.7835026269702946 0.0508989036079350 0.9813123374278279	0.106407
H	0.7221563850445163 0.1086412784991781 0.9815700928675896	0.115437
H	0.5548136575400332 0.2719978819393352 0.9912500345388815	0.096365
H	0.6146971366329255 0.2129773714971026 0.9799083443345060	0.126741
H	0.4459692944307268 0.3830299693035924 0.9910003792599581	0.097941
H	0.3891287834624216 0.4454089722098007 0.9795981844161220	0.121370
H	0.2835025949702992 0.5508988996079346 0.9813123374278279	0.106407
H	0.2221563850445167 0.6086412374991780 0.9815700928675896	0.115437
H	0.0548136095400361 0.7719978979393369 0.9912500345388815	0.096365
H	0.1146971846329295 0.7129773224971018 0.9799083443345060	0.126741
H	0.0540307225692710 0.8830299693035925 0.9910003792599581	0.097941
H	0.1108712165375782 0.9454090052097998 0.9795981844161220	0.121370
H	0.2164974050297010 0.0508989036079350 0.9813123374278279	0.106404
H	0.2778436149554833 0.1086412784991781 0.9815700928675896	0.115433
H	0.4451864074599619 0.2719978819393352 0.9912500345388815	0.096365
H	0.3853027993670762 0.2129773714971026 0.9799083443345060	0.126741
H	0.5540307705692683 0.3830299693035924 0.9910003792599581	0.097934
H	0.6108712165375780 0.4454089722098007 0.9795981844161220	0.121364
H	0.7164973730297054 0.5508988996079346 0.9813123374278279	0.106408
H	0.7778436149554837 0.6086412374991780 0.9815700928675896	0.115439
H	0.9451863424599668 0.7719978979393368 0.9912500345388815	0.096365
H	0.8853028633670745 0.7129773224971018 0.9799083443345060	0.126741
H	0.9459692294307317 0.1169700556964061 0.4910004102599569	0.097935
H	0.8891287834624220 0.0545910277901994 0.4795982154161211	0.121363
H	0.7835026269702946 0.9491010673920662 0.4813123694278307	0.106408
H	0.7221563850445163 0.8913587625008220 0.4815700928675890	0.115438
H	0.5548136575400332 0.7280021020606631 0.4912500345388814	0.096364
H	0.6146971366329255 0.7870226775028982 0.4799083443345061	0.126742
H	0.4459692944307268 0.6169700306964075 0.4910004102599569	0.097942
H	0.3891287834624216 0.5545909947902002 0.4795982154161211	0.121369
H	0.2835025949702992 0.4491011003920653 0.4813123694278307	0.106409
H	0.2221563850445167 0.3913587295008224 0.4815700928675890	0.115438
H	0.0548136095400361 0.2280021180606648 0.4912500345388814	0.096364
H	0.1146971846329295 0.2870226115028998 0.4799083443345061	0.126742
H	0.9456869636503528 0.8832405929517839 0.5074860651698012	0.088264
H	0.8889182867452092 0.9456025415661531 0.5184594696600843	0.121612
H	0.7835020624756823 0.0509007984718016 0.5187109730536278	0.106303
H	0.7221620241928629 0.1086373931876804 0.5184601773909469	0.115571
H	0.5550433556588130 0.2717086088240321 0.5075955260120366	0.087682
H	0.6149446808703763 0.2127543784104973 0.5182765541838077	0.127391
H	0.4456870286503474 0.3832405929517839 0.5074860651698012	0.088264
H	0.3889182867452097 0.4456025085661541 0.5184594696600843	0.121612
H	0.2835020304756865 0.5509007944718011 0.5187109730536278	0.106303
H	0.2221620241928627 0.6086373521876809 0.5184601773909469	0.115571
H	0.0550433076588159 0.7717086248240331 0.5075955260120366	0.087682
H	0.1149447288703806 0.7127543294104969 0.5182765541838077	0.127391
H	0.0543129883496503 0.1167594320482145 0.0074860801697990	0.088265
H	0.1110817132547905 0.0543974914338460 0.0184594696600843	0.121611
H	0.2164979695243135 0.9490991725281998 0.0187109730536283	0.106303
H	0.2778379758071372 0.8913626478123191 0.0184602083909530	0.115570
H	0.4449567093411819 0.7282913751759669 0.0075955180120361	0.087682
H	0.3850552551296252 0.7872456705895031 0.0182765271838023	0.127392
H	0.5543130363496472 0.6167594070482161 0.0074860801697990	0.088264
H	0.6110817132547908 0.5543974584338469 0.0184594696600843	0.121611
H	0.7164979375243177 0.4490992055281985 0.0187109730536283	0.106304
H	0.7778379758071371 0.3913626148123202 0.0184602083909530	0.115570
H	0.9449566443411870 0.2282913911759680 0.0075955180120361	0.087682
H	0.8850553191296237 0.2872456045895048 0.0182765271838023	0.127392
Co	0.5000000000000000 0.6728345962063863 0.7562527616262470	0.652817
Co	0.0000000000000000 0.1728345632063869 0.7562527616262470	0.652817
Co	0.5000000000000000 0.3271654367936129 0.2562527456262459	0.652817
Co	0.0000000000000000 0.8271654037936137 0.2562527456262459	0.652817
Nb	0.5000000000000000 0.6728600367087990 0.2331177251365341	2.405244
Nb	0.0000000000000000 0.1728600857087994 0.2331177251365341	2.405244
Nb	0.5000000000000000 0.3271398982912062 0.7331177411365354	2.405244
Nb	0.0000000000000000 0.8271399632912010 0.7331177411365354	2.405244
F	0.5000000000000000 0.7395733090532678 0.2605656834886755	-0.584214
F	0.5000000000000000 0.6061902152577916 0.2603729713487573	-0.580525
F	0.0000000000000000 0.2395732760532687 0.2605656834886755	-0.584214
F	0.0000000000000000 0.1061902232577922 0.2603729713487573	-0.580525
F	0.5000000000000000 0.2604267079467302 0.7605656994886771	-0.584216
F	0.5000000000000000 0.3938097517422093 0.7603729873487586	-0.580523
F	0.0000000000000000 0.7604266909467322 0.7605656994886771	-0.584216
F	0.0000000000000000 0.8938097847422085 0.7603729873487586	-0.580523
F	0.5647139548974891 0.6727683759254374 0.2594791667354834	-0.584058
F	0.0647139468974887 0.1727683589254400 0.2594791667354834	-0.584058
F	0.4352860451025107 0.3272316240745620 0.7594791827354848	-0.584057
F	0.9352860451025109 0.8272316240745626 0.7594791827354848	-0.584057
F	0.4352860451025107 0.6727683759254374 0.2594791667354834	-0.584058
F	0.9352860451025109 0.1727683589254400 0.2594791667354834	-0.584058
F	0.5647139548974891 0.3272316240745620 0.7594791827354848	-0.584057
F	0.0647139468974887 0.8272316240745626 0.7594791827354848	-0.584057
F	0.5000000000000000 0.6729193727502769 0.4986823417361476	-0.609129
F	0.0000000000000000 0.1729193727502771 0.4986823417361476	-0.609129
F	0.5000000000000000 0.3270806272497229 -0.0013175962638543	-0.609129
F	0.0000000000000000 0.8270806272497231 -0.0013175962638543	-0.609129
O	0.5000000000000000 0.6730351704818595 0.0090517172914300	-0.923403
O	0.0000000000000000 0.1730351704818591 0.0090517172914300	-0.923403
O	0.5000000000000000 0.3269648295181410 0.5090516982914319	-0.923403
O	0.0000000000000000 0.8269648295181405 0.5090516982914319	-0.923403
N	0.5522963586720171 0.7253995145678807 0.7497263007791585	-0.189373
N	0.9482972577376724 0.1196602223991934 0.7495462069591491	-0.187708
N	0.0522963986720133 0.2253995305678815 0.7497263007791585	-0.189372
N	0.4482972257376770 0.6196601983991910 0.7495462069591491	-0.187697
N	0.4477036093279874 0.2746004694321184 0.2497262847791573	-0.189370
N	0.0517027702623228 0.8803398016008090 0.2495461909591477	-0.187699
N	0.9477036413279829 0.7746004854321193 0.2497262847791573	-0.189371
N	0.5517027422623276 0.3803397686008094 0.2495461909591477	-0.187710
N	0.4477036093279874 0.7253995145678807 0.7497263007791585	-0.189372
N	0.0517027702623228 0.1196602223991934 0.7495462069591491	-0.187697
N	0.9477036413279829 0.2253995305678815 0.7497263007791585	-0.189372
N	0.5517027422623276 0.6196601983991910 0.7495462069591491	-0.187708
N	0.5522963586720171 0.2746004694321184 0.2497262847791573	-0.189370
N	0.9482972577376724 0.8803398016008090 0.2495461909591477	-0.187710
N	0.0522963986720133 0.7746004854321193 0.2497262847791573	-0.189370
N	0.4482972257376770 0.3803397686008094 0.2495461909591477	-0.187699
	  	
