#======================================================================

# CRYSTAL DATA

#----------------------------------------------------------------------

data_VESTA_phase_1


_pd_phase_name                         NbOFFIVE_5_Ni_i
_cell_length_a                         19.89835
_cell_length_b                         19.89835
_cell_length_c                         15.61060
_cell_angle_alpha                      90
_cell_angle_beta                       90
_cell_angle_gamma                      90
_symmetry_space_group_name_H-M         P 1
_symmetry_Int_Tables_number            1

loop_
_symmetry_equiv_pos_as_xyz
   x, y, z

loop_
   _atom_site_label
   _atom_site_fract_x
   _atom_site_fract_y
   _atom_site_fract_z
   _atom_site_charge
F	0.3264387976055745 0.1886173651652394 0.3464328241317193	-0.589436
F	0.1735611903944246 0.3113826468347545 0.3464328241317193	-0.589435
F	0.3113826468347545 0.3264387976055745 0.3464328241317193	-0.589435
F	0.1886173651652394 0.1735611903944246 0.3464328241317193	-0.589436
F	0.6737671968253595 0.6884165247533762 0.1439263098977605	-0.589591
F	0.8262328031746405 0.8115834752466238 0.1439263098977605	-0.589590
F	0.6884165247533762 0.8262328031746405 0.1439263098977605	-0.589590
F	0.8115834752466238 0.6737671968253595 0.1439263098977605	-0.589591
F	0.6737671968253595 0.8115834752466238 0.6439263248977584	-0.589589
F	0.8262328031746405 0.6884165247533762 0.6439263248977584	-0.589591
F	0.6884165247533762 0.6737671968253595 0.6439263248977584	-0.589590
F	0.8115834752466238 0.8262328031746405 0.6439263248977584	-0.589589
F	0.3264387976055745 0.3113826468347545 0.8464327931317205	-0.589435
F	0.1735611903944246 0.1886173651652394 0.8464327931317205	-0.589436
F	0.3113826468347545 0.1735611903944246 0.8464327931317205	-0.589436
F	0.1886173651652394 0.3264387976055745 0.8464327931317205	-0.589435
F	0.2500000000000000 0.2500000000000000 0.2261055984884425	-0.609561
F	0.7500000000000000 0.7500000000000000 0.0239143344330945	-0.608329
F	0.7500000000000000 0.7500000000000000 0.5239143304330941	-0.608330
F	0.2500000000000000 0.2500000000000000 0.7261056444884392	-0.609559
O	0.2500000000000000 0.2500000000000000 0.4735077953457639	-0.941649
O	0.7500000000000000 0.7500000000000000 0.2712150793412456	-0.943241
O	0.7500000000000000 0.7500000000000000 0.7712150483412464	-0.943240
O	0.2500000000000000 0.2500000000000000 0.9735077953457635	-0.941651
N	0.3560135313919511 0.2478881953382228 0.6017759421923569	-0.232109
N	0.1439864446080542 0.2521118286617792 0.6017759421923569	-0.232109
N	0.2521118286617792 0.3560135313919511 0.6017759421923569	-0.232109
N	0.2478881953382228 0.1439864446080542 0.6017759421923569	-0.232109
N	0.6439840973320958 0.7471973631743418 0.8991745343386868	-0.230335
N	0.8560158546679073 0.7528026368256582 0.8991745343386868	-0.230335
N	0.7471973631743418 0.8560158546679073 0.8991745343386868	-0.230335
N	0.7528026368256582 0.6439840973320958 0.8991745343386868	-0.230335
N	0.6439840973320958 0.7528026368256582 0.3991745343386865	-0.230337
N	0.8560158546679073 0.7471973631743418 0.3991745343386865	-0.230337
N	0.7471973631743418 0.6439840973320958 0.3991745343386865	-0.230337
N	0.7528026368256582 0.8560158546679073 0.3991745343386865	-0.230337
N	0.3560135313919511 0.2521118286617792 0.1017759501923577	-0.232112
N	0.1439864446080542 0.2478881953382228 0.1017759501923577	-0.232112
N	0.2521118286617792 0.1439864446080542 0.1017759501923577	-0.232112
N	0.2478881953382228 0.3560135313919511 0.1017759501923577	-0.232111
C	0.3894028815128054 0.2178453906935085 0.6663022399427906	0.103174
C	0.4591816297579273 0.2163334915150634 0.6701676483496427	-0.178473
C	0.4971585331705710 0.2471152848141602 0.6053922502812200	0.104513
C	0.4616148679464060 0.2778615786859948 0.5383183525182803	-0.182020
C	0.3918055875855822 0.2771938086163377 0.5388416027554704	0.105201
C	0.5711200360677556 0.2477984733440625 0.6083488540325040	0.054867
C	0.6072299473139290 0.1915855627555526 0.6375955706428286	-0.130433
C	0.6770284682094215 0.1923776467597886 0.6401334448663278	-0.124047
C	0.7130255051755041 0.2497925355319919 0.6149594272313534	0.067054
C	0.6769666635577959 0.3063150952159909 0.5868334424016637	-0.118940
C	0.6072085180947173 0.3050755013592308 0.5827645554975605	-0.127505
C	0.1105971304871955 0.2821545853064895 0.6663022399427906	0.103174
C	0.0408183852420705 0.2836665324849315 0.6701676483496427	-0.178472
C	0.0028414748294297 0.2528847151858467 0.6053922502812200	0.104514
C	0.0383851530535923 0.2221384213140051 0.5383183525182803	-0.182022
C	0.1081944364144197 0.2228061913836622 0.5388416027554704	0.105202
C	0.9288799159322475 0.2522015506559322 0.6083488540325040	0.054867
C	0.8927700046860741 0.3084144372444472 0.6375955706428286	-0.130435
C	0.8229715317905785 0.3076223652402124 0.6401334448663278	-0.124031
C	0.7869744948244959 0.2502074884680029 0.6149594272313534	0.067055
C	0.8230333364422041 0.1936849167840101 0.5868334424016637	-0.118941
C	0.8927914819052827 0.1949244746407672 0.5827645554975605	-0.127505
C	0.2821545853064895 0.3894028815128054 0.6663022399427906	0.103174
C	0.2836665324849315 0.4591816297579273 0.6701676483496427	-0.178472
C	0.2528847151858467 0.4971585331705710 0.6053922502812200	0.104514
C	0.2221384213140051 0.4616148679464060 0.5383183525182803	-0.182020
C	0.2228061913836622 0.3918055875855822 0.5388416027554704	0.105201
C	0.2522015506559322 0.5711200360677556 0.6083488540325040	0.054868
C	0.3084144372444472 0.6072299473139290 0.6375955706428286	-0.130434
C	0.3076223652402124 0.6770284682094215 0.6401334448663278	-0.124031
C	0.2502074884680029 0.7130255051755041 0.6149594272313534	0.067054
C	0.1936849167840101 0.6769666635577959 0.5868334424016637	-0.118941
C	0.1949244746407672 0.6072085180947173 0.5827645554975605	-0.127504
C	0.2178453906935085 0.1105971304871955 0.6663022399427906	0.103175
C	0.2163334915150634 0.0408183852420705 0.6701676483496427	-0.178473
C	0.2471152848141602 0.0028414748294297 0.6053922502812200	0.104514
C	0.2778615786859948 0.0383851530535923 0.5383183525182803	-0.182020
C	0.2771938086163377 0.1081944364144197 0.5388416027554704	0.105202
C	0.2477984733440625 0.9288799159322475 0.6083488540325040	0.054867
C	0.1915855627555526 0.8927700046860741 0.6375955706428286	-0.130434
C	0.1923776467597886 0.8229715317905785 0.6401334448663278	-0.124047
C	0.2497925355319919 0.7869744948244959 0.6149594272313534	0.067055
C	0.3063150952159909 0.8230333364422041 0.5868334424016637	-0.118941
C	0.3050755013592308 0.8927914819052827 0.5827645554975605	-0.127505
C	0.6104797460958711 0.7172906488709757 0.8346813644953109	0.104260
C	0.5407885814308464 0.7162109793118774 0.8303696162870787	-0.179532
C	0.5028412828894769 0.7472054745224922 0.8950191729092444	0.104713
C	0.5384129269424487 0.7777641133023604 0.9622115543283158	-0.180804
C	0.6083006501716391 0.7766889946771173 0.9621223864703441	0.102794
C	0.4288830284594760 0.7479302005360818 0.8917993776001136	0.054936
C	0.3928285780128443 0.6916868698128088 0.8624827197975715	-0.129819
C	0.3230263737540523 0.6924256726984203 0.8598740057028185	-0.124426
C	0.2869742884401833 0.7498200844691494 0.8850320798738839	0.067191
C	0.3229815192362619 0.8063674636989062 0.9131629284501981	-0.119165
C	0.3927345008711471 0.8051820129155191 0.9172985191853354	-0.127509
C	0.8895202069041286 0.7827093511290243 0.8346813644953109	0.104259
C	0.9592114185691536 0.7837890206881226 0.8303696162870787	-0.179530
C	0.9971587171105231 0.7527945254775078 0.8950191729092444	0.104713
C	0.9615870730575513 0.7222358866976396 0.9622115543283158	-0.180805
C	0.8916993498283609 0.7233110053228827 0.9621223864703441	0.102794
C	0.0711169715405240 0.7520697994639182 0.8917993776001136	0.054941
C	0.1071713979871608 0.8083131781871881 0.8624827197975715	-0.129820
C	0.1769736262459477 0.8075743753015837 0.8598740057028185	-0.124428
C	0.2130257115598166 0.7501799155308506 0.8850320798738839	0.067204
C	0.1770185047637401 0.6936325843010978 0.9131629284501981	-0.119160
C	0.1072654991288530 0.6948180350844778 0.9172985191853354	-0.127541
C	0.7172906488709757 0.8895202069041286 0.8346813644953109	0.104259
C	0.7162109793118774 0.9592114185691536 0.8303696162870787	-0.179531
C	0.7472054745224922 0.9971587171105231 0.8950191729092444	0.104713
C	0.7777641133023604 0.9615870730575513 0.9622115543283158	-0.180803
C	0.7766889946771173 0.8916993498283609 0.9621223864703441	0.102794
C	0.7479302005360818 0.0711169715405240 0.8917993776001136	0.054941
C	0.6916868698128088 0.1071713979871608 0.8624827197975715	-0.129820
C	0.6924256726984203 0.1769736262459477 0.8598740057028185	-0.124429
C	0.7498200844691494 0.2130257115598166 0.8850320798738839	0.067204
C	0.8063674636989062 0.1770185047637401 0.9131629284501981	-0.119160
C	0.8051820129155191 0.1072654991288530 0.9172985191853354	-0.127541
C	0.7827093511290243 0.6104797460958711 0.8346813644953109	0.104260
C	0.7837890206881226 0.5407885814308464 0.8303696162870787	-0.179531
C	0.7527945254775078 0.5028412828894769 0.8950191729092444	0.104713
C	0.7222358866976396 0.5384129269424487 0.9622115543283158	-0.180805
C	0.7233110053228827 0.6083006501716391 0.9621223864703441	0.102794
C	0.7520697994639182 0.4288830284594760 0.8917993776001136	0.054936
C	0.8083131781871881 0.3928285780128443 0.8624827197975715	-0.129820
C	0.8075743753015837 0.3230263737540523 0.8598740057028185	-0.124425
C	0.7501799155308506 0.2869742884401833 0.8850320798738839	0.067192
C	0.6936325843010978 0.3229815192362619 0.9131629284501981	-0.119165
C	0.6948180350844778 0.3927345008711471 0.9172985191853354	-0.127509
C	0.6104797460958711 0.7827093511290243 0.3346813964953138	0.104259
C	0.5407885814308464 0.7837890206881226 0.3303695852870799	-0.179531
C	0.5028412828894769 0.7527945254775078 0.3950192349092425	0.104713
C	0.5384129269424487 0.7222358866976396 0.4622115233283173	-0.180805
C	0.6083006501716391 0.7233110053228827 0.4621223864703438	0.102794
C	0.4288830284594760 0.7520697994639182 0.3917994086001126	0.054936
C	0.3928285780128443 0.8083131781871881 0.3624827827975731	-0.129820
C	0.3230263737540523 0.8075743753015837 0.3598740057028185	-0.124425
C	0.2869742884401833 0.7501799155308506 0.3850320798738840	0.067191
C	0.3229815192362619 0.6936325843010978 0.4131629284501981	-0.119165
C	0.3927345008711471 0.6948180350844778 0.4172985501853420	-0.127509
C	0.8895202069041286 0.7172906488709757 0.3346813964953138	0.104259
C	0.9592114185691536 0.7162109793118774 0.3303695852870799	-0.179532
C	0.9971587171105231 0.7472054745224922 0.3950192349092425	0.104712
C	0.9615870730575513 0.7777641133023604 0.4622115233283173	-0.180803
C	0.8916993498283609 0.7766889946771173 0.4621223864703438	0.102793
C	0.0711169715405240 0.7479302005360818 0.3917994086001126	0.054941
C	0.1071713979871608 0.6916868698128088 0.3624827827975731	-0.129820
C	0.1769736262459477 0.6924256726984203 0.3598740057028185	-0.124428
C	0.2130257115598166 0.7498200844691494 0.3850320798738840	0.067204
C	0.1770185047637401 0.8063674636989062 0.4131629284501981	-0.119158
C	0.1072654991288530 0.8051820129155191 0.4172985501853420	-0.127542
C	0.7172906488709757 0.6104797460958711 0.3346813964953138	0.104260
C	0.7162109793118774 0.5407885814308464 0.3303695852870799	-0.179532
C	0.7472054745224922 0.5028412828894769 0.3950192349092425	0.104712
C	0.7777641133023604 0.5384129269424487 0.4622115233283173	-0.180804
C	0.7766889946771173 0.6083006501716391 0.4621223864703438	0.102795
C	0.7479302005360818 0.4288830284594760 0.3917994086001126	0.054936
C	0.6916868698128088 0.3928285780128443 0.3624827827975731	-0.129820
C	0.6924256726984203 0.3230263737540523 0.3598740057028185	-0.124426
C	0.7498200844691494 0.2869742884401833 0.3850320798738840	0.067190
C	0.8063674636989062 0.3229815192362619 0.4131629284501981	-0.119165
C	0.8051820129155191 0.3927345008711471 0.4172985501853420	-0.127510
C	0.7827093511290243 0.8895202069041286 0.3346813964953138	0.104259
C	0.7837890206881226 0.9592114185691536 0.3303695852870799	-0.179531
C	0.7527945254775078 0.9971587171105231 0.3950192349092425	0.104712
C	0.7222358866976396 0.9615870730575513 0.4622115233283173	-0.180803
C	0.7233110053228827 0.8916993498283609 0.4621223864703438	0.102793
C	0.7520697994639182 0.0711169715405240 0.3917994086001126	0.054941
C	0.8083131781871881 0.1071713979871608 0.3624827827975731	-0.129820
C	0.8075743753015837 0.1769736262459477 0.3598740057028185	-0.124427
C	0.7501799155308506 0.2130257115598166 0.3850320798738840	0.067204
C	0.6936325843010978 0.1770185047637401 0.4131629284501981	-0.119159
C	0.6948180350844778 0.1072654991288530 0.4172985501853420	-0.127542
C	0.3894028815128054 0.2821545853064895 0.1663022399427907	0.103173
C	0.4591816297579273 0.2836665324849315 0.1701676793496416	-0.178472
C	0.4971585331705710 0.2528847151858467 0.1053921962812226	0.104518
C	0.4616148679464060 0.2221384213140051 0.0383183765182826	-0.182041
C	0.3918055875855822 0.2228061913836622 0.0388416257554686	0.105208
C	0.5711200360677556 0.2522015506559322 0.1083488230325052	0.054867
C	0.6072299473139290 0.3084144372444472 0.1375955236428282	-0.130435
C	0.6770284682094215 0.3076223652402124 0.1401334608663292	-0.124029
C	0.7130255051755041 0.2502074884680029 0.1149594352313542	0.067053
C	0.6769666635577959 0.1936849167840101 0.0868334654016621	-0.118940
C	0.6072085180947173 0.1949244746407672 0.0827645314975586	-0.127505
C	0.1105971304871955 0.2178453906935085 0.1663022399427907	0.103174
C	0.0408183852420705 0.2163334915150634 0.1701676793496416	-0.178474
C	0.0028414748294297 0.2471152848141602 0.1053921962812226	0.104519
C	0.0383851530535923 0.2778615786859948 0.0383183765182826	-0.182040
C	0.1081944364144197 0.2771938086163377 0.0388416257554686	0.105208
C	0.9288799159322475 0.2477984733440625 0.1083488230325052	0.054866
C	0.8927700046860741 0.1915855627555526 0.1375955236428282	-0.130434
C	0.8229715317905785 0.1923776467597886 0.1401334608663292	-0.124046
C	0.7869744948244959 0.2497925355319919 0.1149594352313542	0.067055
C	0.8230333364422041 0.3063150952159909 0.0868334654016621	-0.118940
C	0.8927914819052827 0.3050755013592308 0.0827645314975586	-0.127507
C	0.2821545853064895 0.1105971304871955 0.1663022399427907	0.103175
C	0.2836665324849315 0.0408183852420705 0.1701676793496416	-0.178473
C	0.2528847151858467 0.0028414748294297 0.1053921962812226	0.104518
C	0.2221384213140051 0.0383851530535923 0.0383183765182826	-0.182041
C	0.2228061913836622 0.1081944364144197 0.0388416257554686	0.105208
C	0.2522015506559322 0.9288799159322475 0.1083488230325052	0.054866
C	0.3084144372444472 0.8927700046860741 0.1375955236428282	-0.130436
C	0.3076223652402124 0.8229715317905785 0.1401334608663292	-0.124030
C	0.2502074884680029 0.7869744948244959 0.1149594352313542	0.067053
C	0.1936849167840101 0.8230333364422041 0.0868334654016621	-0.118940
C	0.1949244746407672 0.8927914819052827 0.0827645314975586	-0.127506
C	0.2178453906935085 0.3894028815128054 0.1663022399427907	0.103173
C	0.2163334915150634 0.4591816297579273 0.1701676793496416	-0.178473
C	0.2471152848141602 0.4971585331705710 0.1053921962812226	0.104518
C	0.2778615786859948 0.4616148679464060 0.0383183765182826	-0.182039
C	0.2771938086163377 0.3918055875855822 0.0388416257554686	0.105208
C	0.2477984733440625 0.5711200360677556 0.1083488230325052	0.054866
C	0.1915855627555526 0.6072299473139290 0.1375955236428282	-0.130434
C	0.1923776467597886 0.6770284682094215 0.1401334608663292	-0.124045
C	0.2497925355319919 0.7130255051755041 0.1149594352313542	0.067055
C	0.3063150952159909 0.6769666635577959 0.0868334654016621	-0.118940
C	0.3050755013592308 0.6072085180947173 0.0827645314975586	-0.127506
H	0.3588202538322761 0.1955439286706747 0.7168622563652826	0.097491
H	0.4837068629038455 0.1928937179253839 0.7249818700315686	0.113709
H	0.4880884408093852 0.3011233009472022 0.4848585184557355	0.113974
H	0.3628652948147895 0.3001153805100691 0.4871679969516828	0.092128
H	0.5800263437171403 0.1465044650117394 0.6570173021154591	0.099389
H	0.7044101710719785 0.1484734952561653 0.6630954393372753	0.101561
H	0.7042552784411488 0.3507654437904657 0.5654413289584008	0.101779
H	0.5800879923754660 0.3493772626193511 0.5605791256986037	0.104198
H	0.1411797581677250 0.3044560713293253 0.7168622563652826	0.097492
H	0.0162931670961570 0.3071062580746139 0.7249818700315686	0.113708
H	0.0119115621906113 0.1988766990527977 0.4848585184557355	0.113975
H	0.1371346931852092 0.1998846194899310 0.4871679969516828	0.092129
H	0.9199736082828628 0.3534955469882614 0.6570173021154591	0.099389
H	0.7955898289280215 0.3515264927438337 0.6630954393372753	0.101544
H	0.7957447215588512 0.1492345562095343 0.5654413289584008	0.101777
H	0.9199120076245340 0.1506227373806488 0.5605791256986037	0.104197
H	0.3044560713293253 0.3588202538322761 0.7168622563652826	0.097491
H	0.3071062580746139 0.4837068629038455 0.7249818700315686	0.113708
H	0.1988766990527977 0.4880884408093852 0.4848585184557355	0.113974
H	0.1998846194899310 0.3628652948147895 0.4871679969516828	0.092128
H	0.3534955469882614 0.5800263437171403 0.6570173021154591	0.099390
H	0.3515264927438337 0.7044101710719785 0.6630954393372753	0.101545
H	0.1492345562095343 0.7042552784411488 0.5654413289584008	0.101778
H	0.1506227373806488 0.5800879923754660 0.5605791256986037	0.104197
H	0.1955439286706747 0.1411797581677250 0.7168622563652826	0.097492
H	0.1928937179253839 0.0162931670961570 0.7249818700315686	0.113709
H	0.3011233009472022 0.0119115621906113 0.4848585184557355	0.113974
H	0.3001153805100691 0.1371346931852092 0.4871679969516828	0.092128
H	0.1465044650117394 0.9199736082828628 0.6570173021154591	0.099389
H	0.1484734952561653 0.7955898289280215 0.6630954393372753	0.101560
H	0.3507654437904657 0.7957447215588512 0.5654413289584008	0.101778
H	0.3493772626193511 0.9199120076245340 0.5605791256986037	0.104199
H	0.6411480862730047 0.6947117138242886 0.7844306246691750	0.092436
H	0.5163280921287876 0.6930032162457060 0.7753604375171588	0.113487
H	0.5118795953104539 0.8012734189140858 0.0154508994689338	0.113660
H	0.6371695246246561 0.7993857530960982 0.0140544186216292	0.097989
H	0.4200350436702631 0.6466060100721175 0.8430613543053548	0.098985
H	0.2956715892764477 0.6485114028588874 0.8368956575569901	0.101469
H	0.2956608425365457 0.8508100686398479 0.9345420421324152	0.102016
H	0.4198471722366348 0.8494822583923350 0.9394922949384250	0.104113
H	0.8588519607269957 0.8052883341757153 0.7844306246691750	0.092435
H	0.9836719078712124 0.8069967837542940 0.7753604375171588	0.113486
H	0.9881203576895458 0.6987265810859142 0.0154508994689338	0.113660
H	0.8628304273753470 0.7006142469039018 0.0140544186216292	0.097988
H	0.0799649803297318 0.8533939899278825 0.8430613543053548	0.098985
H	0.2043284107235522 0.8514885971411126 0.8368956575569901	0.101469
H	0.2043391574634545 0.6491898833601482 0.9345420421324152	0.102027
H	0.0801528397633662 0.6505176936076610 0.9394922949384250	0.104117
H	0.6947117138242886 0.8588519607269957 0.7844306246691750	0.092436
H	0.6930032162457060 0.9836719078712124 0.7753604375171588	0.113486
H	0.8012734189140858 0.9881203576895458 0.0154508994689338	0.113659
H	0.7993857530960982 0.8628304273753470 0.0140544186216292	0.097988
H	0.6466060100721175 0.0799649803297318 0.8430613543053548	0.098985
H	0.6485114028588874 0.2043284107235522 0.8368956575569901	0.101469
H	0.8508100686398479 0.2043391574634545 0.9345420421324152	0.102028
H	0.8494822583923350 0.0801528397633662 0.9394922949384250	0.104118
H	0.8052883341757153 0.6411480862730047 0.7844306246691750	0.092436
H	0.8069967837542940 0.5163280921287876 0.7753604375171588	0.113486
H	0.6987265810859142 0.5118795953104539 0.0154508994689338	0.113660
H	0.7006142469039018 0.6371695246246561 0.0140544186216292	0.097988
H	0.8533939899278825 0.4200350436702631 0.8430613543053548	0.098986
H	0.8514885971411126 0.2956715892764477 0.8368956575569901	0.101468
H	0.6491898833601482 0.2956608425365457 0.9345420421324152	0.102015
H	0.6505176936076610 0.4198471722366348 0.9394922949384250	0.104113
H	0.6411480862730047 0.8052883341757153 0.2844305936691759	0.092437
H	0.5163280921287876 0.8069967837542940 0.2753604375171583	0.113487
H	0.5118795953104539 0.6987265810859142 0.5154509184689388	0.113659
H	0.6371695246246561 0.7006142469039018 0.5140543896216302	0.097988
H	0.4200350436702631 0.8533939899278825 0.3430613543053549	0.098985
H	0.2956715892764477 0.8514885971411126 0.3368956885569964	0.101469
H	0.2956608425365457 0.6491898833601482 0.4345420421324150	0.102014
H	0.4198471722366348 0.6505176936076610 0.4394923569384229	0.104114
H	0.8588519607269957 0.6947117138242886 0.2844305936691759	0.092436
H	0.9836719078712124 0.6930032162457060 0.2753604375171583	0.113488
H	0.9881203576895458 0.8012734189140858 0.5154509184689388	0.113659
H	0.8628304273753470 0.7993857530960982 0.5140543896216302	0.097988
H	0.0799649803297318 0.6466060100721175 0.3430613543053549	0.098986
H	0.2043284107235522 0.6485114028588874 0.3368956885569964	0.101469
H	0.2043391574634545 0.8508100686398479 0.4345420421324150	0.102027
H	0.0801528397633662 0.8494822583923350 0.4394923569384229	0.104119
H	0.6947117138242886 0.6411480862730047 0.2844305936691759	0.092437
H	0.6930032162457060 0.5163280921287876 0.2753604375171583	0.113488
H	0.8012734189140858 0.5118795953104539 0.5154509184689388	0.113659
H	0.7993857530960982 0.6371695246246561 0.5140543896216302	0.097988
H	0.6466060100721175 0.4200350436702631 0.3430613543053549	0.098985
H	0.6485114028588874 0.2956715892764477 0.3368956885569964	0.101469
H	0.8508100686398479 0.2956608425365457 0.4345420421324150	0.102015
H	0.8494822583923350 0.4198471722366348 0.4394923569384229	0.104115
H	0.8052883341757153 0.8588519607269957 0.2844305936691759	0.092436
H	0.8069967837542940 0.9836719078712124 0.2753604375171583	0.113487
H	0.6987265810859142 0.9881203576895458 0.5154509184689388	0.113659
H	0.7006142469039018 0.8628304273753470 0.5140543896216302	0.097988
H	0.8533939899278825 0.0799649803297318 0.3430613543053549	0.098986
H	0.8514885971411126 0.2043284107235522 0.3368956885569964	0.101469
H	0.6491898833601482 0.2043391574634545 0.4345420421324150	0.102026
H	0.6505176936076610 0.0801528397633662 0.4394923569384229	0.104118
H	0.3588202538322761 0.3044560713293253 0.2168622873652814	0.097491
H	0.4837068629038455 0.3071062580746139 0.2249818550315709	0.113707
H	0.4880884408093852 0.1988766990527977 0.9848584874557296	0.113984
H	0.3628652948147895 0.1998846194899310 0.9871679969516824	0.092128
H	0.5800263437171403 0.3534955469882614 0.1570173021154590	0.099390
H	0.7044101710719785 0.3515264927438337 0.1630954233372741	0.101544
H	0.7042552784411488 0.1492345562095343 0.0654413369584013	0.101778
H	0.5800879923754660 0.1506227373806488 0.0605790786986033	0.104199
H	0.1411797581677250 0.1955439286706747 0.2168622873652814	0.097492
H	0.0162931670961570 0.1928937179253839 0.2249818550315709	0.113707
H	0.0119115621906113 0.3011233009472022 0.9848584874557296	0.113985
H	0.1371346931852092 0.3001153805100691 0.9871679969516824	0.092129
H	0.9199736082828628 0.1465044650117394 0.1570173021154590	0.099389
H	0.7955898289280215 0.1484734952561653 0.1630954233372741	0.101559
H	0.7957447215588512 0.3507654437904657 0.0654413369584013	0.101777
H	0.9199120076245340 0.3493772626193511 0.0605790786986033	0.104198
H	0.3044560713293253 0.1411797581677250 0.2168622873652814	0.097492
H	0.3071062580746139 0.0162931670961570 0.2249818550315709	0.113707
H	0.1988766990527977 0.0119115621906113 0.9848584874557296	0.113985
H	0.1998846194899310 0.1371346931852092 0.9871679969516824	0.092129
H	0.3534955469882614 0.9199736082828628 0.1570173021154590	0.099391
H	0.3515264927438337 0.7955898289280215 0.1630954233372741	0.101543
H	0.1492345562095343 0.7957447215588512 0.0654413369584013	0.101777
H	0.1506227373806488 0.9199120076245340 0.0605790786986033	0.104199
H	0.1955439286706747 0.3588202538322761 0.2168622873652814	0.097492
H	0.1928937179253839 0.4837068629038455 0.2249818550315709	0.113707
H	0.3011233009472022 0.4880884408093852 0.9848584874557296	0.113984
H	0.3001153805100691 0.3628652948147895 0.9871679969516824	0.092128
H	0.1465044650117394 0.5800263437171403 0.1570173021154590	0.099389
H	0.1484734952561653 0.7044101710719785 0.1630954233372741	0.101560
H	0.3507654437904657 0.7042552784411488 0.0654413369584013	0.101778
H	0.3493772626193511 0.5800879923754660 0.0605790786986033	0.104199
Ni	0.2500000000000000 0.2500000000000000 0.5987344452360582	0.798057
Ni	0.7500000000000000 0.7500000000000000 0.8968946543131194	0.793700
Ni	0.7500000000000000 0.7500000000000000 0.3968946543131197	0.793703
Ni	0.2500000000000000 0.2500000000000000 0.0987344532360590	0.798061
Nb	0.2500000000000000 0.2500000000000000 0.3594086521515961	2.449081
Nb	0.7500000000000000 0.7500000000000000 0.1569703374727575	2.450178
Nb	0.7500000000000000 0.7500000000000000 0.6569703374727575	2.450178
Nb	0.2500000000000000 0.2500000000000000 0.8594086831515952	2.449082
	  	
