#======================================================================

# CRYSTAL DATA

#----------------------------------------------------------------------

data_VESTA_phase_1


_pd_phase_name                         NbOFFIVE_3_Co
_cell_length_a                         14.30675
_cell_length_b                         14.30675
_cell_length_c                         7.94567
_cell_angle_alpha                      90
_cell_angle_beta                       90
_cell_angle_gamma                      90
_symmetry_space_group_name_H-M         P 1
_symmetry_Int_Tables_number            1

loop_
_symmetry_equiv_pos_as_xyz
   x, y, z

loop_
   _atom_site_label
   _atom_site_fract_x
   _atom_site_fract_y
   _atom_site_fract_z
   _atom_site_charge
C	0.2707144230235206 0.4513827874492463 0.6378314347715820	0.066751
C	0.2292855599764814 0.0486172175507577 0.6378314347715820	0.066751
C	0.2287009223406370 0.4512620306180076 0.3592493229429340	0.066863
C	0.2712990606593649 0.0487379743819964 0.3592493229429340	0.066863
C	0.0487379743819964 0.2712990606593649 0.3592493229429340	0.066871
C	0.4512620306180076 0.2287009223406370 0.3592493229429340	0.066871
C	0.4513827874492463 0.2707144230235206 0.6378314347715820	0.066782
C	0.0486172175507577 0.2292855599764814 0.6378314347715820	0.066782
C	0.9513828214492420 0.2292855599764814 0.6378314347715820	0.066813
C	0.5486171785507580 0.2707144230235206 0.6378314347715820	0.066813
C	0.5487379353819966 0.2287009223406370 0.3592493229429340	0.066904
C	0.9512620646180034 0.2712990606593649 0.3592493229429340	0.066904
C	0.7287009053406324 0.0487379743819963 0.3592493229429340	0.066871
C	0.7712990946593676 0.4512620306180076 0.3592493229429340	0.066871
C	0.7707144570235234 0.0486172175507577 0.6378314347715820	0.066781
C	0.7292855429764766 0.4513827874492463 0.6378314347715820	0.066781
C	0.4513827874492463 0.7292855429764766 0.6378314347715820	0.066754
C	0.0486172175507577 0.7707144570235234 0.6378314347715820	0.066754
C	0.0487379743819964 0.7287009053406324 0.3592493229429340	0.066865
C	0.4512620306180076 0.7712990946593676 0.3592493229429340	0.066866
C	0.2287009223406370 0.5487379353819966 0.3592493229429340	0.066911
C	0.2712990606593649 0.9512620646180034 0.3592493229429340	0.066911
C	0.2707144230235206 0.5486171785507580 0.6378314347715820	0.066840
C	0.2292855599764814 0.9513828214492420 0.6378314347715820	0.066840
C	0.7707144570235234 0.9513828214492420 0.6378314347715820	0.066812
C	0.7292855429764766 0.5486171785507580 0.6378314347715820	0.066812
C	0.7287009053406324 0.9512620646180034 0.3592493229429340	0.066904
C	0.7712990946593676 0.5487379353819966 0.3592493229429340	0.066904
C	0.5487379353819966 0.7712990946593676 0.3592493229429340	0.066911
C	0.9512620646180034 0.7287009053406324 0.3592493229429340	0.066911
C	0.9513828214492420 0.7707144570235234 0.6378314347715820	0.066839
C	0.5486171785507580 0.7292855429764766 0.6378314347715820	0.066839
H	0.2878602727467456 0.4128195927181046 0.7516732531991192	0.097415
H	0.2121397442532590 0.0871804162818924 0.7516732531991192	0.097415
H	0.2117544554975994 0.4126045493911266 0.2451337580347065	0.106658
H	0.2882455615024054 0.0873954596088705 0.2451337580347065	0.106658
H	0.0873954596088705 0.2882455615024054 0.2451337580347065	0.106657
H	0.4126045493911266 0.2117544554975994 0.2451337580347065	0.106657
H	0.4128195927181046 0.2878602727467456 0.7516732531991192	0.097413
H	0.0871804162818924 0.2121397442532590 0.7516732531991192	0.097413
H	0.9128195587181089 0.2121397442532590 0.7516732531991192	0.097409
H	0.5871804412818911 0.2878602727467456 0.7516732531991192	0.097409
H	0.5873954846088687 0.2117544554975994 0.2451337580347065	0.106653
H	0.9126045153911313 0.2882455615024054 0.2451337580347065	0.106653
H	0.7117544044975985 0.0873954596088705 0.2451337580347065	0.106657
H	0.7882455955024015 0.4126045493911266 0.2451337580347065	0.106657
H	0.7878603067467416 0.0871804162818924 0.7516732531991192	0.097413
H	0.7121396932532584 0.4128195927181046 0.7516732531991192	0.097413
H	0.4128195927181046 0.7121396932532584 0.7516732531991192	0.097415
H	0.0871804162818924 0.7878603067467416 0.7516732531991192	0.097415
H	0.0873954596088705 0.7117544044975985 0.2451337580347065	0.106658
H	0.4126045493911266 0.7882455955024015 0.2451337580347065	0.106658
H	0.2117544554975994 0.5873954846088687 0.2451337580347065	0.106652
H	0.2882455615024054 0.9126045153911313 0.2451337580347065	0.106652
H	0.2878602727467456 0.5871804412818911 0.7516732531991192	0.097407
H	0.2121397442532590 0.9128195587181089 0.7516732531991192	0.097407
H	0.7878603067467416 0.9128195587181089 0.7516732531991192	0.097408
H	0.7121396932532584 0.5871804412818911 0.7516732531991192	0.097408
H	0.7117544044975985 0.9126045153911313 0.2451337580347065	0.106653
H	0.7882455955024015 0.5873954846088687 0.2451337580347065	0.106653
H	0.5873954846088687 0.7882455955024015 0.2451337580347065	0.106652
H	0.9126045153911313 0.7117544044975985 0.2451337580347065	0.106652
H	0.9128195587181089 0.7878603067467416 0.7516732531991192	0.097407
H	0.5871804412818911 0.7121396932532584 0.7516732531991192	0.097407
Co	0.2500000000000000 0.2500000000000000 0.5051029908262616	0.875439
Co	0.7500000340000028 0.2500000000000000 0.5051029908262616	0.875440
Co	0.2500000000000000 0.7500000340000028 0.5051029908262616	0.875440
Co	0.7500000340000028 0.7500000340000028 0.5051029908262616	0.875442
Nb	0.2500000000000000 0.2500000000000000 -0.0186354122971859	2.426131
Nb	0.7500000340000028 0.2500000000000000 -0.0186354122971859	2.426132
Nb	0.2500000000000000 0.7500000340000028 -0.0186354122971859	2.426132
Nb	0.7500000340000028 0.7500000340000028 -0.0186354122971859	2.426133
O	0.2500000000000000 0.2500000000000000 0.7545331604221629	-0.960628
O	0.7500000340000028 0.2500000000000000 0.7545331604221629	-0.960630
O	0.2500000000000000 0.7500000340000028 0.7545331604221629	-0.960630
O	0.7500000340000028 0.7500000340000028 0.7545331604221629	-0.960631
F	0.2500000000000000 0.2500000000000000 0.2495043821404536	-0.623889
F	0.3456243741893432 0.3456243741893432 0.0057849575760015	-0.560593
F	0.1543756258106568 0.1543756258106568 0.0057849575760015	-0.560593
F	0.1544397996125314 0.3455602003874687 0.0134923271686244	-0.562615
F	0.3455602003874687 0.1544397996125314 0.0134923271686244	-0.562615
F	0.7500000340000028 0.2500000000000000 0.2495043821404536	-0.623889
F	0.8455601663874728 0.3455602003874687 0.0134923271686244	-0.562614
F	0.6544398336125272 0.1544397996125314 0.0134923271686244	-0.562614
F	0.6543756598106526 0.3456243741893432 0.0057849575760015	-0.560592
F	0.8456243401893474 0.1543756258106568 0.0057849575760015	-0.560592
F	0.2500000000000000 0.7500000340000028 0.2495043821404536	-0.623889
F	0.3455602003874687 0.8455601663874728 0.0134923271686244	-0.562614
F	0.1544397996125314 0.6544398336125272 0.0134923271686244	-0.562614
F	0.1543756258106568 0.8456243401893474 0.0057849575760015	-0.560592
F	0.3456243741893432 0.6543756598106526 0.0057849575760015	-0.560592
F	0.7500000340000028 0.7500000340000028 0.2495043821404536	-0.623889
F	0.8456243401893474 0.8456243401893474 0.0057849575760015	-0.560591
F	0.6543756598106526 0.6543756598106526 0.0057849575760015	-0.560591
F	0.6544398336125272 0.8455601663874728 0.0134923271686244	-0.562613
F	0.8455601663874728 0.6544398336125272 0.0134923271686244	-0.562613
N	0.4022168519562045 0.2491530330686406 0.4988473124064278	-0.205407
N	0.0977831400437949 0.2508469669313594 0.4988473124064278	-0.205407
N	0.2491530330686406 0.4022168519562045 0.4988473124064278	-0.205402
N	0.2508469669313594 0.0977831400437949 0.4988473124064278	-0.205402
N	0.9022168859562072 0.2508469669313594 0.4988473124064278	-0.205415
N	0.5977831140437928 0.2491530330686406 0.4988473124064278	-0.205414
N	0.7508470009313624 0.4022168519562045 0.4988473124064278	-0.205406
N	0.7491530670686433 0.0977831400437949 0.4988473124064278	-0.205406
N	0.4022168519562045 0.7508470009313624 0.4988473124064278	-0.205404
N	0.0977831400437949 0.7491530670686433 0.4988473124064278	-0.205404
N	0.2508469669313594 0.9022168859562072 0.4988473124064278	-0.205418
N	0.2491530330686406 0.5977831140437928 0.4988473124064278	-0.205417
N	0.9022168859562072 0.7491530670686433 0.4988473124064278	-0.205419
N	0.5977831140437928 0.7508470009313624 0.4988473124064278	-0.205418
N	0.7491530670686433 0.9022168859562072 0.4988473124064278	-0.205414
N	0.7508470009313624 0.5977831140437928 0.4988473124064278	-0.205413
	  	
