#======================================================================

# CRYSTAL DATA

#----------------------------------------------------------------------

data_VESTA_phase_1


_pd_phase_name                         NbOFFIVE_18_Ni
_cell_length_a                         13.97762
_cell_length_b                         13.94873
_cell_length_c                         8.18313
_cell_angle_alpha                      89.14624
_cell_angle_beta                       96.35387
_cell_angle_gamma                      90.13126
_symmetry_space_group_name_H-M         P 1
_symmetry_Int_Tables_number            1

loop_
_symmetry_equiv_pos_as_xyz
   x, y, z

loop_
   _atom_site_label
   _atom_site_fract_x
   _atom_site_fract_y
   _atom_site_fract_z
   _atom_site_charge
F	0.3919052515676160 0.3733030822349152 0.4984046391290238	-0.571115
F	0.5116127292120201 0.4826161137338411 0.7398633117459408	-0.621291
F	0.3973455987305776 0.5661940024709454 0.5087115297023831	-0.551913
F	0.8919053185676182 0.8733030482349197 0.4984046391290239	-0.571115
F	0.0116127022120220 0.9826160447338464 0.7398633117459408	-0.621291
F	0.8973455317305752 0.0661940234709436 0.5087115297023831	-0.551914
F	0.5759958939347823 0.3533551634154883 0.5125392279801990	-0.574823
F	0.6122928651866892 0.5465114511496297 0.5039258815990544	-0.559631
F	0.0759959199347846 0.8533551294154929 0.5125392279801990	-0.574825
F	0.1122928571866886 0.0465114721496275 0.5039258815990545	-0.559632
O	0.4850787774724215 0.4811294541256070 0.2624784548135183	-0.918188
O	0.9850787444724218 0.9811293851256110 0.2624784548135183	-0.918188
C	0.6836635688741000 0.1543959635180681 0.6607639024615444	-0.429430
C	0.7579800774898383 0.1513700018127882 0.8055765721431732	0.208699
C	0.7650999179922917 0.2002271363993139 0.9546493657411078	-0.152102
C	0.6939783909888876 0.2644809776463118 0.0124434658351880	-0.142000
C	0.6751792829503792 0.3620895366617647 0.9691013626616317	0.219278
C	0.7277185044008230 0.4251826807014247 0.8606335655170534	-0.428410
C	0.8979188822025415 0.2052201731062907 0.2040786383193501	-0.435357
C	0.8538823215381973 0.1707158985059600 0.0415898442657567	0.220532
C	0.6293587707334543 0.2402895191817036 0.1257997167359747	0.207589
C	0.6118170327849568 0.1481226523551716 0.2114564688623561	-0.424772
C	0.1836635858740976 0.6543959975180640 0.6607639024615444	-0.429435
C	0.2579801114898345 0.6513700358127907 0.8055765721431732	0.208716
C	0.2650999689922925 0.7002271703993099 0.9546493657411078	-0.152105
C	0.1939784249888839 0.7644809776463112 0.0124434658351880	-0.141999
C	0.1751792579503735 0.8620895706617676 0.9691013626616317	0.219280
C	0.2277185544008198 0.9251827147014208 0.8606335655170534	-0.428411
C	0.3979188152025397 0.7052201561062859 0.2040786383193501	-0.435358
C	0.3538823885381997 0.6707158985059600 0.0415898442657567	0.220529
C	0.1293587707334612 0.7402895361817018 0.1257997167359747	0.207588
C	0.1118169737849623 0.6481226693551690 0.2114564688623561	-0.424768
C	0.3194168309138558 0.1575366165334414 0.3395825679943894	-0.422750
C	0.2440645715649321 0.1518515262864816 0.1967154683022841	0.205490
C	0.2357712660092594 0.1988768747871037 0.0434727197687928	-0.149303
C	0.3060157660746090 0.2647721487876465 0.9839232835936529	-0.145625
C	0.3232872764937582 0.3617603432306273 0.0280169714845422	0.219267
C	0.2671077728925740 0.4232501184560397 0.1300213602849546	-0.424006
C	0.1024532395456149 0.1987385609150825 0.7942431328166447	-0.435561
C	0.1471166749332276 0.1674412986599043 0.9600654537809954	0.219450
C	0.3732539304921335 0.2434121774534468 0.8746714441481456	0.211444
C	0.3922959790703685 0.1536237587007513 0.7878501044098631	-0.425365
C	0.8194168639138548 0.6575366505334372 0.3395825679943894	-0.422752
C	0.7440646045649313 0.6518515602864843 0.1967154683022841	0.205492
C	0.7357713000092621 0.6988769087870995 0.0434727197687928	-0.149305
C	0.8060158000746118 0.7647721487876459 0.9839232835936529	-0.145625
C	0.8232872424937623 0.8617603772306301 0.0280169714845422	0.219267
C	0.7671078408925728 0.9232501524560354 0.1300213602849546	-0.424007
C	0.6024531765456131 0.6987385439150778 0.7942431328166447	-0.435561
C	0.6471167259332278 0.6674412986599039 0.9600654537809954	0.219450
C	0.8732539304921337 0.7434121944534458 0.8746714441481456	0.211444
C	0.8922959120703670 0.6536237757007493 0.7878501044098631	-0.425366
H	0.7168537565244288 0.1685979023040949 0.5473200230873895	0.150054
H	0.6315118087800285 0.2116316658435898 0.6734817612599139	0.147663
H	0.6448424214468236 0.0857469886560778 0.6458831087115037	0.132212
H	0.6782229590195079 0.4694505523493653 0.7783777848312302	0.144415
H	0.7709878893157319 0.3814188356769356 0.7862276249617169	0.138103
H	0.7767388421517299 0.4732672917845034 0.9356466081991588	0.128513
H	0.8622826016376773 0.0616250332647355 0.7143425378557343	0.278456
H	0.8884858235943109 0.1537613855849765 0.3035716304085641	0.147312
H	0.8635118356640169 0.2728518963847920 0.2320570179016155	0.132382
H	0.9755394606577211 0.2171614655292997 0.2033945165214764	0.142423
H	0.5837670892484442 0.1607915762871329 0.3292286365747375	0.144718
H	0.6787339882532608 0.1067792464191985 0.2341134578931393	0.151822
H	0.5590764610473956 0.1036536832760113 0.1363447580998637	0.132461
H	0.5270259501119763 0.3322538724881187 0.2211426467506444	0.262765
H	0.2168537225244331 0.6685979023040947 0.5473200230873895	0.150056
H	0.1315118177800252 0.7116316148435891 0.6734817612599139	0.147665
H	0.1448423954468211 0.5857469716560795 0.6458831087115037	0.132213
H	0.1782229930195031 0.9694505863493686 0.7783777848312302	0.144416
H	0.2709879393157296 0.8814188696769393 0.7862276249617169	0.138103
H	0.2767388421517303 0.9732672567844970 0.9356466081991588	0.128512
H	0.3622826686376794 0.5616250242647395 0.7143425378557342	0.278449
H	0.3884858235943111 0.6537613855849763 0.3035716304085641	0.147312
H	0.3635118356640166 0.7728518613847920 0.2320570179016155	0.132383
H	0.4755394606577211 0.7171614825292977 0.2033945165214764	0.142426
H	0.0837670682484461 0.6607915932871303 0.3292286365747375	0.144717
H	0.1787340382532578 0.6067792384192049 0.2341134578931393	0.151822
H	0.0590764230473922 0.6036536312760072 0.1363447580998637	0.132460
H	0.0270259361119753 0.8322539074881187 0.2211426467506444	0.262765
H	0.2877088139575275 0.1734045818153671 0.4530510045906337	0.150850
H	0.3705321228900642 0.2149718223427130 0.3189575895549385	0.140748
H	0.3593154805640596 0.0896165960918306 0.3596394388669837	0.131661
H	0.3140737546462080 0.4717934047817527 0.2063299530439795	0.137789
H	0.2265635838450711 0.3785899642303517 0.2097643405366103	0.140127
H	0.2155077410100755 0.4671213776910367 0.0495214457367211	0.128711
H	0.1425413037749324 0.0606904482095265 0.2975818946980656	0.274469
H	0.1058741869363253 0.1426432131581861 0.7026854741823835	0.147632
H	0.1407395695960831 0.2621041009191384 0.7538309247378387	0.132622
H	0.0262841837651258 0.2170041796704998 0.7968095686402783	0.142280
H	0.4210238236091960 0.1701027826922881 0.6712648845251956	0.146236
H	0.3257470104429486 0.1120211183183808 0.7625709677895568	0.152254
H	0.4451155856691750 0.1078381185903647 0.8623157491098524	0.130898
H	0.4779439669526210 0.3382081260334999 0.7873321845621429	0.268752
H	0.7877088479575305 0.6734045818153673 0.4530510045906337	0.150850
H	0.8705321228900642 0.7149717713427125 0.3189575895549385	0.140747
H	0.8593154475640608 0.5896165790918330 0.3596394388669837	0.131664
H	0.8140737876462065 0.9717934387817562 0.2063299530439795	0.137788
H	0.7265636178450740 0.8785899982303544 0.2097643405366103	0.140127
H	0.7155077240100776 0.9671213426910307 0.0495214457367211	0.128712
H	0.6425413457749360 0.5606904392095293 0.2975818946980656	0.274469
H	0.6058742289363287 0.6426432131581864 0.7026854741823835	0.147633
H	0.6407395865960804 0.7621040659191387 0.7538309247378387	0.132623
H	0.5262841627651281 0.7170041966704976 0.7968095686402783	0.142279
H	0.9210238236091955 0.6701027996922859 0.6712648845251956	0.146237
H	0.8257470784429471 0.6120211103183870 0.7625709677895568	0.152253
H	0.9451155856691749 0.6078380665903607 0.8623157491098524	0.130898
H	0.9779439669526214 0.8382081610334998 0.7873321845621429	0.268752
N	0.8372985255154435 0.0959345497707604 0.8110956368491818	-0.147148
N	0.6031393429674571 0.3945262111644364 0.0499769157045163	-0.252844
N	0.8965760554382585 0.1065363316157542 0.9522325950654483	-0.252070
N	0.5778275284058809 0.3201439563650683 0.1440204328991860	-0.140181
N	0.3372984585154409 0.5959345327707548 0.8110956368491818	-0.147142
N	0.1031393599674549 0.8945262461644360 0.0499769157045163	-0.252846
N	0.3965760214382555 0.6065363656157500 0.9522325950654483	-0.252078
N	0.0778275284058808 0.8201439563650680 0.1440204328991860	-0.140178
N	0.1652220789306646 0.0958752114642311 0.1976291644035365	-0.144665
N	0.3974911071216534 0.3961677525527867 0.9530255115005926	-0.250160
N	0.1053689165395510 0.1042670656676796 0.0560021321021782	-0.251758
N	0.4253435303672657 0.3238766569764738 0.8608036672336582	-0.144610
N	0.6652220789306651 0.5958751944642262 0.1976291644035365	-0.144664
N	0.8974911071216531 0.8961677875527853 0.9530255115005926	-0.250161
N	0.6053689415395498 0.6042670996676748 0.0560021321021782	-0.251756
N	0.9253435303672659 0.8238766569764741 0.8608036672336582	-0.144609
Nb	0.4938547916707623 0.4667120281210428 0.4816472816189601	2.395395
Nb	-0.0061452063292376 0.9667120971210382 0.4816472816189601	2.395400
Ni	0.4997148988807097 0.5031217510782676 0.0102009868933552	0.829596
Ni	-0.0002851011192907 0.0031217550782672 0.0102009868933552	0.829598
	  	
