#======================================================================

# CRYSTAL DATA

#----------------------------------------------------------------------

data_VESTA_phase_1


_pd_phase_name                         NbOFFIVE_4_Zn_i
_cell_length_a                         23.33467
_cell_length_b                         21.12877
_cell_length_c                         8.11177
_cell_angle_alpha                      90
_cell_angle_beta                       90
_cell_angle_gamma                      90
_symmetry_space_group_name_H-M         P 1
_symmetry_Int_Tables_number            1

loop_
_symmetry_equiv_pos_as_xyz
   x, y, z

loop_
   _atom_site_label
   _atom_site_fract_x
   _atom_site_fract_y
   _atom_site_fract_z
   _atom_site_charge
C	0.4283017945340888 0.5753274565145541 0.6403061641805325	0.108304
C	0.3865131375063750 0.5286311141735129 0.6426108227648449	-0.156370
C	0.2379342691545937 0.5040194685841021 0.7012779550644984	-0.121753
C	0.1946461168274149 0.4586698993831398 0.6982849047416650	-0.136412
C	0.1367670361028340 0.3237967222739757 0.6059809589808227	-0.182370
C	0.0910392308859626 0.2815327838866641 0.6127361494374449	0.098051
C	0.9283018365340856 0.0753274565145536 0.6403061641805325	0.108305
C	0.8865131795063784 0.0286311081735129 0.6426108227648449	-0.156367
C	0.7379342901545850 0.0040195145841056 0.7012779550644984	-0.121741
C	0.6946461368274235 0.9586699453831360 0.6982849047416650	-0.136450
C	0.6367670361028416 0.8237967222739753 0.6059809589808227	-0.182369
C	0.5910392258859579 0.7815328308866643 0.6127361494374449	0.098050
C	0.5716982054659108 0.4246725434854464 0.1403061251805329	0.108305
C	0.6134868624936251 0.4713688858264865 0.1426108067648434	-0.156369
C	0.7620657098454150 0.4959805314158983 0.2012779860644970	-0.121754
C	0.8053538631725765 0.5413301006168607 0.1982849507416620	-0.136412
C	0.8632330048971583 0.6762032307260244 0.1059809739808271	-0.182370
C	0.9089608161140385 0.7184671691133357 0.1127361654374466	0.098051
C	0.0716982104659152 0.9246724974854492 0.1403061251805329	0.108272
C	0.1134868414936197 0.9713688398264904 0.1426108067648434	-0.156403
C	0.2620657098454082 -0.0040194735841059 0.2012779860644970	-0.121755
C	0.3053538831725854 0.0413300886168666 0.1982849507416620	-0.136413
C	0.3632329638971662 0.1762032777260245 0.1059809739808271	-0.182370
C	0.4089607741140414 0.2184671931133374 0.1127361654374466	0.098051
C	0.6151692582351007 0.6295817168827735 0.8528479738406225	0.100322
C	0.6613325249194492 0.5879052958561758 0.8535272415354885	-0.190152
C	0.6944934083787682 0.4245505910765950 0.7938229472173524	-0.120403
C	0.7384303277935986 0.3798150245815966 0.7972573809489242	-0.131856
C	0.8676570604733262 0.3317183303701022 0.9001163558986015	-0.184559
C	0.9139911529380258 0.2902576276019946 0.8968884631448470	0.091733
C	0.1151692632351045 0.1295817168827731 0.8528479738406225	0.100323
C	0.1613325039194438 0.0879052898561755 0.8535272415354885	-0.190152
C	0.1944934083787683 0.9245506370765988 0.7938229472173524	-0.120399
C	0.2384303477936003 0.8798150705815938 0.7972573809489242	-0.131860
C	0.3676570194733261 0.8317183303701023 0.9001163558986015	-0.184560
C	0.4139911109380297 0.7902576746019885 0.8968884631448470	0.091735
C	0.3848307417648996 0.3704182831172268 0.3528480048406213	0.100323
C	0.3386674750805510 0.4120947041438242 0.3535273035354862	-0.190152
C	0.3055065706212338 0.5754494089234050 0.2938229472173598	-0.120403
C	0.2615696522063997 0.6201849754184029 0.2972573499489247	-0.131854
C	0.1323429805266739 0.6682816226298972 0.4001162938986036	-0.184559
C	0.0860088940619744 0.7097423253980115 0.3968884011448487	0.091732
C	0.8848307837648957 0.8704182371172298 0.3528480048406213	0.100336
C	0.8386675170805543 0.9120946581438275 0.3535273035354862	-0.190113
C	0.8055065916212318 0.0754494039234011 0.2938229472173598	-0.120402
C	0.7615696722064014 0.1201849634184093 0.2972573499489247	-0.131854
C	0.6323429805266736 0.1682816696298980 0.4001162938986036	-0.184559
C	0.5860088890619706 0.2097423493980139 0.3968884011448487	0.091732
C	0.6151692582351007 0.3704182831172268 0.3528480048406213	0.100323
C	0.6613325249194492 0.4120947041438242 0.3535273035354862	-0.190152
C	0.6944934083787682 0.5754494089234050 0.2938229472173598	-0.120403
C	0.7384303277935986 0.6201849754184029 0.2972573499489247	-0.131854
C	0.8676570604733262 0.6682816226298973 0.4001162938986036	-0.184559
C	0.9139911529380258 0.7097423253980115 0.3968884011448487	0.091735
C	0.1151692632351045 0.8704182371172298 0.3528480048406213	0.100314
C	0.1613325039194438 0.9120946581438275 0.3535273035354862	-0.190151
C	0.1944934083787683 0.0754494039234011 0.2938229472173598	-0.120403
C	0.2384303477936003 0.1201849634184093 0.2972573499489247	-0.131855
C	0.3676570194733261 0.1682816696298980 0.4001162938986036	-0.184559
C	0.4139911109380297 0.2097423493980139 0.3968884011448487	0.091735
C	0.3848307417648996 0.6295817168827735 0.8528479738406225	0.100323
C	0.3386674750805510 0.5879052958561758 0.8535272415354885	-0.190152
C	0.3055065706212338 0.4245505910765950 0.7938229472173524	-0.120403
C	0.2615696522063997 0.3798150245815966 0.7972573809489242	-0.131856
C	0.1323429805266739 0.3317183303701022 0.9001163558986015	-0.184559
C	0.0860088940619744 0.2902576276019946 0.8968884631448470	0.091735
C	0.8848307837648957 0.1295817168827731 0.8528479738406225	0.100347
C	0.8386675170805543 0.0879052898561755 0.8535272415354885	-0.190114
C	0.8055065916212318 0.9245506370765988 0.7938229472173524	-0.120399
C	0.7615696722064014 0.8798150705815938 0.7972573809489242	-0.131859
C	0.6323429805266736 0.8317183303701023 0.9001163558986015	-0.184559
C	0.5860088890619706 0.7902576746019885 0.8968884631448470	0.091738
C	0.4283017945340888 0.4246725434854464 0.1403061251805329	0.108307
C	0.3865131375063750 0.4713688858264865 0.1426108067648434	-0.156369
C	0.2379342691545937 0.4959805314158983 0.2012779860644970	-0.121753
C	0.1946461168274149 0.5413301006168607 0.1982849507416620	-0.136412
C	0.1367670361028340 0.6762032307260244 0.1059809739808271	-0.182370
C	0.0910392308859626 0.7184671691133357 0.1127361654374466	0.098054
C	0.9283018365340856 0.9246724974854492 0.1403061251805329	0.108274
C	0.8865131795063784 0.9713688398264904 0.1426108067648434	-0.156399
C	0.7379342901545850 -0.0040194735841059 0.2012779860644970	-0.121755
C	0.6946461368274235 0.0413300886168666 0.1982849507416620	-0.136412
C	0.6367670361028416 0.1762032777260245 0.1059809739808271	-0.182370
C	0.5910392258859579 0.2184671931133374 0.1127361654374466	0.098054
C	0.5716982054659108 0.5753274565145541 0.6403061641805325	0.108305
C	0.6134868624936251 0.5286311141735129 0.6426108227648449	-0.156370
C	0.7620657098454150 0.5040194685841021 0.7012779550644984	-0.121752
C	0.8053538631725765 0.4586698993831398 0.6982849047416650	-0.136412
C	0.8632330048971583 0.3237967222739757 0.6059809589808227	-0.182370
C	0.9089608161140385 0.2815327838866641 0.6127361494374449	0.098054
C	0.0716982104659152 0.0753274565145536 0.6403061641805325	0.108305
C	0.1134868414936197 0.0286311081735129 0.6426108227648449	-0.156371
C	0.2620657098454082 0.0040195145841056 0.7012779550644984	-0.121740
C	0.3053538831725854 0.9586699453831360 0.6982849047416650	-0.136451
C	0.3632329638971662 0.8237967222739753 0.6059809589808227	-0.182370
C	0.4089607741140414 0.7815328308866643 0.6127361494374449	0.098053
C	0.3397835699426552 0.5350999531201820 0.7488499193602054	0.111036
C	0.2935574357024244 0.4873232388664150 0.7492473272723431	0.057047
C	0.2058300289871167 0.3964530755110006 0.7492979863810202	0.049700
C	0.1583987153780929 0.3497932430701678 0.7519303052453400	0.108704
C	0.8397836109426546 0.0350999511201817 0.7488499193602054	0.111036
C	0.7935574987024255 0.9873232848664193 0.7492473272723431	0.057024
C	0.7058300289871163 0.8964530755110005 0.7492979863810202	0.049708
C	0.6583987363780914 0.8497932430701680 0.7519303052453400	0.108704
C	0.6602164300573452 0.4649000468798182 0.2488499043602074	0.111036
C	0.7064425012975745 0.5126767151335807 0.2492473122723451	0.057047
C	0.7941699710128837 0.6035469244889995 0.2492979713810296	0.049701
C	0.8416012636219086 0.6502067569298320 0.2519302902453424	0.108703
C	0.1602164200573443 0.9648999998798177 0.2488499043602074	0.111045
C	0.2064425432975704 0.0126767521335808 0.2492473122723451	0.057047
C	0.2941699710128833 0.1035469354890041 0.2492979713810296	0.049701
C	0.3416012846219071 0.1502067799298305 0.2519302902453424	0.108704
C	0.6602164300573452 0.5350999531201820 0.7488499193602054	0.111036
C	0.7064425012975745 0.4873232388664150 0.7492473272723431	0.057047
C	0.7941699710128837 0.3964530755110006 0.7492979863810202	0.049700
C	0.8416012636219086 0.3497932430701678 0.7519303052453400	0.108704
C	0.1602164200573443 0.0350999511201817 0.7488499193602054	0.111043
C	0.2064425432975704 0.9873232848664193 0.7492473272723431	0.057026
C	0.2941699710128833 0.8964530755110005 0.7492979863810202	0.049708
C	0.3416012846219071 0.8497932430701680 0.7519303052453400	0.108704
C	0.3397835699426552 0.4649000468798182 0.2488499043602074	0.111036
C	0.2935574357024244 0.5126767151335807 0.2492473122723451	0.057047
C	0.2058300289871167 0.6035469244889995 0.2492979713810296	0.049701
C	0.1583987153780929 0.6502067569298320 0.2519302902453424	0.108703
C	0.8397836109426546 0.9648999998798177 0.2488499043602074	0.111039
C	0.7935574987024255 0.0126767521335808 0.2492473122723451	0.057045
C	0.7058300289871163 0.1035469354890041 0.2492979713810296	0.049701
C	0.6583987363780914 0.1502067799298305 0.2519302902453424	0.108703
H	0.4615787529228523 0.5745528778383864 0.5471407745636729	0.085962
H	0.3896546357789111 0.4884889918691699 0.5592802074591943	0.122376
H	0.2291102475250523 0.5523767961863555 0.6616724194974991	0.099730
H	0.1515917905338723 0.4713836345349584 0.6576049126198574	0.106285
H	0.1557188495663613 0.3358387422794017 0.4872841266352857	0.118262
H	0.0739669819044909 0.2600929192795171 0.5008684956532684	0.103166
H	0.9615787529228522 0.0745528548383875 0.5471407745636729	0.085959
H	0.8896546357789109 0.9884890118691640 0.5592802074591943	0.122378
H	0.7291101855250613 0.0523767961863557 0.6616724194974991	0.099759
H	0.6515917695338745 0.9713836815349580 0.6576049126198574	0.106293
H	0.6557188495663612 0.8358387652794000 0.4872841266352857	0.118262
H	0.5739669669044931 0.7600929192795102 0.5008684956532684	0.103165
H	0.5384212470771478 0.4254471451616124 0.0471407445636707	0.085960
H	0.6103453642210891 0.5115110081308305 0.0592802074591940	0.122378
H	0.7708898144749387 0.4476232038136443 0.1616724814975042	0.099729
H	0.8484082304661255 0.5286163654650423 0.1576048816198520	0.106285
H	0.8442811084336354 0.6641612817206003 0.9872841576352843	0.118261
H	0.9260330750955033 0.7399070807204898 0.0008684646532691	0.103167
H	0.0384212320771430 0.9254471681616174 0.0471407445636707	0.085965
H	0.1103453952210879 0.0115109621308336 0.0592802074591940	0.122383
H	0.2708897734749457 0.9476232098136450 0.1616724814975042	0.099729
H	0.3484082304661258 0.0286163534650407 0.1576048816198519	0.106285
H	0.3442811504336390 0.1641612697205992 0.9872841576352843	0.118261
H	0.4260329920955069 0.2399070567204808 0.0008684646532691	0.103167
H	0.6127335341267514 0.6684815050726313 0.9407944155173883	0.084967
H	0.6964166089707390 0.5947337895038080 0.9404885712204163	0.113544
H	0.6507531678779879 0.4109133625114075 0.8251317273908019	0.127172
H	0.7291480895864202 0.3312708906112407 0.8347687563203974	0.108529
H	0.8525272949766768 0.3504835352373666 0.0173933767759533	0.118137
H	0.9350777626511002 0.2758885220740607 0.0107929357482041	0.093757
H	0.1127335191267462 0.1684814820726333 0.9407944155173883	0.084971
H	0.1964166399707380 0.0947338095038027 0.9404885712204163	0.113544
H	0.1507531268779879 0.9109133625114073 0.8251317273908019	0.127172
H	0.2291480895864200 0.8312709376112412 0.8347687563203974	0.108530
H	0.3525273369766800 0.8504835582373580 0.0173933767759533	0.118137
H	0.4350776796511113 0.7758885220740611 0.0107929357482041	0.093757
H	0.3872664658732491 0.3315185179273665 0.4407944365173868	0.084969
H	0.3035833910292609 0.4052662104961921 0.4404885962204149	0.113543
H	0.3492468941220104 0.5890866374885927 0.3251317043908039	0.127172
H	0.2708519314135782 0.6687291093887592 0.3347688003203940	0.108530
H	0.1474726630233201 0.6495164887626423 0.5173933267759492	0.118135
H	0.0649222943488867 0.7241114779259389 0.5107929197482100	0.093757
H	0.8872664658732486 0.8315185409273725 0.4407944365173868	0.084966
H	0.8035833910292610 0.9052661644961953 0.4404885962204149	0.113488
H	0.8492468321220121 0.0890866434885930 0.3251317043908039	0.127173
H	0.7708519104135798 0.1687290973887582 0.3347688003203940	0.108530
H	0.6474726630233197 0.1495164767626345 0.5173933267759492	0.118135
H	0.5649222793488962 0.2241114539259374 0.5107929197482100	0.093757
H	0.6127335341267514 0.3315185179273665 0.4407944365173868	0.084969
H	0.6964166089707390 0.4052662104961921 0.4404885962204149	0.113543
H	0.6507531678779879 0.5890866374885927 0.3251317043908039	0.127173
H	0.7291480895864202 0.6687291093887592 0.3347688003203940	0.108530
H	0.8525272949766768 0.6495164887626423 0.5173933267759492	0.118135
H	0.9350777626511002 0.7241114779259389 0.5107929197482100	0.093758
H	0.1127335191267462 0.8315185409273725 0.4407944365173868	0.084970
H	0.1964166399707380 0.9052661644961953 0.4404885962204149	0.113542
H	0.1507531268779879 0.0890866434885930 0.3251317043908039	0.127173
H	0.2291480895864200 0.1687290973887582 0.3347688003203940	0.108530
H	0.3525273369766800 0.1495164767626345 0.5173933267759492	0.118134
H	0.4350776796511113 0.2241114539259374 0.5107929197482100	0.093758
H	0.3872664658732491 0.6684815050726313 0.9407944155173883	0.084967
H	0.3035833910292609 0.5947337895038080 0.9404885712204163	0.113544
H	0.3492468941220104 0.4109133625114075 0.8251317273908019	0.127172
H	0.2708519314135782 0.3312708906112407 0.8347687563203974	0.108527
H	0.1474726630233201 0.3504835352373666 0.0173933767759533	0.118136
H	0.0649222943488867 0.2758885220740607 0.0107929357482041	0.093758
H	0.8872664658732486 0.1684814820726333 0.9407944155173883	0.084968
H	0.8035833910292610 0.0947338095038027 0.9404885712204163	0.113490
H	0.8492468321220121 0.9109133625114073 0.8251317273908019	0.127172
H	0.7708519104135798 0.8312709376112412 0.8347687563203974	0.108527
H	0.6474726630233197 0.8504835582373580 0.0173933767759533	0.118136
H	0.5649222793488962 0.7758885220740611 0.0107929357482041	0.093758
H	0.4615787529228523 0.4254471451616124 0.0471407445636707	0.085962
H	0.3896546357789111 0.5115110081308305 0.0592802074591940	0.122378
H	0.2291102475250523 0.4476232038136443 0.1616724814975042	0.099729
H	0.1515917905338723 0.5286163654650423 0.1576048816198519	0.106286
H	0.1557188495663613 0.6641612817206003 0.9872841576352843	0.118260
H	0.0739669819044909 0.7399070807204898 0.0008684646532691	0.103167
H	0.9615787529228522 0.9254471681616174 0.0471407445636707	0.085967
H	0.8896546357789109 0.0115109621308336 0.0592802074591940	0.122385
H	0.7291101855250613 0.9476232098136450 0.1616724814975042	0.099728
H	0.6515917695338745 0.0286163534650407 0.1576048816198519	0.106286
H	0.6557188495663612 0.1641612697205992 0.9872841576352843	0.118260
H	0.5739669669044931 0.2399070567204808 0.0008684646532691	0.103167
H	0.5384212470771478 0.5745528778383864 0.5471407745636729	0.085964
H	0.6103453642210891 0.4884889918691699 0.5592802074591943	0.122376
H	0.7708898144749387 0.5523767961863555 0.6616724194974991	0.099730
H	0.8484082304661255 0.4713836345349584 0.6576049126198574	0.106286
H	0.8442811084336354 0.3358387422794017 0.4872841266352857	0.118260
H	0.9260330750955033 0.2600929192795171 0.5008684956532684	0.103166
H	0.0384212320771430 0.0745528548383875 0.5471407745636729	0.085962
H	0.1103453952210879 0.9884890118691640 0.5592802074591943	0.122377
H	0.2708897734749457 0.0523767961863557 0.6616724194974991	0.099760
H	0.3484082304661258 0.9713836815349580 0.6576049126198574	0.106294
H	0.3442811504336390 0.8358387652794000 0.4872841266352857	0.118260
H	0.4260329920955069 0.7600929192795102 0.5008684956532684	0.103165
Zn	0.5000000000000000 0.6910570373160735 0.7602646754869407	0.775047
Zn	0.0000000000000000 0.1910570373160733 0.7602646754869408	0.775085
Zn	0.5000000000000000 0.3089429626839268 0.2602646604869426	0.775084
Zn	0.0000000000000000 0.8089429156839262 0.2602646604869426	0.775074
F	0.5000000000000000 0.6847904908687178 0.4942449414120615	-0.617688
F	0.0000000000000000 0.1847905248687206 0.4942449414120615	-0.617705
F	0.5000000000000000 0.3152094861312838 0.9942449104120621	-0.617705
F	0.0000000000000000 0.8152094631312855 0.9942449104120621	-0.617705
F	0.4399332650077171 0.7427506055504646 0.2559252020012590	-0.577855
F	0.5582939060099622 0.6128385912703821 0.2630760178257244	-0.584844
F	0.9399332650077173 0.2427506515504617 0.2559252020012590	-0.577853
F	0.0582939060099622 0.1128386032703759 0.2630760178257244	-0.584844
F	0.5600667349922827 0.2572493484495385 0.7559252170012569	-0.577854
F	0.4417060939900380 0.3871614087296180 0.7630760328257222	-0.584843
F	0.0600667139922846 0.7572493944495354 0.7559252170012569	-0.577854
F	0.9417060939900378 0.8871614547296217 0.7630760328257222	-0.584843
F	0.5600667349922827 0.7427506055504646 0.2559252020012590	-0.577855
F	0.4417060939900380 0.6128385912703821 0.2630760178257244	-0.584844
F	0.0600667139922846 0.2427506515504617 0.2559252020012590	-0.577853
F	0.9417060939900378 0.1128386032703759 0.2630760178257244	-0.584844
F	0.4399332650077171 0.2572493484495385 0.7559252170012569	-0.577854
F	0.5582939060099622 0.3871614087296180 0.7630760328257222	-0.584843
F	0.9399332650077173 0.7572493944495354 0.7559252170012569	-0.577854
F	0.0582939060099622 0.8871614547296217 0.7630760328257222	-0.584842
O	0.5000000000000000 0.6821138181555704 0.0128168889231377	-0.927439
O	0.0000000000000000 0.1821138521555736 0.0128168889231377	-0.927447
O	0.5000000000000000 0.3178861588444310 0.5128169119231356	-0.927446
O	0.0000000000000000 0.8178861358444329 0.5128169119231356	-0.927446
N	0.4288719640115717 0.6241294240766636 0.7465307822219577	-0.218036
N	0.5658285860399545 0.7651758568119312 0.7557308530019264	-0.231820
N	0.9288720050115720 0.1241294350766608 0.7465307822219577	-0.218047
N	0.0658286020399555 0.2651758098119308 0.7557308530019264	-0.231825
N	0.5711280359884279 0.3758705529233380 0.2465307672219600	-0.218046
N	0.4341714139600460 0.2348241661880673 0.2557308380019291	-0.231823
N	0.0711280359884282 0.8758705759233364 0.2465307672219600	-0.217985
N	0.9341714139600455 0.7348241431880688 0.2557308380019291	-0.231823
N	0.5711280359884279 0.6241294240766636 0.7465307822219577	-0.218037
N	0.4341714139600460 0.7651758568119312 0.7557308530019264	-0.231819
N	0.0711280359884282 0.1241294350766608 0.7465307822219577	-0.218044
N	0.9341714139600455 0.2651758098119308 0.7557308530019264	-0.231825
N	0.4288719640115717 0.3758705529233380 0.2465307672219600	-0.218046
N	0.5658285860399545 0.2348241661880673 0.2557308380019291	-0.231823
N	0.9288720050115720 0.8758705759233364 0.2465307672219600	-0.217988
N	0.0658286020399555 0.7348241431880688 0.2557308380019291	-0.231823
Nb	0.5000000000000000 0.6780793264401106 0.2337408922431441	2.429367
Nb	0.0000000000000000 0.1780793724401073 0.2337408922431441	2.429365
Nb	0.5000000000000000 0.3219206275598926 0.7337409072431412	2.429365
Nb	0.0000000000000000 0.8219206735598894 0.7337409072431412	2.429365
	  	
