#======================================================================

# CRYSTAL DATA

#----------------------------------------------------------------------

data_VESTA_phase_1


_pd_phase_name                         NbOFFIVE_13_Cd_i
_cell_length_a                         15.82175
_cell_length_b                         15.79626
_cell_length_c                         8.18713
_cell_angle_alpha                      90.26672
_cell_angle_beta                       89.74306
_cell_angle_gamma                      89.49207
_symmetry_space_group_name_H-M         P 1
_symmetry_Int_Tables_number            1

loop_
_symmetry_equiv_pos_as_xyz
   x, y, z

loop_
   _atom_site_label
   _atom_site_fract_x
   _atom_site_fract_y
   _atom_site_fract_z
   _atom_site_charge
C	0.5396116807899862 0.6941849531210028 0.8695226857296319	0.107761
C	0.5444332237759827 0.7822595923986487 0.8711643576347290	-0.150971
C	0.4630600120662208 0.3097514887666685 0.8864182998569439	0.106401
C	0.4604802395661497 0.2216508182106877 0.8834233662572467	-0.144277
C	0.8085096573550706 0.9750471594307082 0.3719038588803268	0.108125
C	0.7206918118576267 0.9729116290059374 0.3653689660370234	-0.138148
C	0.3065054555921307 0.5420140872392962 0.8699955954412075	0.102127
C	0.2185048993585000 0.5469627841248044 0.8708568693956610	-0.151799
C	0.1941801653475360 0.9752144158829567 0.3565103892150521	0.103559
C	0.2821457320992009 0.9734011525461498 0.3540073906844880	-0.138850
C	0.6922958419988645 0.4625872856534421 0.8958643459627116	0.107300
C	0.7801510391120731 0.4602337346930390 0.8894894265611112	-0.142201
C	0.4548445980565798 0.6949341044694248 0.1021560062662397	0.106084
C	0.4529458289239742 0.7829059058073827 0.1079166801577684	-0.143431
C	0.5422286610347333 0.3097445490810034 0.1253542245727423	0.101115
C	0.5462898296883349 0.2216242895931644 0.1264743858025714	-0.151338
C	0.1914025371870846 0.0206285170615898 0.6271060559351563	0.109988
C	0.2791115298817107 0.0215372103046740 0.6348428541694079	-0.142120
C	0.6926916828719852 0.5455171662140044 0.1310217958819651	0.105008
C	0.7806093268081290 0.5498475890388821 0.1290071176375634	-0.150684
C	0.8057181867490248 0.0263756443548946 0.6385464260886480	0.102604
C	0.7178355154998218 0.0274234466024230 0.6419027138291405	-0.138515
C	0.3066237089697922 0.4577478004893230 0.1021343011472888	0.106810
C	0.2187480008018809 0.4559389933993860 0.1070197785148828	-0.146024
C	0.9672849625031216 0.8051918751309398 0.6217640880309361	0.109566
C	0.9667674563663585 0.7172687578911313 0.6282917637713840	-0.141087
C	0.9827469475214902 0.1906150770345600 0.6439734010641248	0.103268
C	0.9809782021915293 0.2786105155720398 0.6466942795602411	-0.140009
C	0.0184754858917248 0.8035752460858268 0.3551113911897770	0.104103
C	0.0214031022347590 0.7155158936609701 0.3519553914825636	-0.138513
C	0.0269178541116995 0.1876180639514375 0.3725192074320708	0.109185
C	0.0277303324926541 0.2755476446190264 0.3649372584441036	-0.139007
C	0.0039307110083003 0.3219521938477234 0.5043923892411001	0.042903
C	0.0024378078329381 0.4147652252326148 0.5013701000722312	0.256129
C	0.4996122708680146 0.8274278687808075 0.9913647034096029	0.058760
C	0.5011728942166683 0.9207862004430614 0.9976844939701006	0.247359
C	0.9951491746342133 0.6714015989012361 0.4911535977880890	0.038384
C	0.9979276175978554 0.5784727642743085 0.4945987834442989	0.249964
C	0.5034915070071873 0.1767857642389417 0.0049589980025155	0.058678
C	0.5028812207634141 0.0833119655306127 0.0057070328628136	0.247816
C	0.6743470673513817 -0.0006200467881259 0.5031423667790407	0.037863
C	0.5816126313945715 0.9967565735132817 0.5033183417616960	0.247993
C	0.1738792267149181 0.5022704341756592 0.9899987629957122	0.056778
C	0.0806569588556159 0.5035176502818582 0.9932807405238476	0.249193
C	0.3254954808224474 0.9968868197615631 0.4958871095851834	0.042782
C	0.4181648016019082 0.9953880951832556 0.5000647052623350	0.253915
C	0.8251357363776970 0.5053743872458577 0.0075116226152212	0.056387
C	0.9183962865732290 0.5051485150167067 0.0030582982947814	0.250650
H	0.5702746809440904 0.6562357660254792 0.7738958658657130	0.105787
H	0.5816408230815647 0.8149014849529665 0.7789213879476656	0.123112
H	0.4341783931546219 0.3476013223683932 0.7897067280566344	0.106694
H	0.4276336242036529 0.1882323594977876 0.7862652164804681	0.120368
H	0.8472440996059408 0.9559030178908492 0.2670901556443007	0.105037
H	0.6891742040968420 0.9513036649481590 0.2549979778452651	0.121179
H	0.3440324241849063 0.5724436706047501 0.7746802297828331	0.109790
H	0.1854690629053470 0.5840278491510021 0.7786455056602304	0.123559
H	0.1578787006063998 0.9580299921805125 0.2482922757798381	0.102750
H	0.3158256523748881 0.9548069593793496 0.2430197126928861	0.116035
H	0.6539169536230254 0.4323612468566556 0.8022297516746866	0.107564
H	0.8132922019397243 0.4262160818623895 0.7921945236437554	0.119428
H	0.4235811005918200 0.6567777171351179 0.1949975181042303	0.106283
H	0.4187402511606304 0.8165765397840202 0.2042403781016374	0.116782
H	0.5709799118191164 0.3472471237363426 0.2227208284992138	0.105131
H	0.5808397716849698 0.1886842325901031 0.2223049826214453	0.123699
H	0.1525054512076498 0.0376292120528958 0.7329945329313343	0.100046
H	0.3106533389949738 0.0397626421737441 0.7473887958125647	0.120412
H	0.6554196484843058 0.5758378857668757 0.2279761536455206	0.102115
H	0.8136221705974100 0.5860182723922391 0.2222747684354920	0.123023
H	0.8419330143088467 0.0460328977053113 0.7453063292727738	0.097412
H	0.6841436416374547 0.0485471504172666 0.7510846510088448	0.119038
H	0.3446337696968719 0.4266474247199012 0.1958117801190795	0.102790
H	0.1854281555513818 0.4217283172985365 0.2025082950597587	0.118241
H	0.9480679599523291 0.8437019874520501 0.7269033754182889	0.101496
H	0.9459019992891616 0.6851779221673000 0.7385478167825751	0.119920
H	0.9660489769446319 0.1543164985323939 0.7525041010632872	0.095241
H	0.9628145087088658 0.3124375101364751 0.7577130562869546	0.119371
H	0.0376097271730503 0.8403511985862760 0.2487198621820409	0.102713
H	0.0435147409777018 0.6823902004709176 0.2427939332107747	0.118115
H	0.0436207444162861 0.1486662222273968 0.2664180125522666	0.104752
H	0.0452355614106695 0.3071542443488910 0.2519780730523837	0.120706
N	0.9548737649560582 0.5390057367216297 0.6151237886681949	-0.134591
N	0.4266857917481236 0.0453271159311950 0.0070988043827591	-0.148710
N	0.5398020737746216 0.0388121764913239 0.6237702764449883	-0.134497
N	0.9576898802186926 0.4288353499289093 0.0015514313246250	-0.150033
N	0.0440301444638394 0.5375183758790236 0.3786270492436924	-0.136502
N	0.5781541760722034 0.0423773451919004 0.0086633848457635	-0.147414
N	0.9577796335965431 0.5806343408481015 -0.0010834277270860	-0.149283
N	0.5431519744255212 0.9499470104415774 0.3869612122353620	-0.132491
N	0.0471707092334590 0.4542182773158238 0.3835197798682110	-0.132453
N	0.5773507269789482 0.9587483997633831 0.0003772426133240	-0.147360
N	0.4599539315734543 0.9487581726367985 0.3861735860987233	-0.132446
N	0.0412629276266357 0.5797205696596572 0.9901587859479348	-0.147946
N	0.9563513800050254 0.4557695717257423 0.6172831866053436	-0.132671
N	0.4258766624544464 0.9616577604283707 0.0063526351197621	-0.145413
N	0.0412345987838266 0.4280399924915587 -0.0004363934956356	-0.146294
N	0.4567211868912817 0.0386713578520699 0.6211360885158711	-0.134818
N	0.0047513998174287 0.1462726428001191 0.5094035030190451	-0.226299
N	0.4965472273792097 0.6517333855214531 0.9844855239450131	-0.226394
N	0.9927232139512061 0.8473473568997635 0.4879233171478272	-0.225192
N	0.5020281145223001 0.3525649451239535 0.0066023364285403	-0.232428
N	0.8499964123321598 0.0007137870266749 0.5063148041354235	-0.226887
N	0.3493692522709054 0.4989167983887715 0.9847655328200611	-0.230447
N	0.1499232268423127 0.9978147287303776 0.4907426441550084	-0.225168
N	0.6496593833758539 0.5034219855978914 0.0155236862522900	-0.231072
Cd	0.0000426258548594 0.9966422966101901 0.5068157232609362	0.855768
Cd	0.4993986713533762 0.5025602711336180 0.0077117708839007	0.855207
Nb	-0.0001804765776613 0.9964141246643310 0.9874137208216738	2.454007
Nb	0.4996678489326247 0.5037405408060113 0.4881805871747803	2.474701
F	0.9864691280130499 0.0113713568972421 0.2377562807245096	-0.619606
F	0.5230506789166196 0.4889992681351812 0.7379105724913119	-0.627865
F	0.0864834207577506 0.0832638844182234 0.0125409962523327	-0.593369
F	0.5894317123249230 0.5884106602142738 0.5010905061266671	-0.606335
F	0.9113064317628837 0.9118963817700966 0.0153895780686658	-0.592780
F	0.4148915905783841 0.4164145201523091 0.5282874642221802	-0.606913
F	0.9134228815224334 0.0858256757888974 0.9718720274601153	-0.589092
F	0.4189136061417841 0.5907268872609339 0.5629786455476593	-0.601908
F	0.0844110459723856 0.9103876357045810 0.0485650770648232	-0.586917
F	0.5869487229007064 0.4156513336025747 0.4615949123087412	-0.603825
O	0.0111345589595145 0.9840408669345029 0.7711716927479308	-0.946205
O	0.4794895666370568 0.5151048980238635 0.2737884727707143	-0.958228
	  	
