#======================================================================

# CRYSTAL DATA

#----------------------------------------------------------------------

data_VESTA_phase_1


_pd_phase_name                         NbOFFIVE_15_Cu_i
_cell_length_a                         30.07629
_cell_length_b                         29.34568
_cell_length_c                         7.88114
_cell_angle_alpha                      90
_cell_angle_beta                       90
_cell_angle_gamma                      90
_symmetry_space_group_name_H-M         P 1
_symmetry_Int_Tables_number            1

loop_
_symmetry_equiv_pos_as_xyz
   x, y, z

loop_
   _atom_site_label
   _atom_site_fract_x
   _atom_site_fract_y
   _atom_site_fract_z
   _atom_site_charge
C	0.9317557398245010 0.1010678409167198 0.8960563970103796	0.115336
C	0.9001544765468042 0.0666563105800789 0.9023603942612450	-0.168050
C	0.7697498857265793 0.9362273206412745 0.9046718944629261	-0.115117
C	0.7358308014239442 0.9042855303181419 0.9044281541542624	-0.115224
C	0.5696848440891443 0.7432158217568190 0.8960017904098606	0.111278
C	0.6031559779011699 0.7757073781821793 0.9020287808011325	-0.172622
C	0.4317556758244956 0.6010678239167216 0.8960563970103796	0.115336
C	0.4001544445468015 0.5666562905800775 0.9023603942612450	-0.168050
C	0.2697498857265793 0.4362272886412719 0.9046718944629261	-0.115117
C	0.2358308014239437 0.4042855303181418 0.9044281541542624	-0.115224
C	0.0696848840891401 0.2432158377568203 0.8960017904098606	0.111278
C	0.1031559699011764 0.2757073611821814 0.9020287808011325	-0.172622
C	0.0682443041755027 0.8989321760832784 0.3960563970103795	0.115337
C	0.0998455554531985 0.9333437094199225 0.4023603942612453	-0.168050
C	0.2302501462734164 0.0637727203587253 0.4046718944629262	-0.115128
C	0.2641692145760577 0.0957144616818576 0.4044281541542627	-0.115221
C	0.4303151239108606 0.2567841782431808 0.3960017594098611	0.111277
C	0.3968440220988301 0.2242926218178208 0.4020287808011323	-0.172622
C	0.5682442601754990 0.3989321430832788 0.3960563970103795	0.115337
C	0.5998455234531958 0.4333436774199201 0.4023603942612453	-0.168050
C	0.7302501142734207 0.5637726793587255 0.4046718944629262	-0.115128
C	0.7641691985760558 0.5957144696818581 0.4044281541542627	-0.115221
C	0.9303151559108557 0.7567841782431810 0.3960017594098611	0.111277
C	0.8968440220988301 0.7242926218178207 0.4020287808011323	-0.172622
C	0.0680322880546925 0.1012937216396139 0.6030309115285648	0.112147
C	0.0996805549193005 0.0668429284767302 0.5962298492446426	-0.165376
C	0.2302525758017131 0.9362252406302525 0.5953544067816449	-0.115054
C	0.2641647681758243 0.9042901625088547 0.5955911416776166	-0.115300
C	0.4305327672657556 0.7429807998559295 0.6031605540562270	0.108393
C	0.3970181804692143 0.7755146809863412 0.5966223548189150	-0.170330
C	0.5680322440546887 0.6012937046396160 0.6030309115285648	0.112147
C	0.5996805229192982 0.5668429084767288 0.5962298492446426	-0.165376
C	0.7302525438017178 0.4362252086302496 0.5953544067816449	-0.115054
C	0.7641647521758225 0.4042901625088548 0.5955911416776166	-0.115300
C	0.9305327992657514 0.2429808158559310 0.6031605540562270	0.108393
C	0.8970181804692147 0.2755146639863435 0.5966223548189150	-0.170330
C	0.9319677559453113 0.8987062953603840 0.1030309355285599	0.112148
C	0.9003194770807018 0.9331570915232712 0.0962298252446481	-0.165376
C	0.7697474561982822 0.0637748003697474 0.0953544457816445	-0.115042
C	0.7358352478241775 0.0957098294911445 0.0955911646776149	-0.115303
C	0.5694672007342486 0.2570192001440702 0.1031605460562264	0.108392
C	0.6029818195307853 0.2244853190136586 0.0966223708189159	-0.170330
C	0.4319676919453058 0.3987062623603848 0.1030309355285599	0.112148
C	0.4003194450806997 0.4331570595232691 0.0962298252446481	-0.165376
C	0.2697474561982822 0.5637747593697475 0.0953544457816445	-0.115042
C	0.2358352478241770 0.5957098374911453 0.0955911646776149	-0.115303
C	0.0694672407342451 0.7570192001440705 0.1031605460562264	0.108392
C	0.1029818115307921 0.7244853190136588 0.0966223708189159	-0.170330
C	0.0680322880546925 0.8987062953603840 0.1030309355285599	0.112142
C	0.0996805549193005 0.9331570915232712 0.0962298252446481	-0.165374
C	0.2302525758017131 0.0637748003697474 0.0953544457816445	-0.115041
C	0.2641647681758243 0.0957098294911445 0.0955911646776149	-0.115300
C	0.4305327672657556 0.2570192001440702 0.1031605460562264	0.108395
C	0.3970181804692143 0.2244853190136586 0.0966223708189159	-0.170333
C	0.5680322440546887 0.3987062623603848 0.1030309355285599	0.112142
C	0.5996805229192982 0.4331570595232691 0.0962298252446481	-0.165374
C	0.7302525438017178 0.5637747593697475 0.0953544457816445	-0.115041
C	0.7641647521758225 0.5957098374911453 0.0955911646776149	-0.115300
C	0.9305327992657514 0.7570192001440705 0.1031605460562264	0.108395
C	0.8970181804692147 0.7244853190136588 0.0966223708189159	-0.170332
C	0.9319677559453113 0.1012937216396139 0.6030309115285648	0.112142
C	0.9003194770807018 0.0668429284767302 0.5962298492446426	-0.165373
C	0.7697474561982822 0.9362252406302525 0.5953544067816449	-0.115053
C	0.7358352478241775 0.9042901625088547 0.5955911416776166	-0.115296
C	0.5694672007342486 0.7429807998559295 0.6031605540562270	0.108396
C	0.6029818195307853 0.7755146809863412 0.5966223548189150	-0.170332
C	0.4319676919453058 0.6012937046396160 0.6030309115285648	0.112142
C	0.4003194450806997 0.5668429084767288 0.5962298492446426	-0.165374
C	0.2697474561982822 0.4362252086302496 0.5953544067816449	-0.115053
C	0.2358352478241770 0.4042901625088548 0.5955911416776166	-0.115296
C	0.0694672407342451 0.2429808158559310 0.6031605540562270	0.108396
C	0.1029818115307921 0.2755146639863435 0.5966223548189150	-0.170333
C	0.9317557398245010 0.8989321760832784 0.3960563970103795	0.115331
C	0.9001544765468042 0.9333437094199225 0.4023603942612453	-0.168053
C	0.7697498857265793 0.0637727203587253 0.4046718944629262	-0.115127
C	0.7358308014239442 0.0957144616818576 0.4044281541542627	-0.115221
C	0.5696848440891443 0.2567841782431808 0.3960017594098611	0.111278
C	0.6031559779011699 0.2242926218178208 0.4020287808011323	-0.172624
C	0.4317556758244956 0.3989321430832788 0.3960563970103795	0.115331
C	0.4001544445468015 0.4333436774199201 0.4023603942612453	-0.168053
C	0.2697498857265793 0.5637726793587255 0.4046718944629262	-0.115127
C	0.2358308014239437 0.5957144696818581 0.4044281541542627	-0.115220
C	0.0696848840891401 0.7567841782431810 0.3960017594098611	0.111278
C	0.1031559699011764 0.7242926218178207 0.4020287808011323	-0.172624
C	0.0682443041755027 0.1010678409167198 0.8960563970103796	0.115331
C	0.0998455554531985 0.0666563105800789 0.9023603942612450	-0.168053
C	0.2302501462734164 0.9362273206412745 0.9046718944629261	-0.115116
C	0.2641692145760577 0.9042855303181419 0.9044281541542624	-0.115224
C	0.4303151239108606 0.7432158217568190 0.8960017904098606	0.111278
C	0.3968440220988301 0.7757073781821793 0.9020287808011325	-0.172624
C	0.5682442601754990 0.6010678239167216 0.8960563970103796	0.115331
C	0.5998455234531958 0.5666562905800775 0.9023603942612450	-0.168053
C	0.7302501142734207 0.4362272886412719 0.9046718944629261	-0.115116
C	0.7641691985760558 0.4042855303181418 0.9044281541542624	-0.115224
C	0.9303151559108557 0.2432158377568203 0.8960017904098606	0.111278
C	0.8968440220988301 0.2757073611821814 0.9020287808011325	-0.172624
C	0.6547196277004265 0.8260098665341866 0.7490001145932479	-0.105607
C	0.8835666265463572 0.0488517480592947 0.7490259741975663	0.160337
C	0.8214980559217397 0.9855391170332034 0.7497519287653155	-0.098699
C	0.6207016279110433 0.7927825896279604 0.7490452537262734	0.170763
C	0.7872435778149217 0.9526621368572133 0.7500065018679728	0.124413
C	0.7183194373829969 0.8876575618743860 0.7499977951646717	0.136729
C	0.6840746372733264 0.8547379763982573 0.7497269726756496	-0.101837
C	0.8506510344558685 0.0144885825685598 0.7490082644946072	-0.106932
C	0.1547195797004297 0.3260098995341860 0.7490001145932479	-0.105607
C	0.3835665945463547 0.5488517230592961 0.7490259741975663	0.160337
C	0.3214980879217425 0.4855391500332102 0.7497519287653155	-0.098699
C	0.1207016039110414 0.2927825896279602 0.7490452537262734	0.170763
C	0.2872436098149173 0.4526621368572133 0.7500065018679728	0.124413
C	0.2183194053829940 0.3876575948743851 0.7499977951646717	0.136729
C	0.1840746532733278 0.3547379763982576 0.7497269726756496	-0.101837
C	0.3506510664558640 0.5144886185685629 0.7490082644946072	-0.106933
C	0.3452804362995718 0.1739901164658083 0.2490000985932461	-0.105607
C	0.1164333894536439 0.9511482769407039 0.2490259581975653	0.160337
C	0.1785019440782603 0.0144608639667909 0.2497519127653143	-0.098698
C	0.3792984040889590 0.2072174103720395 0.2490452377262723	0.170762
C	0.2127564061850840 0.0473378461427818 0.2500064858679713	0.124411
C	0.2816805946170063 0.1123424211256162 0.2499977791646706	0.136730
C	0.3159253627266735 0.1452620236017423 0.2497269566756483	-0.101838
C	0.1493489495441302 0.9855113814314371 0.2490082484946058	-0.106933
C	0.8452803722995735 0.6739901334658134 0.2490000985932461	-0.105607
C	0.6164333734536428 0.4511482769407038 0.2490259581975653	0.160337
C	0.6785019440782603 0.5144608829667966 0.2497519127653143	-0.098698
C	0.8792983720889567 0.7072174103720396 0.2490452377262723	0.170762
C	0.7127564221850783 0.5473378631427867 0.2500064858679713	0.124411
C	0.7816805626170031 0.6123424381256140 0.2499977791646706	0.136729
C	0.8159253627266736 0.6452620236017427 0.2497269566756483	-0.101838
C	0.6493489655441315 0.4855114144314365 0.2490082484946058	-0.106932
C	0.3452804362995718 0.8260098665341866 0.7490001145932479	-0.105607
C	0.1164333894536439 0.0488517480592947 0.7490259741975663	0.160337
C	0.1785019440782603 0.9855391170332034 0.7497519287653155	-0.098699
C	0.3792984040889590 0.7927825896279604 0.7490452537262734	0.170763
C	0.2127564061850840 0.9526621368572133 0.7500065018679728	0.124413
C	0.2816805946170063 0.8876575618743860 0.7499977951646717	0.136729
C	0.3159253627266735 0.8547379763982573 0.7497269726756496	-0.101837
C	0.1493489495441302 0.0144885825685598 0.7490082644946072	-0.106931
C	0.8452803722995735 0.3260098995341860 0.7490001145932479	-0.105607
C	0.6164333734536428 0.5488517230592961 0.7490259741975663	0.160337
C	0.6785019440782603 0.4855391500332102 0.7497519287653155	-0.098698
C	0.8792983720889567 0.2927825896279602 0.7490452537262734	0.170763
C	0.7127564221850783 0.4526621368572133 0.7500065018679728	0.124413
C	0.7816805626170031 0.3876575948743851 0.7499977951646717	0.136729
C	0.8159253627266736 0.3547379763982576 0.7497269726756496	-0.101837
C	0.6493489655441315 0.5144886185685629 0.7490082644946072	-0.106932
C	0.6547196277004265 0.1739901164658083 0.2490000985932461	-0.105607
C	0.8835666265463572 0.9511482769407039 0.2490259581975653	0.160338
C	0.8214980559217397 0.0144608639667909 0.2497519127653143	-0.098697
C	0.6207016279110433 0.2072174103720395 0.2490452377262723	0.170762
C	0.7872435778149217 0.0473378461427818 0.2500064858679713	0.124411
C	0.7183194373829969 0.1123424211256162 0.2499977791646706	0.136730
C	0.6840746372733264 0.1452620236017423 0.2497269566756483	-0.101838
C	0.8506510344558685 0.9855113814314371 0.2490082484946058	-0.106932
C	0.1547195797004297 0.6739901334658134 0.2490000985932461	-0.105607
C	0.3835665945463547 0.4511482769407038 0.2490259581975653	0.160338
C	0.3214980879217425 0.5144608829667966 0.2497519127653143	-0.098697
C	0.1207016039110414 0.7072174103720396 0.2490452377262723	0.170762
C	0.2872436098149173 0.5473378631427867 0.2500064858679713	0.124411
C	0.2183194053829940 0.6123424381256140 0.2499977791646706	0.136730
C	0.1840746532733278 0.6452620236017427 0.2497269566756483	-0.101838
C	0.3506510664558640 0.4855114144314365 0.2490082484946058	-0.106932
H	0.9449242205552613 0.1154646876017023 0.0126571358190061	0.076077
H	0.8884146666270863 0.0538314948208735 0.0240257275719902	0.119084
H	0.7832675816848341 0.9489758770883546 0.0238513119221368	0.106592
H	0.7223248428150398 0.8916313154527152 0.0236073274231383	0.114756
H	0.5556746911414858 0.7296985230365175 0.0126475796463555	0.075706
H	0.6155636006015688 0.7876478307990979 0.0238477450217591	0.124620
H	0.4449242855552558 0.6154646626017041 0.0126571358190061	0.076077
H	0.3884146666270863 0.5538314618208747 0.0240257275719902	0.119084
H	0.2832675496848388 0.4489759100883535 0.0238513119221368	0.106592
H	0.2223248428150396 0.3916312824527162 0.0236073274231383	0.114756
H	0.0556746431414889 0.2296985390365187 0.0126475796463555	0.075706
H	0.1155636486015727 0.2876477647990994 0.0238477450217591	0.124620
H	0.0550757314447420 0.8845353373982959 0.5126571208190083	0.076076
H	0.1115853333729135 0.9461685381791253 0.5240257275719901	0.119085
H	0.2167324503151612 0.0510240939116468 0.5238513119221366	0.106594
H	0.2776751571849604 0.1083687255472845 0.5236072964231324	0.114757
H	0.4443253738585090 0.2703014609634812 0.5126475876463559	0.075707
H	0.3844363353984330 0.2123522182009028 0.5238477720217650	0.124619
H	0.5550757794447387 0.3845353373982964 0.5126571208190083	0.076076
H	0.6115853333729137 0.4461685051791268 0.5240257275719901	0.119085
H	0.7167324183151659 0.5510240899116462 0.5238513119221366	0.106593
H	0.7776751571849602 0.6083686845472848 0.5236072964231324	0.114757
H	0.9443253088585142 0.7703014769634825 0.5126475876463559	0.075707
H	0.8844363993984312 0.7123521692009021 0.5238477720217650	0.124619
H	0.0547056700503399 0.1158335862890620 0.4868469510887649	0.087777
H	0.1113829790035383 0.0540590443198044 0.4744327343389375	0.118215
H	0.2167318362067976 0.9489794044787634 0.4761942132148141	0.106556
H	0.2776776371520246 0.8916311021467019 0.4764400798477065	0.114808
H	0.4446840695858781 0.7293044113324791 0.4869267280488138	0.087514
H	0.3846523225753933 0.7874161996820964 0.4746477199638172	0.123929
H	0.5547057180503366 0.6158335612890634 0.4868469510887649	0.087777
H	0.6113829790035381 0.5540590113198055 0.4744327343389375	0.118215
H	0.7167318042068019 0.4489794374787620 0.4761942132148141	0.106556
H	0.7776776371520245 0.3916310691467027 0.4764400798477065	0.114808
H	0.9446840045858838 0.2293044273324804 0.4869267280488138	0.087514
H	0.8846523865753914 0.2874161336820980 0.4746477199638172	0.123929
H	0.9452942819496634 0.8841664387109366 0.9868469200887657	0.087777
H	0.8886170209964619 0.9459409886801945 0.9744327033389386	0.118216
H	0.7832681957931981 0.0510205665212383 0.9761941812148115	0.106553
H	0.7223223628479755 0.1083689388532979 0.9764400798477065	0.114809
H	0.5553159954141162 0.2706955726675195 0.9869267280488133	0.087515
H	0.6153476134246086 0.2125838493179043 0.9746477199638170	0.123928
H	0.4452943469496579 0.3841664387109365 0.9868469200887657	0.087777
H	0.3886170209964616 0.4459409556801956 0.9744327033389386	0.118216
H	0.2832681637932025 0.5510205625212374 0.9761941812148115	0.106553
H	0.2223223628479752 0.6083688978532981 0.9764400798477065	0.114809
H	0.0553159474141196 0.7706955886675209 0.9869267280488133	0.087515
H	0.1153476614246126 0.7125838003179036 0.9746477199638170	0.123928
H	0.0547056700503399 0.8841664387109366 0.9868469200887657	0.087777
H	0.1113829790035383 0.9459409886801945 0.9744327033389386	0.118217
H	0.2167318362067976 0.0510205665212383 0.9761941812148115	0.106554
H	0.2776776371520246 0.1083689388532979 0.9764400798477065	0.114798
H	0.4446840695858781 0.2706955726675195 0.9869267280488133	0.087515
H	0.3846523225753933 0.2125838493179043 0.9746477199638170	0.123923
H	0.5547057180503366 0.3841664387109365 0.9868469200887657	0.087777
H	0.6113829790035381 0.4459409556801956 0.9744327033389386	0.118217
H	0.7167318042068019 0.5510205625212374 0.9761941812148115	0.106554
H	0.7776776371520245 0.6083688978532981 0.9764400798477065	0.114798
H	0.9446840045858838 0.7706955886675209 0.9869267280488133	0.087515
H	0.8846523865753914 0.7125838003179036 0.9746477199638170	0.123923
H	0.9452942819496634 0.1158335862890620 0.4868469510887649	0.087777
H	0.8886170209964619 0.0540590443198044 0.4744327343389375	0.118216
H	0.7832681957931981 0.9489794044787634 0.4761942132148141	0.106556
H	0.7223223628479755 0.8916311021467019 0.4764400798477065	0.114797
H	0.5553159954141162 0.7293044113324791 0.4869267280488138	0.087514
H	0.6153476134246086 0.7874161996820964 0.4746477199638172	0.123924
H	0.4452943469496579 0.6158335612890634 0.4868469510887649	0.087777
H	0.3886170209964616 0.5540590113198055 0.4744327343389375	0.118216
H	0.2832681637932025 0.4489794374787620 0.4761942132148141	0.106556
H	0.2223223628479752 0.3916310691467027 0.4764400798477065	0.114797
H	0.0553159474141196 0.2293044273324804 0.4869267280488138	0.087514
H	0.1153476614246126 0.2874161336820980 0.4746477199638172	0.123924
H	0.9449242205552613 0.8845353373982959 0.5126571208190083	0.076077
H	0.8884146666270863 0.9461685381791253 0.5240257275719901	0.119086
H	0.7832675816848341 0.0510240939116468 0.5238513119221366	0.106595
H	0.7223248428150398 0.1083687255472845 0.5236072964231324	0.114746
H	0.5556746911414858 0.2703014609634812 0.5126475876463559	0.075707
H	0.6155636006015688 0.2123522182009028 0.5238477720217650	0.124615
H	0.4449242855552558 0.3845353373982964 0.5126571208190083	0.076077
H	0.3884146666270863 0.4461685051791268 0.5240257275719901	0.119086
H	0.2832675496848388 0.5510240899116462 0.5238513119221366	0.106595
H	0.2223248428150396 0.6083686845472848 0.5236072964231324	0.114746
H	0.0556746431414889 0.7703014769634825 0.5126475876463559	0.075707
H	0.1155636486015727 0.7123521692009021 0.5238477720217650	0.124615
H	0.0550757314447420 0.1154646876017023 0.0126571358190061	0.076077
H	0.1115853333729135 0.0538314948208735 0.0240257275719902	0.119085
H	0.2167324503151612 0.9489758770883546 0.0238513119221368	0.106593
H	0.2776751571849604 0.8916313154527152 0.0236073274231383	0.114746
H	0.4443253738585090 0.7296985230365175 0.0126475796463555	0.075707
H	0.3844363353984330 0.7876478307990979 0.0238477450217591	0.124616
H	0.5550757794447387 0.6154646626017041 0.0126571358190061	0.076077
H	0.6115853333729137 0.5538314618208747 0.0240257275719902	0.119085
H	0.7167324183151659 0.4489759100883535 0.0238513119221368	0.106593
H	0.7776751571849602 0.3916312824527162 0.0236073274231383	0.114746
H	0.9443253088585142 0.2296985390365187 0.0126475796463555	0.075707
H	0.8844363993984312 0.2876477647990994 0.0238477450217591	0.124616
Cu	0.5000000000000000 0.6731057068450966 0.7549481255024020	0.899994
Cu	0.0000000000000000 0.1731056738450971 0.7549481255024020	0.899994
Cu	0.5000000000000000 0.3268943261549029 0.2549481095024008	0.899994
Cu	0.0000000000000000 0.8268942931549034 0.2549481095024008	0.899994
Nb	0.5000000000000000 0.6728089852427802 0.2293281563238453	2.437043
Nb	0.0000000000000000 0.1728090342427812 0.2293281563238454	2.437043
Nb	0.5000000000000000 0.3271909497572245 0.7293281723238467	2.437043
Nb	0.0000000000000000 0.8271910147572198 0.7293281723238467	2.437043
F	0.5000000000000000 0.7386508306393947 0.2588559893856914	-0.565760
F	0.5000000000000000 0.6069898221202061 0.2589542071091601	-0.562495
F	0.0000000000000000 0.2386507976393956 0.2588559893856914	-0.565760
F	0.0000000000000000 0.1069898301202067 0.2589542071091601	-0.562495
F	0.5000000000000000 0.2613491863606032 0.7588560053856930	-0.565762
F	0.5000000000000000 0.3930101448797946 0.7589542231091613	-0.562493
F	0.0000000000000000 0.7613491693606053 0.7588560053856930	-0.565762
F	0.0000000000000000 0.8930101778797939 0.7589542231091613	-0.562493
F	0.5642509833124831 0.6727835887895020 0.2587198435105189	-0.565553
F	0.0642509753124825 0.1727835717895038 0.2587198435105189	-0.565553
F	0.4357490166875169 0.3272164112104982 0.7587198595105199	-0.565552
F	0.9357490166875169 0.8272164112104980 0.7587198595105199	-0.565552
F	0.4357490166875169 0.6727835887895020 0.2587198435105189	-0.565553
F	0.9357490166875169 0.1727835717895038 0.2587198435105189	-0.565553
F	0.5642509833124831 0.3272164112104982 0.7587198595105199	-0.565552
F	0.0642509753124825 0.8272164112104980 0.7587198595105199	-0.565552
F	0.5000000000000000 0.6730393640788490 0.5053868504276683	-0.615043
F	0.0000000000000000 0.1730393640788490 0.5053868504276683	-0.615043
F	0.5000000000000000 0.3269606359211509 0.0053869124276665	-0.615043
F	0.0000000000000000 0.8269606359211510 0.0053869124276665	-0.615043
O	0.5000000000000000 0.6729387138452381 0.0006512575481161	-0.933150
O	0.0000000000000000 0.1729387138452383 0.0006512575481161	-0.933150
O	0.5000000000000000 0.3270612861547619 0.5006512385481182	-0.933150
O	0.0000000000000000 0.8270612861547619 0.5006512385481182	-0.933150
N	0.5528660136473538 0.7268077539133952 0.7500199647596327	-0.254263
N	0.9476101477271812 0.1183991445245521 0.7499733199814552	-0.255351
N	0.0528660536473499 0.2268077699133968 0.7500199647596327	-0.254262
N	0.4476101157271858 0.6183991205245503 0.7499733199814552	-0.255351
N	0.4471339543526510 0.2731922300866032 0.2500199487596311	-0.254260
N	0.0523898802728138 0.8816008794754497 0.2499733039814535	-0.255353
N	0.9471339863526462 0.7731922460866048 0.2500199487596311	-0.254261
N	0.5523898522728188 0.3816008464754506 0.2499733039814535	-0.255353
N	0.4471339543526510 0.7268077539133952 0.7500199647596327	-0.254256
N	0.0523898802728138 0.1183991445245521 0.7499733199814552	-0.255350
N	0.9471339863526462 0.2268077699133968 0.7500199647596327	-0.254256
N	0.5523898522728188 0.6183991205245503 0.7499733199814552	-0.255350
N	0.5528660136473538 0.2731922300866032 0.2500199487596311	-0.254254
N	0.9476101477271812 0.8816008794754497 0.2499733039814535	-0.255352
N	0.0528660536473499 0.7731922460866048 0.2500199487596311	-0.254254
N	0.4476101157271858 0.3816008464754506 0.2499733039814535	-0.255352
	  	
