#======================================================================

# CRYSTAL DATA

#----------------------------------------------------------------------

data_VESTA_phase_1


_pd_phase_name                         NbOFFIVE_18_Fe
_cell_length_a                         14.31308
_cell_length_b                         13.97954
_cell_length_c                         8.21582
_cell_angle_alpha                      89.43502
_cell_angle_beta                       95.70890
_cell_angle_gamma                      90.16423
_symmetry_space_group_name_H-M         P 1
_symmetry_Int_Tables_number            1

loop_
_symmetry_equiv_pos_as_xyz
   x, y, z

loop_
   _atom_site_label
   _atom_site_fract_x
   _atom_site_fract_y
   _atom_site_fract_z
   _atom_site_charge
F	0.4014644043221725 0.3696536076529707 0.5084842120493672	-0.571049
F	0.5154941873855701 0.4808015127173466 0.7388861497060830	-0.606907
F	0.4007095714326555 0.5635982754508702 0.5099400588806248	-0.555331
F	0.9014644713221736 0.8696535736529745 0.5084842120493672	-0.571042
F	0.0154941603855711 0.9808014437173517 0.7388861497060830	-0.606909
F	0.9007095044326537 0.0635982964508679 0.5099400588806248	-0.555328
F	0.5828370518958081 0.3574607885582574 0.5070783028862739	-0.572467
F	0.6071345114112701 0.5535927219038961 0.5005746132133627	-0.559385
F	0.0828370778958104 0.8574607545582615 0.5070783028862739	-0.572462
F	0.1071345034112696 0.0535927429038940 0.5005746132133627	-0.559383
O	0.4855776426424377 0.4780628317550348 0.2640702571913398	-0.898449
O	0.9855776096424378 0.9780627627550400 0.2640702571913398	-0.898447
C	0.6824923449412712 0.1530352370503887 0.6606629620197101	-0.425791
C	0.7562653979127777 0.1521474407066641 0.8016230230872587	0.206099
C	0.7604747725381936 0.1981269253009972 0.9528834066501921	-0.152737
C	0.6900452213794636 0.2611580887268931 0.0112675988770921	-0.145756
C	0.6743448418777631 0.3588251722898638 0.9688547080990649	0.219410
C	0.7283738568908105 0.4207493209419890 0.8630016652496464	-0.425421
C	0.8894219250217098 0.2063475833183870 0.1988951455642558	-0.430087
C	0.8487028043009563 0.1731517794702727 0.0353615940579403	0.218113
C	0.6248123150566428 0.2386605659895616 0.1223699307945457	0.204167
C	0.6037775670010496 0.1479158581660035 0.2079057562942050	-0.428024
C	0.1824923619412688 0.6530352710503842 0.6606629620197101	-0.425788
C	0.2562654319127727 0.6521474747066670 0.8016230230872587	0.206095
C	0.2604748235381950 0.6981269593009927 0.9528834066501921	-0.152737
C	0.1900452553794597 0.7611580887268926 0.0112675988770921	-0.145753
C	0.1743448168777575 0.8588252062898668 0.9688547080990649	0.219412
C	0.2283739068908075 0.9207493549419846 0.8630016652496464	-0.425422
C	0.3894218580217079 0.7063475663183824 0.1988951455642558	-0.430089
C	0.3487028713009585 0.6731517794702729 0.0353615940579403	0.218110
C	0.1248123150566501 0.7386605829895595 0.1223699307945457	0.204167
C	0.1037775080010557 0.6479158751660015 0.2079057562942050	-0.428022
C	0.3185239457954732 0.1538852130223691 0.3405158742299883	-0.423454
C	0.2445935271874818 0.1525015104442271 0.1998131727698887	0.204923
C	0.2400290960036582 0.1979818347775610 0.0466077670127182	-0.152178
C	0.3101653995466113 0.2617269529724379 0.9864863725282413	-0.146342
C	0.3255507606154335 0.3591810764082368 0.0277252128363751	0.216890
C	0.2704998858966821 0.4203216847618271 0.1308364519944454	-0.421720
C	0.1101509327548801 0.2047750376296603 0.8010344528701273	-0.432610
C	0.1516676042264336 0.1723402831384303 0.9656330513510523	0.218982
C	0.3762341762390151 0.2403603034613680 0.8771753878634552	0.205336
C	0.3969525990503401 0.1506155151643862 0.7917799243108176	-0.425845
C	0.8185239787954722 0.6538852470223648 0.3405158742299883	-0.423455
C	0.7445935601874809 0.6525015444442299 0.1998131727698887	0.204923
C	0.7400291300036613 0.6979818687775565 0.0466077670127182	-0.152181
C	0.8101654335466136 0.7617269529724382 0.9864863725282413	-0.146340
C	0.8255507266154379 0.8591811104082401 0.0277252128363751	0.216890
C	0.7704999538966797 0.9203217187618229 0.1308364519944454	-0.421723
C	0.6101508697548789 0.7047750206296551 0.8010344528701273	-0.432608
C	0.6516676552264349 0.6723402831384300 0.9656330513510523	0.218983
C	0.8762341762390153 0.7403603204613656 0.8771753878634552	0.205335
C	0.8969525320503388 0.6506155321643839 0.7917799243108176	-0.425846
H	0.7122815107190598 0.1717597166591719 0.5464902199057731	0.149140
H	0.6285673233988007 0.2061709957938094 0.6795662712122389	0.144084
H	0.6488840845194972 0.0824101096532889 0.6442395967258793	0.132519
H	0.6817006334064510 0.4639654287260373 0.7779064148712287	0.141335
H	0.7730373041519091 0.3767965909185040 0.7926145975833752	0.137759
H	0.7738144556284878 0.4700892438822725 0.9388956182784495	0.127968
H	0.8625512127938385 0.0713372993666283 0.7021590919757992	0.280163
H	0.8902806832129407 0.1496698191392492 0.2923183984647819	0.144310
H	0.8472828136648320 0.2658819029203536 0.2381310009687965	0.132739
H	0.9621214809279763 0.2309266139598513 0.1945564090607359	0.138801
H	0.5806106041480203 0.1627208275735528 0.3284895127856239	0.145153
H	0.6659270798103183 0.1017862081067302 0.2235981914198949	0.151079
H	0.5474406160109748 0.1076288675296460 0.1375509266007544	0.132082
H	0.5257437768398348 0.3332208367956870 0.2154177665169354	0.262424
H	0.2122814767190645 0.6717597166591721 0.5464902199057731	0.149139
H	0.1285673323987974 0.7061709447938087 0.6795662712122389	0.144083
H	0.1488840585194951 0.5824100926532911 0.6442395967258793	0.132521
H	0.1817006674064468 0.9639654627260401 0.7779064148712287	0.141335
H	0.2730373541519053 0.8767966249185067 0.7926145975833752	0.137758
H	0.2738144556284882 0.9700892088822665 0.9388956182784495	0.127968
H	0.3625512797938407 0.5713372903666307 0.7021590919757992	0.280164
H	0.3902806832129410 0.6496698191392488 0.2923183984647819	0.144311
H	0.3472828136648323 0.7658818679203548 0.2381310009687965	0.132740
H	0.4621214809279754 0.7309266309598492 0.1945564090607359	0.138808
H	0.0806105831480220 0.6627208445735502 0.3284895127856239	0.145153
H	0.1659271298103157 0.6017862001067368 0.2235981914198949	0.151080
H	0.0474405780109715 0.6076288155296417 0.1375509266007544	0.132084
H	0.0257437628398334 0.8332208717956866 0.2154177665169354	0.262424
H	0.2889691260624019 0.1725368903585180 0.4542319284563001	0.150165
H	0.3723761028443968 0.2071508341639202 0.3190833454654008	0.140339
H	0.3524072641859862 0.0835309922156731 0.3593944340526142	0.132344
H	0.3165665684764130 0.4648506656675032 0.2135906730441501	0.136773
H	0.2266424327037685 0.3757879809674472 0.2035509251700108	0.137816
H	0.2242101126001622 0.4685308696502623 0.0528893172135464	0.128116
H	0.1397229702992583 0.0703154468966894 0.3035361975261987	0.273445
H	0.1071955536617003 0.1471101056995495 0.7109995986473110	0.147133
H	0.1528436542249908 0.2632708542533698 0.7570500930914719	0.133386
H	0.0381612746527971 0.2307053237923212 0.8065788748947438	0.138643
H	0.4204163711606755 0.1668437278405595 0.6713810827513641	0.145318
H	0.3344773069044089 0.1048465387699530 0.7753804687525410	0.150640
H	0.4528984941020615 0.1093120685277846 0.8621036909889005	0.130893
H	0.4759312867410890 0.3357979015173002 0.7845291094846449	0.269680
H	0.7889691600624053 0.6725368903585183 0.4542319284563001	0.150164
H	0.8723761028443966 0.7071507831639195 0.3190833454654008	0.140337
H	0.8524072311859874 0.5835309752156757 0.3593944340526142	0.132347
H	0.8165666014764118 0.9648506996675056 0.2135906730441501	0.136771
H	0.7266424667037716 0.8757880149674501 0.2035509251700108	0.137819
H	0.7242100956001639 0.9685308346502554 0.0528893172135464	0.128118
H	0.6397230122992612 0.5703154378966923 0.3035361975261987	0.273444
H	0.6071955956617037 0.6471101056995491 0.7109995986473110	0.147136
H	0.6528436712249888 0.7632708192533709 0.7570500930914719	0.133387
H	0.5381612536527990 0.7307053407923193 0.8065788748947438	0.138646
H	0.9204163711606757 0.6668437448405571 0.6713810827513641	0.145319
H	0.8344773749044077 0.6048465307699591 0.7753804687525410	0.150641
H	0.9528984941020610 0.6093120165277806 0.8621036909889005	0.130899
H	0.9759312867410894 0.8357979365172993 0.7845291094846449	0.269682
N	0.8371264200654280 0.1028489040385174 0.8013488530697976	-0.145607
N	0.6036312812903243 0.3931285977327508 0.0475471452128555	-0.259381
N	0.8945803830639757 0.1145690373839833 0.9413644286014118	-0.265812
N	0.5759638754214083 0.3195130502006170 0.1395864070438088	-0.140322
N	0.3371263530654257 0.6028488870385116 0.8013488530697976	-0.145608
N	0.1036312982903218 0.8931286327327500 0.0475471452128555	-0.259381
N	0.3945803490639733 0.6145690713839791 0.9413644286014118	-0.265809
N	0.0759638754214083 0.8195130502006172 0.1395864070438088	-0.140323
N	0.1638604105888022 0.1028164574328171 0.2028184411160044	-0.143952
N	0.3969275398277137 0.3943792157994810 0.9501506094948476	-0.258896
N	0.1061005740276744 0.1137960369134906 0.0624710735029138	-0.264503
N	0.4254270338594546 0.3214804988211020 0.8601192982984510	-0.138899
N	0.6638604105888016 0.6028164404328120 0.2028184411160044	-0.143950
N	0.8969275398277136 0.8943792507994806 0.9501506094948476	-0.258894
N	0.6061005990276730 0.6137960709134868 0.0624710735029138	-0.264502
N	0.9254270338594542 0.8214804988211020 0.8601192982984510	-0.138899
Nb	0.4972854498189656 0.4660021139770282 0.4824889486052422	2.400016
Nb	-0.0027145481810342 0.9660021829770227 0.4824889486052422	2.400015
Fe	0.4997385558566628 0.5082642805746973 0.0064042987571364	0.862718
Fe	-0.0002614441433369 0.0082642845746976 0.0064042987571364	0.862715
	  	
