#======================================================================

# CRYSTAL DATA

#----------------------------------------------------------------------

data_VESTA_phase_1


_pd_phase_name                         NbOFFIVE_5_Fe_i
_cell_length_a                         20.08616
_cell_length_b                         20.08616
_cell_length_c                         15.74476
_cell_angle_alpha                      90
_cell_angle_beta                       90
_cell_angle_gamma                      90
_symmetry_space_group_name_H-M         P 1
_symmetry_Int_Tables_number            1

loop_
_symmetry_equiv_pos_as_xyz
   x, y, z

loop_
   _atom_site_label
   _atom_site_fract_x
   _atom_site_fract_y
   _atom_site_fract_z
   _atom_site_charge
F	0.3236282470522759 0.1873474901943410 0.3448298415809065	-0.593108
F	0.1763717409477230 0.3126525218056528 0.3448298415809065	-0.593107
F	0.3126525218056528 0.3236282470522759 0.3448298415809065	-0.593107
F	0.1873474901943410 0.1763717409477230 0.3448298415809065	-0.593108
F	0.6769782438584259 0.6865305443420155 0.1428457266711961	-0.594033
F	0.8230217561415741 0.8134694556579845 0.1428457266711961	-0.594033
F	0.6865305443420155 0.8230217561415741 0.1428457266711961	-0.594032
F	0.8134694556579845 0.6769782438584259 0.1428457266711961	-0.594034
F	0.6769782438584259 0.8134694556579845 0.6428457416711937	-0.594032
F	0.8230217561415741 0.6865305443420155 0.6428457416711937	-0.594033
F	0.6865305443420155 0.6769782438584259 0.6428457416711937	-0.594032
F	0.8134694556579845 0.8230217561415741 0.6428457416711937	-0.594032
F	0.3236282470522759 0.3126525218056528 0.8448298105809074	-0.593107
F	0.1763717409477230 0.1873474901943410 0.8448298105809074	-0.593108
F	0.3126525218056528 0.1763717409477230 0.8448298105809074	-0.593108
F	0.1873474901943410 0.3236282470522759 0.8448298105809074	-0.593107
F	0.2500000000000000 0.2500000000000000 0.2253301527897864	-0.561646
F	0.7500000000000000 0.7500000000000000 0.0234572638483592	-0.564669
F	0.7500000000000000 0.7500000000000000 0.5234572598483586	-0.564671
F	0.2500000000000000 0.2500000000000000 0.7253301987897833	-0.561649
O	0.2500000000000000 0.2500000000000000 0.4720285338781267	-0.894543
O	0.7500000000000000 0.7500000000000000 0.2701916303708651	-0.902790
O	0.7500000000000000 0.7500000000000000 0.7701915993708659	-0.902789
O	0.2500000000000000 0.2500000000000000 0.9720285338781268	-0.894546
N	0.3593120456197183 0.2478625158714085 0.6016804953140747	-0.182536
N	0.1406879303802867 0.2521375081285937 0.6016804953140747	-0.182533
N	0.2521375081285937 0.3593120456197183 0.6016804953140747	-0.182529
N	0.2478625158714085 0.1406879303802867 0.6016804953140747	-0.182540
N	0.6405734657915509 0.7463412813480147 0.8992289176348156	-0.191336
N	0.8594264862084522 0.7536587186519853 0.8992289176348156	-0.191268
N	0.7463412813480147 0.8594264862084522 0.8992289176348156	-0.191268
N	0.7536587186519853 0.6405734657915509 0.8992289176348156	-0.191337
N	0.6405734657915509 0.7536587186519853 0.3992289176348155	-0.191338
N	0.8594264862084522 0.7463412813480147 0.3992289176348155	-0.191270
N	0.7463412813480147 0.6405734657915509 0.3992289176348155	-0.191339
N	0.7536587186519853 0.8594264862084522 0.3992289176348155	-0.191270
N	0.3593120456197183 0.2521375081285937 0.1016805033140751	-0.182555
N	0.1406879303802867 0.2478625158714085 0.1016805033140751	-0.182544
N	0.2521375081285937 0.1406879303802867 0.1016805033140751	-0.182559
N	0.2478625158714085 0.3593120456197183 0.1016805033140751	-0.182541
C	0.3923160515219548 0.2177891060317426 0.6654984686839944	0.097694
C	0.4614121674971075 0.2163624019683889 0.6696736302282964	-0.179980
C	0.4991950726577927 0.2472698273712945 0.6058698508062940	0.103659
C	0.4640681609467063 0.2781938014051231 0.5395694987733882	-0.183613
C	0.3949276967983588 0.2773773118668988 0.5397663592740737	0.098255
C	0.5724843041734033 0.2478976887728343 0.6087667461391543	0.053994
C	0.6083999226845068 0.1922010803275947 0.6374986880860771	-0.130308
C	0.6775819616599783 0.1929219415211623 0.6395839347551044	-0.124974
C	0.7133355185879140 0.2497721243266258 0.6145102684686259	0.068131
C	0.6774242164871742 0.3057700085650358 0.5868920468532514	-0.119641
C	0.6082848747525358 0.3045990596936834 0.5832894894030827	-0.125866
C	0.1076839604780463 0.2822108699682556 0.6654984686839944	0.097722
C	0.0385878475028901 0.2836376220316058 0.6696736302282964	-0.179988
C	0.0008049353422079 0.2527301726287057 0.6058698508062940	0.103661
C	0.0359318600532917 0.2218061985948770 0.5395694987733882	-0.183610
C	0.1050723272016431 0.2226226881331010 0.5397663592740737	0.098229
C	0.9275156478265998 0.2521023352271607 0.6087667461391543	0.053995
C	0.8916000293154963 0.3077989196724051 0.6374986880860771	-0.130309
C	0.8224180383400217 0.3070780704788386 0.6395839347551044	-0.124974
C	0.7866644814120860 0.2502278996733689 0.6145102684686259	0.068125
C	0.8225757835128258 0.1942300034349653 0.5868920468532514	-0.119641
C	0.8917151252474642 0.1954009163063145 0.5832894894030827	-0.125866
C	0.2822108699682556 0.3923160515219548 0.6654984686839944	0.097723
C	0.2836376220316058 0.4614121674971075 0.6696736302282964	-0.179988
C	0.2527301726287057 0.4991950726577927 0.6058698508062940	0.103660
C	0.2218061985948770 0.4640681609467063 0.5395694987733882	-0.183610
C	0.2226226881331010 0.3949276967983588 0.5397663592740737	0.098229
C	0.2521023352271607 0.5724843041734033 0.6087667461391543	0.053995
C	0.3077989196724051 0.6083999226845068 0.6374986880860771	-0.130308
C	0.3070780704788386 0.6775819616599783 0.6395839347551044	-0.124974
C	0.2502278996733689 0.7133355185879140 0.6145102684686259	0.068132
C	0.1942300034349653 0.6774242164871742 0.5868920468532514	-0.119641
C	0.1954009163063145 0.6082848747525358 0.5832894894030827	-0.125866
C	0.2177891060317426 0.1076839604780463 0.6654984686839944	0.097695
C	0.2163624019683889 0.0385878475028901 0.6696736302282964	-0.179980
C	0.2472698273712945 0.0008049353422079 0.6058698508062940	0.103660
C	0.2781938014051231 0.0359318600532917 0.5395694987733882	-0.183613
C	0.2773773118668988 0.1050723272016431 0.5397663592740737	0.098257
C	0.2478976887728343 0.9275156478265998 0.6087667461391543	0.053994
C	0.1922010803275947 0.8916000293154963 0.6374986880860771	-0.130310
C	0.1929219415211623 0.8224180383400217 0.6395839347551044	-0.124974
C	0.2497721243266258 0.7866644814120860 0.6145102684686259	0.068124
C	0.3057700085650358 0.8225757835128258 0.5868920468532514	-0.119641
C	0.3045990596936834 0.8917151252474642 0.5832894894030827	-0.125867
C	0.6072206192009014 0.7164770001839463 0.8355809973690882	0.099947
C	0.5381698407244342 0.7157631684317959 0.8310767771576584	-0.182360
C	0.5006084881789198 0.7471763026122226 0.8947551355581361	0.102681
C	0.5360223122554342 0.7778400052490405 0.9610199007382656	-0.181936
C	0.6052195387606838 0.7763306710934217 0.9610507439618918	0.099844
C	0.4273100338918157 0.7480910427352360 0.8917455064201774	0.056156
C	0.3914962417238437 0.6923351837040794 0.8629140087443219	-0.130663
C	0.3223454560767130 0.6930043502601284 0.8607734628107441	-0.124532
C	0.2866124395227420 0.7498276963641672 0.8858766447027507	0.067634
C	0.3223948943263439 0.8058851435892603 0.9135273201872336	-0.119292
C	0.3915140278372311 0.8047902471084177 0.9172201479748162	-0.126862
C	0.8927793337990982 0.7835229998160537 0.8355809973690882	0.099896
C	0.9618301592755658 0.7842368315682041 0.8310767771576584	-0.182349
C	0.9993915118210802 0.7528236973877774 0.8947551355581361	0.102675
C	0.9639776877445658 0.7221599947509595 0.9610199007382656	-0.181924
C	0.8947804612393162 0.7236693289065783 0.9610507439618918	0.099779
C	0.0726899661081844 0.7519089572647640 0.8917455064201774	0.056157
C	0.1085037342761613 0.8076648642959174 0.8629140087443219	-0.130662
C	0.1776545439232871 0.8069956977398756 0.8607734628107441	-0.124531
C	0.2133875604772579 0.7501723036358328 0.8858766447027507	0.067628
C	0.1776051296736580 0.6941149044107436 0.9135273201872336	-0.119291
C	0.1084859721627689 0.6952098008915791 0.9172201479748162	-0.126861
C	0.7164770001839463 0.8927793337990982 0.8355809973690882	0.099897
C	0.7157631684317959 0.9618301592755658 0.8310767771576584	-0.182351
C	0.7471763026122226 0.9993915118210802 0.8947551355581361	0.102676
C	0.7778400052490405 0.9639776877445658 0.9610199007382656	-0.181922
C	0.7763306710934217 0.8947804612393162 0.9610507439618918	0.099780
C	0.7480910427352360 0.0726899661081844 0.8917455064201774	0.056157
C	0.6923351837040794 0.1085037342761613 0.8629140087443219	-0.130662
C	0.6930043502601284 0.1776545439232871 0.8607734628107441	-0.124532
C	0.7498276963641672 0.2133875604772579 0.8858766447027507	0.067634
C	0.8058851435892603 0.1776051296736580 0.9135273201872336	-0.119292
C	0.8047902471084177 0.1084859721627689 0.9172201479748162	-0.126861
C	0.7835229998160537 0.6072206192009014 0.8355809973690882	0.099949
C	0.7842368315682041 0.5381698407244342 0.8310767771576584	-0.182359
C	0.7528236973877774 0.5006084881789198 0.8947551355581361	0.102681
C	0.7221599947509595 0.5360223122554342 0.9610199007382656	-0.181937
C	0.7236693289065783 0.6052195387606838 0.9610507439618918	0.099844
C	0.7519089572647640 0.4273100338918157 0.8917455064201774	0.056156
C	0.8076648642959174 0.3914962417238437 0.8629140087443219	-0.130663
C	0.8069956977398756 0.3223454560767130 0.8607734628107441	-0.124531
C	0.7501723036358328 0.2866124395227420 0.8858766447027507	0.067628
C	0.6941149044107436 0.3223948943263439 0.9135273201872336	-0.119291
C	0.6952098008915791 0.3915140278372311 0.9172201479748162	-0.126862
C	0.6072206192009014 0.7835229998160537 0.3355810293690905	0.099947
C	0.5381698407244342 0.7842368315682041 0.3310767461576594	-0.182360
C	0.5006084881789198 0.7528236973877774 0.3947551975581342	0.102681
C	0.5360223122554342 0.7221599947509595 0.4610198697382665	-0.181938
C	0.6052195387606838 0.7236693289065783 0.4610507439618916	0.099844
C	0.4273100338918157 0.7519089572647640 0.3917455374201768	0.056156
C	0.3914962417238437 0.8076648642959174 0.3629140717443234	-0.130663
C	0.3223454560767130 0.8069956977398756 0.3607734628107439	-0.124532
C	0.2866124395227420 0.7501723036358328 0.3858766447027510	0.067633
C	0.3223948943263439 0.6941149044107436 0.4135273201872335	-0.119292
C	0.3915140278372311 0.6952098008915791 0.4172201789748224	-0.126862
C	0.8927793337990982 0.7164770001839463 0.3355810293690905	0.099897
C	0.9618301592755658 0.7157631684317958 0.3310767461576594	-0.182352
C	0.9993915118210802 0.7471763026122226 0.3947551975581342	0.102675
C	0.9639776877445658 0.7778400052490405 0.4610198697382665	-0.181923
C	0.8947804612393162 0.7763306710934217 0.4610507439618916	0.099779
C	0.0726899661081844 0.7480910427352360 0.3917455374201768	0.056157
C	0.1085037342761613 0.6923351837040794 0.3629140717443234	-0.130663
C	0.1776545439232871 0.6930043502601284 0.3607734628107439	-0.124531
C	0.2133875604772579 0.7498276963641672 0.3858766447027510	0.067627
C	0.1776051296736580 0.8058851435892603 0.4135273201872335	-0.119290
C	0.1084859721627689 0.8047902471084177 0.4172201789748224	-0.126862
C	0.7164770001839463 0.6072206192009014 0.3355810293690905	0.099948
C	0.7157631684317959 0.5381698407244342 0.3310767461576594	-0.182361
C	0.7471763026122226 0.5006084881789198 0.3947551975581342	0.102680
C	0.7778400052490405 0.5360223122554342 0.4610198697382665	-0.181937
C	0.7763306710934217 0.6052195387606838 0.4610507439618916	0.099845
C	0.7480910427352360 0.4273100338918157 0.3917455374201768	0.056156
C	0.6923351837040794 0.3914962417238437 0.3629140717443234	-0.130664
C	0.6930043502601284 0.3223454560767130 0.3607734628107439	-0.124532
C	0.7498276963641672 0.2866124395227420 0.3858766447027510	0.067633
C	0.8058851435892603 0.3223948943263439 0.4135273201872335	-0.119291
C	0.8047902471084177 0.3915140278372311 0.4172201789748224	-0.126863
C	0.7835229998160537 0.8927793337990982 0.3355810293690905	0.099897
C	0.7842368315682041 0.9618301592755658 0.3310767461576594	-0.182351
C	0.7528236973877774 0.9993915118210802 0.3947551975581342	0.102675
C	0.7221599947509595 0.9639776877445658 0.4610198697382665	-0.181924
C	0.7236693289065783 0.8947804612393162 0.4610507439618916	0.099779
C	0.7519089572647640 0.0726899661081844 0.3917455374201768	0.056157
C	0.8076648642959174 0.1085037342761613 0.3629140717443234	-0.130662
C	0.8069956977398756 0.1776545439232871 0.3607734628107439	-0.124531
C	0.7501723036358328 0.2133875604772579 0.3858766447027510	0.067628
C	0.6941149044107436 0.1776051296736580 0.4135273201872335	-0.119290
C	0.6952098008915791 0.1084859721627689 0.4172201789748224	-0.126862
C	0.3923160515219548 0.2822108699682556 0.1654984686839943	0.097770
C	0.4614121674971075 0.2836376220316058 0.1696736612282956	-0.179997
C	0.4991950726577927 0.2527301726287057 0.1058697968063039	0.103673
C	0.4640681609467063 0.2218061985948770 0.0395695227733902	-0.183616
C	0.3949276967983588 0.2226226881331010 0.0397663822740719	0.098216
C	0.5724843041734033 0.2521023352271607 0.1087667151391552	0.053991
C	0.6083999226845068 0.3077989196724051 0.1374986410860765	-0.130308
C	0.6775819616599783 0.3070780704788386 0.1395839507551057	-0.124975
C	0.7133355185879140 0.2502278996733689 0.1145102764686267	0.068130
C	0.6774242164871742 0.1942300034349653 0.0868920698532496	-0.119643
C	0.6082848747525358 0.1954009163063145 0.0832894654030808	-0.125866
C	0.1076839604780463 0.2177891060317426 0.1654984686839943	0.097713
C	0.0385878475028901 0.2163624019683889 0.1696736612282956	-0.179984
C	0.0008049353422079 0.2472698273712945 0.1058697968063039	0.103673
C	0.0359318600532917 0.2781938014051231 0.0395695227733902	-0.183619
C	0.1050723272016431 0.2773773118668988 0.0397663822740719	0.098247
C	0.9275156478265998 0.2478976887728343 0.1087667151391552	0.053991
C	0.8916000293154963 0.1922010803275947 0.1374986410860765	-0.130309
C	0.8224180383400217 0.1929219415211623 0.1395839507551057	-0.124975
C	0.7866644814120860 0.2497721243266258 0.1145102764686267	0.068124
C	0.8225757835128258 0.3057700085650358 0.0868920698532496	-0.119642
C	0.8917151252474642 0.3045990596936834 0.0832894654030808	-0.125868
C	0.2822108699682556 0.1076839604780463 0.1654984686839943	0.097772
C	0.2836376220316058 0.0385878475028901 0.1696736612282956	-0.179997
C	0.2527301726287057 0.0008049353422079 0.1058697968063039	0.103674
C	0.2218061985948770 0.0359318600532917 0.0395695227733902	-0.183615
C	0.2226226881331010 0.1050723272016431 0.0397663822740719	0.098217
C	0.2521023352271607 0.9275156478265998 0.1087667151391552	0.053991
C	0.3077989196724051 0.8916000293154963 0.1374986410860765	-0.130309
C	0.3070780704788386 0.8224180383400217 0.1395839507551057	-0.124975
C	0.2502278996733689 0.7866644814120860 0.1145102764686267	0.068130
C	0.1942300034349653 0.8225757835128258 0.0868920698532496	-0.119643
C	0.1954009163063145 0.8917151252474642 0.0832894654030808	-0.125867
C	0.2177891060317426 0.3923160515219548 0.1654984686839943	0.097712
C	0.2163624019683889 0.4614121674971075 0.1696736612282956	-0.179984
C	0.2472698273712945 0.4991950726577927 0.1058697968063039	0.103672
C	0.2781938014051231 0.4640681609467063 0.0395695227733902	-0.183620
C	0.2773773118668988 0.3949276967983588 0.0397663822740719	0.098248
C	0.2478976887728343 0.5724843041734033 0.1087667151391552	0.053991
C	0.1922010803275947 0.6083999226845068 0.1374986410860765	-0.130308
C	0.1929219415211623 0.6775819616599783 0.1395839507551057	-0.124974
C	0.2497721243266258 0.7133355185879140 0.1145102764686267	0.068124
C	0.3057700085650358 0.6774242164871742 0.0868920698532496	-0.119642
C	0.3045990596936834 0.6082848747525358 0.0832894654030808	-0.125867
H	0.3619448671659893 0.1952393193670569 0.7152831585163981	0.101775
H	0.4855377664072386 0.1927446881083880 0.7238653978701367	0.114100
H	0.4904084778511226 0.3017889384460639 0.4870645726932795	0.114307
H	0.3664311324825366 0.3005036871848666 0.4886063843503203	0.096987
H	0.5815533153886772 0.1474964293629606 0.6568636892443280	0.099244
H	0.7046400510712912 0.1492980916307980 0.6621302583037905	0.101378
H	0.7042821115681326 0.3499038894265060 0.5655858752710361	0.102062
H	0.5814233501780801 0.3485636449218068 0.5614899598392442	0.103418
H	0.1380551448340117 0.3047606806329431 0.7152831585163981	0.101771
H	0.0144622635927640 0.3072552878916100 0.7238653978701367	0.114099
H	0.0095915251488740 0.1982110615539364 0.4870645726932795	0.114308
H	0.1335688555174624 0.1994963128151335 0.4886063843503203	0.096990
H	0.9184466366113260 0.3525035826370405 0.6568636892443280	0.099244
H	0.7953599489287088 0.3507018963692011 0.6621302583037905	0.101377
H	0.7957178884318674 0.1500961105734940 0.5655858752710361	0.102059
H	0.9185766498219199 0.1514363550781934 0.5614899598392442	0.103417
H	0.3047606806329431 0.3619448671659893 0.7152831585163981	0.101771
H	0.3072552878916100 0.4855377664072386 0.7238653978701367	0.114099
H	0.1982110615539364 0.4904084778511226 0.4870645726932795	0.114308
H	0.1994963128151335 0.3664311324825366 0.4886063843503203	0.096990
H	0.3525035826370405 0.5815533153886772 0.6568636892443280	0.099244
H	0.3507018963692011 0.7046400510712912 0.6621302583037905	0.101378
H	0.1500961105734940 0.7042821115681326 0.5655858752710361	0.102061
H	0.1514363550781934 0.5814233501780801 0.5614899598392442	0.103418
H	0.1952393193670569 0.1380551448340117 0.7152831585163981	0.101775
H	0.1927446881083880 0.0144622635927640 0.7238653978701367	0.114100
H	0.3017889384460639 0.0095915251488740 0.4870645726932795	0.114308
H	0.3005036871848666 0.1335688555174624 0.4886063843503203	0.096987
H	0.1474964293629606 0.9184466366113260 0.6568636892443280	0.099243
H	0.1492980916307980 0.7953599489287088 0.6621302583037905	0.101376
H	0.3499038894265060 0.7957178884318674 0.5655858752710361	0.102060
H	0.3485636449218068 0.9185766498219199 0.5614899598392442	0.103419
H	0.6374702181155238 0.6933918104581904 0.7860998076584856	0.096047
H	0.5138593646922014 0.6923384927416945 0.7768636821642204	0.114012
H	0.5098611251545556 0.8018003150882520 0.0134269175790385	0.113928
H	0.6338867971700217 0.7991526965370969 0.0122427278679168	0.100926
H	0.4184843664441669 0.6476913856735391 0.8435488893575360	0.099323
H	0.2953955260172203 0.6493599411955625 0.8381634354744217	0.101526
H	0.2955655019016481 0.8500367787496205 0.9347559623151476	0.101858
H	0.4184546648582801 0.8487477106776810 0.9390200535742820	0.103518
H	0.8625298288844765 0.8066082375418135 0.7860998076584856	0.096055
H	0.9861406353077986 0.8076615072583055 0.7768636821642204	0.114010
H	0.9901388278454440 0.6981996849117480 0.0134269175790385	0.113926
H	0.8661131548299814 0.7008473034629031 0.0122427278679168	0.100936
H	0.0815156575558281 0.8523086143264609 0.8435488893575360	0.099324
H	0.2046044739827799 0.8506400588044375 0.8381634354744217	0.101525
H	0.2044344980983519 0.6499631732503756 0.9347559623151476	0.101856
H	0.0815453471417209 0.6512522413223151 0.9390200535742820	0.103518
H	0.6933918104581904 0.8625298288844765 0.7860998076584856	0.096056
H	0.6923384927416945 0.9861406353077986 0.7768636821642204	0.114011
H	0.8018003150882520 0.9901388278454440 0.0134269175790385	0.113925
H	0.7991526965370969 0.8661131548299814 0.0122427278679168	0.100936
H	0.6476913856735391 0.0815156575558281 0.8435488893575360	0.099323
H	0.6493599411955625 0.2046044739827799 0.8381634354744217	0.101526
H	0.8500367787496205 0.2044344980983519 0.9347559623151476	0.101858
H	0.8487477106776810 0.0815453471417209 0.9390200535742820	0.103519
H	0.8066082375418135 0.6374702181155238 0.7860998076584856	0.096046
H	0.8076615072583055 0.5138593646922014 0.7768636821642204	0.114012
H	0.6981996849117480 0.5098611251545556 0.0134269175790385	0.113929
H	0.7008473034629031 0.6338867971700217 0.0122427278679168	0.100926
H	0.8523086143264609 0.4184843664441669 0.8435488893575360	0.099324
H	0.8506400588044375 0.2953955260172203 0.8381634354744217	0.101525
H	0.6499631732503756 0.2955655019016481 0.9347559623151476	0.101856
H	0.6512522413223151 0.4184546648582801 0.9390200535742820	0.103518
H	0.6374702181155238 0.8066082375418135 0.2860997766584867	0.096047
H	0.5138593646922014 0.8076615072583055 0.2768636821642203	0.114014
H	0.5098611251545556 0.6981996849117480 0.5134269365790440	0.113931
H	0.6338867971700217 0.7008473034629031 0.5122426988679180	0.100926
H	0.4184843664441669 0.8523086143264609 0.3435488893575360	0.099324
H	0.2953955260172203 0.8506400588044375 0.3381634664744281	0.101526
H	0.2955655019016481 0.6499631732503756 0.4347559623151474	0.101857
H	0.4184546648582801 0.6512522413223151 0.4390201155742803	0.103519
H	0.8625298288844765 0.6933918104581904 0.2860997766584867	0.096056
H	0.9861406353077986 0.6923384927416945 0.2768636821642203	0.114014
H	0.9901388278454440 0.8018003150882520 0.5134269365790440	0.113928
H	0.8661131548299814 0.7991526965370969 0.5122426988679180	0.100936
H	0.0815156575558281 0.6476913856735391 0.3435488893575360	0.099324
H	0.2046044739827799 0.6493599411955625 0.3381634664744281	0.101525
H	0.2044344980983519 0.8500367787496205 0.4347559623151474	0.101857
H	0.0815453471417209 0.8487477106776810 0.4390201155742803	0.103520
H	0.6933918104581904 0.6374702181155238 0.2860997766584867	0.096047
H	0.6923384927416945 0.5138593646922014 0.2768636821642203	0.114015
H	0.8018003150882520 0.5098611251545556 0.5134269365790440	0.113930
H	0.7991526965370969 0.6338867971700217 0.5122426988679180	0.100925
H	0.6476913856735391 0.4184843664441669 0.3435488893575360	0.099324
H	0.6493599411955625 0.2953955260172203 0.3381634664744281	0.101526
H	0.8500367787496205 0.2955655019016481 0.4347559623151474	0.101857
H	0.8487477106776810 0.4184546648582801 0.4390201155742803	0.103520
H	0.8066082375418135 0.8625298288844765 0.2860997766584867	0.096056
H	0.8076615072583055 0.9861406353077986 0.2768636821642203	0.114013
H	0.6981996849117480 0.9901388278454440 0.5134269365790440	0.113929
H	0.7008473034629031 0.8661131548299814 0.5122426988679180	0.100936
H	0.8523086143264609 0.0815156575558281 0.3435488893575360	0.099325
H	0.8506400588044375 0.2046044739827799 0.3381634664744281	0.101525
H	0.6499631732503756 0.2044344980983519 0.4347559623151474	0.101856
H	0.6512522413223151 0.0815453471417209 0.4390201155742803	0.103519
H	0.3619448671659893 0.3047606806329431 0.2152831895163972	0.101767
H	0.4855377664072386 0.3072552878916100 0.2238653828701388	0.114103
H	0.4904084778511226 0.1982110615539364 0.9870645416932732	0.114304
H	0.3664311324825366 0.1994963128151335 0.9886063843503203	0.096991
H	0.5815533153886772 0.3525035826370405 0.1568636892443279	0.099244
H	0.7046400510712912 0.3507018963692011 0.1621302423037886	0.101378
H	0.7042821115681326 0.1500961105734940 0.0655858832710366	0.102061
H	0.5814233501780801 0.1514363550781934 0.0614899128392507	0.103420
H	0.1380551448340117 0.1952393193670569 0.2152831895163972	0.101775
H	0.0144622635927640 0.1927446881083880 0.2238653828701388	0.114102
H	0.0095915251488740 0.3017889384460639 0.9870645416932732	0.114305
H	0.1335688555174624 0.3005036871848666 0.9886063843503203	0.096987
H	0.9184466366113260 0.1474964293629606 0.1568636892443279	0.099243
H	0.7953599489287088 0.1492980916307980 0.1621302423037886	0.101376
H	0.7957178884318674 0.3499038894265060 0.0655858832710366	0.102060
H	0.9185766498219199 0.3485636449218068 0.0614899128392507	0.103419
H	0.3047606806329431 0.1380551448340117 0.2152831895163972	0.101767
H	0.3072552878916100 0.0144622635927640 0.2238653828701388	0.114103
H	0.1982110615539364 0.0095915251488740 0.9870645416932732	0.114305
H	0.1994963128151335 0.1335688555174624 0.9886063843503203	0.096991
H	0.3525035826370405 0.9184466366113260 0.1568636892443279	0.099244
H	0.3507018963692011 0.7953599489287088 0.1621302423037886	0.101377
H	0.1500961105734940 0.7957178884318674 0.0655858832710366	0.102061
H	0.1514363550781934 0.9185766498219199 0.0614899128392507	0.103419
H	0.1952393193670569 0.3619448671659893 0.2152831895163972	0.101775
H	0.1927446881083880 0.4855377664072386 0.2238653828701388	0.114102
H	0.3017889384460639 0.4904084778511226 0.9870645416932732	0.114304
H	0.3005036871848666 0.3664311324825366 0.9886063843503203	0.096987
H	0.1474964293629606 0.5815533153886772 0.1568636892443279	0.099243
H	0.1492980916307980 0.7046400510712912 0.1621302423037886	0.101376
H	0.3499038894265060 0.7042821115681326 0.0655858832710366	0.102061
H	0.3485636449218068 0.5814233501780801 0.0614899128392507	0.103420
Fe	0.2500000000000000 0.2500000000000000 0.5978723377402162	0.562667
Fe	0.7500000000000000 0.7500000000000000 0.8961975955606900	0.598136
Fe	0.7500000000000000 0.7500000000000000 0.3961975955606902	0.598140
Fe	0.2500000000000000 0.2500000000000000 0.0978723457402169	0.562659
Nb	0.2500000000000000 0.2500000000000000 0.3583126086065254	2.434167
Nb	0.7500000000000000 0.7500000000000000 0.1563884176974855	2.443275
Nb	0.7500000000000000 0.7500000000000000 0.6563884176974858	2.443275
Nb	0.2500000000000000 0.2500000000000000 0.8583126396065246	2.434169
	  	
