#======================================================================

# CRYSTAL DATA

#----------------------------------------------------------------------

data_VESTA_phase_1


_pd_phase_name                         NbOFFIVE_3_Cu
_cell_length_a                         13.88591
_cell_length_b                         13.88591
_cell_length_c                         8.17520
_cell_angle_alpha                      90
_cell_angle_beta                       90
_cell_angle_gamma                      90
_symmetry_space_group_name_H-M         P 1
_symmetry_Int_Tables_number            1

loop_
_symmetry_equiv_pos_as_xyz
   x, y, z

loop_
   _atom_site_label
   _atom_site_fract_x
   _atom_site_fract_y
   _atom_site_fract_z
   _atom_site_charge
C	0.2708863964802619 0.4499174021616719 0.6348426267103789	0.068622
C	0.2291135865197404 0.0500826028383320 0.6348426267103789	0.068622
C	0.2298644546371006 0.4497950768257752 0.3618648228868332	0.070705
C	0.2701355283629014 0.0502049281742289 0.3618648228868332	0.070705
C	0.0502049281742289 0.2701355283629014 0.3618648228868332	0.070706
C	0.4497950768257752 0.2298644546371006 0.3618648228868332	0.070706
C	0.4499174021616719 0.2708863964802619 0.6348426267103789	0.068628
C	0.0500826028383320 0.2291135865197404 0.6348426267103789	0.068628
C	0.9499174361616679 0.2291135865197404 0.6348426267103789	0.068636
C	0.5500825638383321 0.2708863964802619 0.6348426267103789	0.068636
C	0.5502048891742295 0.2298644546371006 0.3618648228868332	0.070717
C	0.9497951108257705 0.2701355283629014 0.3618648228868332	0.070717
C	0.7298644376370954 0.0502049281742289 0.3618648228868332	0.070706
C	0.7701355623629046 0.4497950768257752 0.3618648228868332	0.070706
C	0.7708864304802646 0.0500826028383320 0.6348426267103789	0.068628
C	0.7291135695197354 0.4499174021616719 0.6348426267103789	0.068628
C	0.4499174021616719 0.7291135695197354 0.6348426267103789	0.068623
C	0.0500826028383320 0.7708864304802646 0.6348426267103789	0.068623
C	0.0502049281742289 0.7298644376370954 0.3618648228868332	0.070706
C	0.4497950768257752 0.7701355623629046 0.3618648228868332	0.070706
C	0.2298644546371006 0.5502048891742295 0.3618648228868332	0.070718
C	0.2701355283629014 0.9497951108257705 0.3618648228868332	0.070718
C	0.2708863964802619 0.5500825638383321 0.6348426267103789	0.068641
C	0.2291135865197404 0.9499174361616679 0.6348426267103789	0.068641
C	0.7708864304802646 0.9499174361616679 0.6348426267103789	0.068636
C	0.7291135695197354 0.5500825638383321 0.6348426267103789	0.068636
C	0.7298644376370954 0.9497951108257705 0.3618648228868332	0.070717
C	0.7701355623629046 0.5502048891742295 0.3618648228868332	0.070717
C	0.5502048891742295 0.7701355623629046 0.3618648228868332	0.070718
C	0.9497951108257705 0.7298644376370954 0.3618648228868332	0.070718
C	0.9499174361616679 0.7708864304802646 0.6348426267103789	0.068641
C	0.5500825638383321 0.7291135695197354 0.6348426267103789	0.068641
H	0.2868257055235530 0.4097082697770793 0.7458026592246025	0.109710
H	0.2131743114764519 0.0902917392229179 0.7458026592246025	0.109710
H	0.2136853205866719 0.4097666623240145 0.2506244328937570	0.116557
H	0.2863146964133329 0.0902333466759827 0.2506244328937570	0.116557
H	0.0902333466759827 0.2863146964133329 0.2506244328937570	0.116557
H	0.4097666623240145 0.2136853205866719 0.2506244328937570	0.116557
H	0.4097082697770793 0.2868257055235530 0.7458026592246025	0.109708
H	0.0902917392229179 0.2131743114764519 0.7458026592246025	0.109708
H	0.9097082357770836 0.2131743114764519 0.7458026592246025	0.109706
H	0.5902917642229164 0.2868257055235530 0.7458026592246025	0.109706
H	0.5902333716759811 0.2136853205866719 0.2506244328937570	0.116554
H	0.9097666283240189 0.2863146964133329 0.2506244328937570	0.116554
H	0.7136852695866711 0.0902333466759827 0.2506244328937570	0.116557
H	0.7863147304133289 0.4097666623240145 0.2506244328937570	0.116557
H	0.7868257395235490 0.0902917392229179 0.7458026592246025	0.109709
H	0.7131742604764510 0.4097082697770793 0.7458026592246025	0.109709
H	0.4097082697770793 0.7131742604764510 0.7458026592246025	0.109710
H	0.0902917392229179 0.7868257395235490 0.7458026592246025	0.109710
H	0.0902333466759827 0.7136852695866711 0.2506244328937570	0.116557
H	0.4097666623240145 0.7863147304133289 0.2506244328937570	0.116557
H	0.2136853205866719 0.5902333716759811 0.2506244328937570	0.116553
H	0.2863146964133329 0.9097666283240189 0.2506244328937570	0.116553
H	0.2868257055235530 0.5902917642229164 0.7458026592246025	0.109705
H	0.2131743114764519 0.9097082357770836 0.7458026592246025	0.109704
H	0.7868257395235490 0.9097082357770836 0.7458026592246025	0.109706
H	0.7131742604764510 0.5902917642229164 0.7458026592246025	0.109706
H	0.7136852695866711 0.9097666283240189 0.2506244328937570	0.116554
H	0.7863147304133289 0.5902333716759811 0.2506244328937570	0.116554
H	0.5902333716759811 0.7863147304133289 0.2506244328937570	0.116553
H	0.9097666283240189 0.7136852695866711 0.2506244328937570	0.116553
H	0.9097082357770836 0.7868257395235490 0.7458026592246025	0.109705
H	0.5902917642229164 0.7131742604764510 0.7458026592246025	0.109705
Cu	0.2500000000000000 0.2500000000000000 0.5047698046393532	0.753837
Cu	0.7500000340000028 0.2500000000000000 0.5047698046393532	0.753838
Cu	0.2500000000000000 0.7500000340000028 0.5047698046393532	0.753838
Cu	0.7500000340000028 0.7500000340000028 0.5047698046393532	0.753838
Nb	0.2500000000000000 0.2500000000000000 -0.0161399561064265	2.424082
Nb	0.7500000340000028 0.2500000000000000 -0.0161399561064265	2.424079
Nb	0.2500000000000000 0.7500000340000028 -0.0161399561064265	2.424079
Nb	0.7500000340000028 0.7500000340000028 -0.0161399561064265	2.424076
O	0.2500000000000000 0.2500000000000000 0.7641291827288598	-0.982382
O	0.7500000340000028 0.2500000000000000 0.7641291827288598	-0.982382
O	0.2500000000000000 0.7500000340000028 0.7641291827288598	-0.982382
O	0.7500000340000028 0.7500000340000028 0.7641291827288597	-0.982381
F	0.2500000000000000 0.2500000000000000 0.2402165967028936	-0.653044
F	0.3490878009936588 0.3490878009936588 0.0032620897871691	-0.574016
F	0.1509121990063410 0.1509121990063410 0.0032620897871691	-0.574016
F	0.1514302962445960 0.3485697037554040 0.0170562241489553	-0.570138
F	0.3485697037554040 0.1514302962445960 0.0170562241489553	-0.570138
F	0.7500000340000028 0.2500000000000000 0.2402165967028936	-0.653044
F	0.8485696697554083 0.3485697037554040 0.0170562241489553	-0.570141
F	0.6514303302445917 0.1514302962445960 0.0170562241489553	-0.570141
F	0.6509122330063365 0.3490878009936588 0.0032620897871691	-0.574021
F	0.8490877669936635 0.1509121990063410 0.0032620897871691	-0.574021
F	0.2500000000000000 0.7500000340000028 0.2402165967028936	-0.653044
F	0.3485697037554040 0.8485696697554083 0.0170562241489553	-0.570141
F	0.1514302962445960 0.6514303302445917 0.0170562241489553	-0.570141
F	0.1509121990063410 0.8490877669936635 0.0032620897871691	-0.574021
F	0.3490878009936588 0.6509122330063365 0.0032620897871691	-0.574021
F	0.7500000340000028 0.7500000340000028 0.2402165967028936	-0.653043
F	0.8490877669936635 0.8490877669936635 0.0032620897871691	-0.574025
F	0.6509122330063365 0.6509122330063365 0.0032620897871691	-0.574025
F	0.6514303302445917 0.8485696697554083 0.0170562241489553	-0.570144
F	0.8485696697554083 0.6514303302445917 0.0170562241489553	-0.570144
N	0.3999133655301591 0.2501921113164016 0.4984623983252017	-0.179147
N	0.1000866264698403 0.2498078886835985 0.4984623983252017	-0.179148
N	0.2501921113164016 0.3999133655301591 0.4984623983252017	-0.179145
N	0.2498078886835985 0.1000866264698403 0.4984623983252017	-0.179145
N	0.8999133995301617 0.2498078886835985 0.4984623983252017	-0.179150
N	0.6000866004698383 0.2501921113164016 0.4984623983252017	-0.179149
N	0.7498079226836015 0.3999133655301591 0.4984623983252017	-0.179146
N	0.7501921453164041 0.1000866264698403 0.4984623983252017	-0.179146
N	0.3999133655301592 0.7498079226836015 0.4984623983252017	-0.179147
N	0.1000866264698403 0.7501921453164041 0.4984623983252017	-0.179147
N	0.2498078886835985 0.8999133995301617 0.4984623983252017	-0.179149
N	0.2501921113164016 0.6000866004698383 0.4984623983252017	-0.179149
N	0.8999133995301617 0.7501921453164041 0.4984623983252017	-0.179150
N	0.6000866004698383 0.7498079226836015 0.4984623983252017	-0.179150
N	0.7501921453164041 0.8999133995301617 0.4984623983252017	-0.179148
N	0.7498079226836015 0.6000866004698383 0.4984623983252017	-0.179148
	  	
