#======================================================================

# CRYSTAL DATA

#----------------------------------------------------------------------

data_VESTA_phase_1


_pd_phase_name                         NbOFFIVE_4_Co_i
_cell_length_a                         23.16735
_cell_length_b                         20.23234
_cell_length_c                         9.65879
_cell_angle_alpha                      90
_cell_angle_beta                       90
_cell_angle_gamma                      90
_symmetry_space_group_name_H-M         P 1
_symmetry_Int_Tables_number            1

loop_
_symmetry_equiv_pos_as_xyz
   x, y, z

loop_
   _atom_site_label
   _atom_site_fract_x
   _atom_site_fract_y
   _atom_site_fract_z
   _atom_site_charge
C	0.4199452337957268 0.5976128101793136 0.6310097939428859	0.087922
C	0.3757875331047447 0.5514091304789572 0.6275425782178731	-0.165605
C	0.2776799421997102 0.4486421261383289 0.6258161321813058	-0.115881
C	0.2307332491898827 0.4060443911676327 0.6253376464841751	-0.112870
C	0.1284101502315469 0.3175459725773337 0.6262241238779150	-0.164290
C	0.0816705235079192 0.2747304259057115 0.6304483179544845	0.085386
C	0.9199452757957229 0.0976128101793135 0.6310097939428859	0.087921
C	0.8757875751047479 0.0514091244789567 0.6275425782178731	-0.165605
C	0.7776799631997084 0.9486421721383336 0.6258161321813058	-0.115891
C	0.7307332691898843 0.9060444371676297 0.6253376464841751	-0.112869
C	0.6284101502315469 0.8175459725773335 0.6262241238779150	-0.164287
C	0.5816705185079153 0.7747304729057113 0.6304483179544845	0.085385
C	0.5800547662042734 0.4023871898206865 0.1310097549428862	0.087922
C	0.6242124668952556 0.4485908695210428 0.1275425622178720	-0.165606
C	0.7223200368002916 0.5513578738616702 0.1258161631813046	-0.115891
C	0.7692667308101157 0.5939556088323670 0.1253376924841720	-0.112869
C	0.8715898907684529 0.6824539804226661 0.1262241388779199	-0.164319
C	0.9183295234920811 0.7252695270942887 0.1304483339544859	0.085383
C	0.0800547712042773 0.9023871438206897 0.1310097549428862	0.087922
C	0.1242124458952503 0.9485908235210461 0.1275425622178720	-0.165606
C	0.2223200368002917 0.0513578688616668 0.1258161631813046	-0.115891
C	0.2692667508101174 0.0939555968323735 0.1253376924841720	-0.112869
C	0.3715898497684531 0.1824540274226663 0.1262241388779199	-0.164290
C	0.4183294814920849 0.2252695510942903 0.1304483339544859	0.085385
C	0.5809099953522247 0.5967262909358496 0.8695241094476421	0.092650
C	0.6249930355865919 0.5504758538061748 0.8696080800689007	-0.167265
C	0.7215744972075914 0.4483542654313988 0.8691535402777912	-0.113555
C	0.7686460123404678 0.4059972877987323 0.8709715792367067	-0.114757
C	0.8711155131790351 0.3184398805958198 0.8737003069491103	-0.166752
C	0.9178581103025252 0.2756364709487746 0.8717760072841078	0.085508
C	0.0809100003522287 0.0967262909358497 0.8695241094476421	0.092651
C	0.1249930145865863 0.0504758478061745 0.8696080800689007	-0.167265
C	0.2215744972075913 0.9483543114314025 0.8691535402777912	-0.113556
C	0.2686460323404701 0.9059973337987286 0.8709715792367067	-0.114753
C	0.3711154721790357 0.8184398805958202 0.8737003069491103	-0.166655
C	0.4178580683025285 0.7756365179487748 0.8717760072841078	0.085386
C	0.4190900046477751 0.4032737090641504 0.3695241404476412	0.092651
C	0.3750069644134084 0.4495241461938249 0.3696081420688991	-0.167267
C	0.2784254817924106 0.5516457345686013 0.3691535402777910	-0.113560
C	0.2313539676595301 0.5940027122012681 0.3709715482367074	-0.114706
C	0.1288845278209642 0.6815600724041795 0.3737002449491125	-0.166656
C	0.0821419366974754 0.7243634820512252 0.3717759452841098	0.085386
C	0.9190900466477717 0.9032736630641537 0.3695241404476412	0.092651
C	0.8750070064134116 0.9495241001938285 0.3696081420688991	-0.167266
C	0.7784255027924086 0.0516457295685973 0.3691535402777910	-0.113556
C	0.7313539876595322 0.0940027002012739 0.3709715482367074	-0.114752
C	0.6288845278209647 0.1815601194041798 0.3737002449491125	-0.166777
C	0.5821419316974712 0.2243635060512272 0.3717759452841098	0.085460
C	0.5809099953522247 0.4032737090641504 0.3695241404476412	0.092651
C	0.6249930355865919 0.4495241461938249 0.3696081420688991	-0.167266
C	0.7215744972075914 0.5516457345686013 0.3691535402777910	-0.113554
C	0.7686460123404678 0.5940027122012681 0.3709715482367074	-0.114758
C	0.8711155131790351 0.6815600724041795 0.3737002449491125	-0.166631
C	0.9178581103025252 0.7243634820512252 0.3717759452841098	0.085432
C	0.0809100003522287 0.9032736630641537 0.3695241404476412	0.092651
C	0.1249930145865863 0.9495241001938285 0.3696081420688991	-0.167266
C	0.2215744972075913 0.0516457295685973 0.3691535402777910	-0.113556
C	0.2686460323404701 0.0940027002012739 0.3709715482367074	-0.114752
C	0.3711154721790357 0.1815601194041798 0.3737002449491125	-0.166777
C	0.4178580683025285 0.2243635060512272 0.3717759452841098	0.085461
C	0.4190900046477751 0.5967262909358496 0.8695241094476421	0.092650
C	0.3750069644134084 0.5504758538061748 0.8696080800689007	-0.167267
C	0.2784254817924106 0.4483542654313988 0.8691535402777912	-0.113561
C	0.2313539676595301 0.4059972877987323 0.8709715792367067	-0.114705
C	0.1288845278209642 0.3184398805958198 0.8737003069491103	-0.166778
C	0.0821419366974754 0.2756364709487746 0.8717760072841078	0.085462
C	0.9190900466477717 0.0967262909358497 0.8695241094476421	0.092651
C	0.8750070064134116 0.0504758478061745 0.8696080800689007	-0.167265
C	0.7784255027924086 0.9483543114314025 0.8691535402777912	-0.113556
C	0.7313539876595322 0.9059973337987286 0.8709715792367067	-0.114753
C	0.6288845278209647 0.8184398805958202 0.8737003069491103	-0.166656
C	0.5821419316974712 0.7756365179487748 0.8717760072841078	0.085386
C	0.4199452337957268 0.4023871898206865 0.1310097549428862	0.087923
C	0.3757875331047447 0.4485908695210428 0.1275425622178720	-0.165606
C	0.2776799421997102 0.5513578738616702 0.1258161631813046	-0.115880
C	0.2307332491898827 0.5939556088323670 0.1253376924841720	-0.112870
C	0.1284101502315469 0.6824539804226661 0.1262241388779199	-0.164288
C	0.0816705235079192 0.7252695270942887 0.1304483339544859	0.085385
C	0.9199452757957229 0.9023871438206897 0.1310097549428862	0.087922
C	0.8757875751047479 0.9485908235210461 0.1275425622178720	-0.165605
C	0.7776799631997084 0.0513578688616668 0.1258161631813046	-0.115891
C	0.7307332691898843 0.0939555968323735 0.1253376924841720	-0.112869
C	0.6284101502315469 0.1824540274226663 0.1262241388779199	-0.164291
C	0.5816705185079153 0.2252695510942903 0.1304483339544859	0.085386
C	0.5800547662042734 0.5976128101793136 0.6310097939428859	0.087922
C	0.6242124668952556 0.5514091304789572 0.6275425782178731	-0.165605
C	0.7223200368002916 0.4486421261383289 0.6258161321813058	-0.115891
C	0.7692667308101157 0.4060443911676327 0.6253376464841751	-0.112870
C	0.8715898907684529 0.3175459725773337 0.6262241238779150	-0.164324
C	0.9183295234920811 0.2747304259057115 0.6304483179544845	0.085385
C	0.0800547712042773 0.0976128101793135 0.6310097939428859	0.087923
C	0.1242124458952503 0.0514091244789566 0.6275425782178731	-0.165605
C	0.2223200368002917 0.9486421721383336 0.6258161321813058	-0.115891
C	0.2692667508101174 0.9060444371676297 0.6253376464841751	-0.112869
C	0.3715898497684531 0.8175459725773335 0.6262241238779150	-0.164288
C	0.4183294814920849 0.7747304729057113 0.6304483179544845	0.085385
C	0.3508585845404957 0.5240521990612445 0.7476802599126063	0.118095
C	0.3030806543946268 0.4740401400629460 0.7472006392600610	0.072024
C	0.2049800390040342 0.3842118541158804 0.7484974362848404	0.065936
C	0.1541490845185867 0.3402191629443545 0.7493358384751202	0.099858
C	0.8508586255404956 0.0240521970612440 0.7476802599126063	0.118089
C	0.8030807173946287 0.9740401860629497 0.7472006392600610	0.072056
C	0.7049800390040338 0.8842118541158812 0.7484974362848404	0.065948
C	0.6541491055185849 0.8402191629443539 0.7493358384751202	0.099835
C	0.6491414154595042 0.4759478009387560 0.2476802449126086	0.118089
C	0.6969192826053713 0.5259598139370503 0.2472006242600635	0.072055
C	0.7950199609959662 0.6157881458841188 0.2484974212848429	0.065957
C	0.8458508944814151 0.6597808370556461 0.2493358234751225	0.099800
C	0.1491414054595030 0.9759477539387552 0.2476802449126086	0.118090
C	0.1969193246053679 0.0259598509370497 0.2472006242600635	0.072055
C	0.2950199609959658 0.1157881568841236 0.2484974212848429	0.065946
C	0.3458509154814138 0.1597808600556437 0.2493358234751225	0.099857
C	0.6491414154595042 0.5240521990612445 0.7476802599126063	0.118089
C	0.6969192826053713 0.4740401400629460 0.7472006392600610	0.072056
C	0.7950199609959662 0.3842118541158804 0.7484974362848404	0.065954
C	0.8458508944814151 0.3402191629443545 0.7493358384751202	0.099824
C	0.1491414054595030 0.0240521970612440 0.7476802599126063	0.118089
C	0.1969193246053679 0.9740401860629497 0.7472006392600610	0.072056
C	0.2950199609959658 0.8842118541158812 0.7484974362848404	0.065948
C	0.3458509154814138 0.8402191629443539 0.7493358384751202	0.099835
C	0.3508585845404957 0.4759478009387560 0.2476802449126086	0.118095
C	0.3030806543946268 0.5259598139370503 0.2472006242600635	0.072023
C	0.2049800390040342 0.6157881458841188 0.2484974212848429	0.065939
C	0.1541490845185867 0.6597808370556461 0.2493358234751225	0.099835
C	0.8508586255404956 0.9759477539387552 0.2476802449126086	0.118090
C	0.8030807173946287 0.0259598509370497 0.2472006242600635	0.072056
C	0.7049800390040338 0.1157881568841236 0.2484974212848429	0.065946
C	0.6541491055185849 0.1597808600556437 0.2493358234751225	0.099857
H	0.4388192157221399 0.6175719745703616 0.5359183929863723	0.115446
H	0.3624828798249558 0.5390198151025515 0.5241368634716825	0.106249
H	0.2939176407263117 0.4610082427604561 0.5248756039724412	0.085892
H	0.2143610334466522 0.3901116988515728 0.5250599498918386	0.104244
H	0.1443794444895121 0.3320372887656479 0.5247318259267413	0.123488
H	0.0613314697805826 0.2554992934712707 0.5364610753474158	0.115134
H	0.9388192157221403 0.1175719515703633 0.5359183929863723	0.115446
H	0.8624828798249556 0.0390198351025464 0.5241368634716825	0.106251
H	0.7939175787263134 0.9610082427604558 0.5248756039724412	0.085892
H	0.7143610124466536 0.8901117458515729 0.5250599498918386	0.104244
H	0.6443794444895121 0.8320373117656464 0.5247318259267413	0.123488
H	0.5613314547805854 0.7554992934712703 0.5364610753474158	0.115134
H	0.5611807842778597 0.3824280484296365 0.0359183629863698	0.115445
H	0.6375171201750444 0.4609801848974484 0.0241368634716827	0.106251
H	0.7060824212736866 0.5389917572395442 0.0248756659724386	0.085892
H	0.7856389875533464 0.6098883011484274 0.0250599188918328	0.104245
H	0.8556205135104844 0.6679627352343539 0.0247318569267402	0.123494
H	0.9386685872194109 0.7445007065287297 0.0364610443474170	0.115159
H	0.0611807692778551 0.8824280714296422 0.0359183629863698	0.115445
H	0.1375171511750432 0.9609801388974518 0.0241368634716827	0.106251
H	0.2060823802736866 0.0389917632395444 0.0248756659724386	0.085892
H	0.2856389875533462 0.1098882891484262 0.0250599188918328	0.104244
H	0.3556205555104878 0.1679627232343531 0.0247318569267402	0.123487
H	0.4386685042194155 0.2445006825287274 0.0364610443474170	0.115134
H	0.5626341822352414 0.6161534593796633 -0.0342966753185661	0.111031
H	0.6391148172020900 0.5371135592494074 -0.0282611459721290	0.103671
H	0.7044932665574842 0.4603570156053375 -0.0304884289486999	0.086002
H	0.7845569253920862 0.3901896602359760 -0.0282265855880353	0.104677
H	0.8547399532985458 0.3337106327212901 -0.0257141757592826	0.121955
H	0.9380049418595937 0.2569609221274456 -0.0335475112040797	0.112129
H	0.0626341672352371 0.1161534363796648 -0.0342966753185661	0.111028
H	0.1391148482020891 0.0371135792494024 -0.0282611459721290	0.103671
H	0.2044932255574845 0.9603570156053375 -0.0304884289486999	0.086002
H	0.2845569253920857 0.8901897072359758 -0.0282265855880353	0.104676
H	0.3547399952985499 0.8337106557212884 -0.0257141757592827	0.121968
H	0.4380048588595976 0.7569609221274456 -0.0335475112040797	0.112122
H	0.4373658177647582 0.3838465636203352 0.4657033456814322	0.111030
H	0.3608851827979101 0.4628864407505920 0.4717388790278697	0.103671
H	0.2955067954425139 0.5396429843946625 0.4695115480513019	0.085992
H	0.2154430956079126 0.6098103397640245 0.4717734584119611	0.104671
H	0.1452600047014502 0.6662893912787119 0.4742857742407132	0.121967
H	0.0619951151404001 0.7430390778725544 0.4664524727959262	0.112126
H	0.9373658177647586 0.8838465866203405 0.4657033456814322	0.111027
H	0.8608851827979100 0.9628863947505959 0.4717388790278697	0.103671
H	0.7955067334425158 0.0396429903946630 0.4695115480513019	0.086002
H	0.7154430746079138 0.1098103277640233 0.4717734584119611	0.104677
H	0.6452600047014507 0.1662893792787109 0.4742857742407132	0.121983
H	0.5619951001404027 0.2430390538725523 0.4664524727959262	0.112133
H	0.5626341822352414 0.3838465636203352 0.4657033456814322	0.111030
H	0.6391148172020900 0.4628864407505920 0.4717388790278697	0.103671
H	0.7044932665574842 0.5396429843946625 0.4695115480513019	0.086002
H	0.7845569253920862 0.6098103397640245 0.4717734584119611	0.104677
H	0.8547399532985458 0.6662893912787119 0.4742857742407132	0.121939
H	0.9380049418595937 0.7430390778725544 0.4664524727959262	0.112118
H	0.0626341672352371 0.8838465866203405 0.4657033456814322	0.111027
H	0.1391148482020890 0.9628863947505959 0.4717388790278697	0.103671
H	0.2044932255574845 0.0396429903946630 0.4695115480513019	0.086002
H	0.2845569253920857 0.1098103277640233 0.4717734584119611	0.104676
H	0.3547399952985499 0.1662893792787109 0.4742857742407132	0.121983
H	0.4380048588595976 0.2430390538725523 0.4664524727959262	0.112133
H	0.4373658177647582 0.6161534593796633 -0.0342966753185661	0.111030
H	0.3608851827979101 0.5371135592494074 -0.0282611459721290	0.103671
H	0.2955067954425139 0.4603570156053375 -0.0304884289486999	0.085992
H	0.2154430956079126 0.3901896602359760 -0.0282265855880353	0.104670
H	0.1452600047014502 0.3337106327212901 -0.0257141757592826	0.121984
H	0.0619951151404001 0.2569609221274456 -0.0335475112040797	0.112136
H	0.9373658177647586 0.1161534363796648 -0.0342966753185661	0.111028
H	0.8608851827979100 0.0371135792494024 -0.0282611459721290	0.103671
H	0.7955067334425158 0.9603570156053375 -0.0304884289486999	0.086002
H	0.7154430746079138 0.8901897072359758 -0.0282265855880353	0.104676
H	0.6452600047014507 0.8337106557212884 -0.0257141757592826	0.121968
H	0.5619951001404027 0.7569609221274456 -0.0335475112040797	0.112122
H	0.4388192157221399 0.3824280484296365 0.0359183629863698	0.115445
H	0.3624828798249558 0.4609801848974484 0.0241368634716827	0.106249
H	0.2939176407263117 0.5389917572395442 0.0248756659724386	0.085892
H	0.2143610334466522 0.6098883011484274 0.0250599188918328	0.104244
H	0.1443794444895121 0.6679627352343539 0.0247318569267402	0.123487
H	0.0613314697805826 0.7445007065287297 0.0364610443474170	0.115134
H	0.9388192157221403 0.8824280714296422 0.0359183629863698	0.115445
H	0.8624828798249556 0.9609801388974518 0.0241368634716827	0.106251
H	0.7939175787263134 0.0389917632395444 0.0248756659724386	0.085892
H	0.7143610124466536 0.1098882891484262 0.0250599188918328	0.104244
H	0.6443794444895121 0.1679627232343531 0.0247318569267402	0.123487
H	0.5613314547805854 0.2445006825287274 0.0364610443474170	0.115134
H	0.5611807842778597 0.6175719745703616 0.5359183929863723	0.115446
H	0.6375171201750444 0.5390198151025515 0.5241368634716825	0.106250
H	0.7060824212736866 0.4610082427604561 0.5248756039724412	0.085892
H	0.7856389875533464 0.3901116988515728 0.5250599498918386	0.104244
H	0.8556205135104844 0.3320372887656479 0.5247318259267413	0.123494
H	0.9386685872194109 0.2554992934712707 0.5364610753474158	0.115158
H	0.0611807692778551 0.1175719515703633 0.5359183929863723	0.115446
H	0.1375171511750432 0.0390198351025464 0.5241368634716825	0.106250
H	0.2060823802736866 0.9610082427604558 0.5248756039724412	0.085892
H	0.2856389875533462 0.8901117458515729 0.5250599498918386	0.104244
H	0.3556205555104878 0.8320373117656464 0.5247318259267413	0.123488
H	0.4386685042194155 0.7554992934712703 0.5364610753474158	0.115134
Co	0.5000000000000000 0.6874251267364974 0.7526992103501636	0.579215
Co	0.0000000000000000 0.1874251267364975 0.7526992103501636	0.579220
Co	0.5000000000000000 0.3125748732635025 0.2526991953501661	0.579218
Co	0.0000000000000000 0.8125748262635023 0.2526991953501661	0.579216
F	0.5000000000000000 0.6845324094572434 0.4646503081838717	-0.657280
F	0.0000000000000000 0.1845324434572461 0.4646503081838717	-0.657276
F	0.5000000000000000 0.3154675675427583 -0.0353497228161272	-0.657280
F	0.0000000000000000 0.8154675445427599 -0.0353497228161272	-0.657276
F	0.4405987165386533 0.7517098792232224 0.2608601202414886	-0.610338
F	0.5593938894556156 0.6156673332029238 0.2600991440483790	-0.604555
F	0.9405987165386530 0.2517099252232192 0.2608601202414886	-0.610330
F	0.0593938894556160 0.1156673452029179 0.2600991440483790	-0.604552
F	0.5594012834613470 0.2482900747767809 0.7608601352414867	-0.610339
F	0.4406061105443838 0.3843326667970758 0.7600991590483768	-0.604554
F	0.0594012624613487 0.7482901207767776 0.7608601352414867	-0.610331
F	0.9406061105443844 0.8843327127970799 0.7600991590483768	-0.604550
F	0.5594012834613471 0.7517098792232224 0.2608601202414886	-0.610338
F	0.4406061105443838 0.6156673332029239 0.2600991440483790	-0.604556
F	0.0594012624613487 0.2517099252232192 0.2608601202414886	-0.610330
F	0.9406061105443844 0.1156673452029179 0.2600991440483790	-0.604552
F	0.4405987165386533 0.2482900747767809 0.7608601352414867	-0.610339
F	0.5593938894556156 0.3843326667970758 0.7600991590483768	-0.604554
F	0.9405987165386530 0.7482901207767776 0.7608601352414867	-0.610331
F	0.0593938894556160 0.8843327127970800 0.7600991590483768	-0.604550
O	0.5000000000000000 0.6849054706460606 0.0496905823786566	-0.950408
O	0.0000000000000000 0.1849055046460630 0.0496905823786566	-0.950395
O	0.5000000000000000 0.3150945063539417 0.5496906053786547	-0.950410
O	0.0000000000000000 0.8150944833539427 0.5496906053786547	-0.950393
N	0.4415588853963208 0.6204080985033638 0.7511574547817094	-0.180281
N	0.5593490559376929 0.7536029926632589 0.7517690941586269	-0.189487
N	0.9415589263963209 0.1204081095033610 0.7511574547817094	-0.180282
N	0.0593490719376943 0.2536029456632581 0.7517690941586269	-0.189486
N	0.5584411146036790 0.3795918784966379 0.2511574397817115	-0.180282
N	0.4406509440623071 0.2463970303367396 0.2517690791586291	-0.189484
N	0.0584411146036791 0.8795919014966362 0.2511574397817115	-0.180282
N	0.9406509440623071 0.7463970073367411 0.2517690791586291	-0.189489
N	0.5584411146036790 0.6204080985033638 0.7511574547817094	-0.180281
N	0.4406509440623071 0.7536029926632589 0.7517690941586269	-0.189487
N	0.0584411146036791 0.1204081095033610 0.7511574547817094	-0.180281
N	0.9406509440623071 0.2536029456632581 0.7517690941586269	-0.189489
N	0.4415588853963208 0.3795918784966379 0.2511574397817115	-0.180282
N	0.5593490559376929 0.2463970303367396 0.2517690791586291	-0.189484
N	0.9415589263963210 0.8795919014966362 0.2511574397817115	-0.180283
N	0.0593490719376943 0.7463970073367411 0.2517690791586291	-0.189485
Nb	0.5000000000000000 0.6838804340928313 0.2362373743044384	2.445173
Nb	0.0000000000000000 0.1838804800928277 0.2362373743044384	2.445126
Nb	0.5000000000000000 0.3161195199071720 0.7362373893044359	2.445173
Nb	0.0000000000000000 0.8161195659071687 0.7362373893044359	2.445125
	  	
