#======================================================================

# CRYSTAL DATA

#----------------------------------------------------------------------

data_VESTA_phase_1


_pd_phase_name                         NbOFFIVE_1_Cu
_cell_length_a                         11.16042
_cell_length_b                         11.16042
_cell_length_c                         8.21562
_cell_angle_alpha                      90
_cell_angle_beta                       90
_cell_angle_gamma                      90
_symmetry_space_group_name_H-M         P 1
_symmetry_Int_Tables_number            1

loop_
_symmetry_equiv_pos_as_xyz
   x, y, z

loop_
   _atom_site_label
   _atom_site_fract_x
   _atom_site_fract_y
   _atom_site_fract_z
   _atom_site_charge
C	0.2556507108757826 0.4583450448749474 0.3700331000786697	0.104104
C	0.1311288638500452 0.4576404965311702 0.3654094683761628	-0.170124
C	0.7443493321242175 0.5416549981250526 0.3700331000786697	0.104104
C	0.8688710821499507 0.5423595034688298 0.3654094683761628	-0.170125
C	0.5416549981250526 0.2556507108757826 0.3700331000786697	0.104104
C	0.5423595034688298 0.1311288638500452 0.3654094683761628	-0.170125
C	0.4583450448749474 0.7443493321242175 0.3700331000786697	0.104104
C	0.4576404965311702 0.8688710821499507 0.3654094683761628	-0.170125
C	0.7447711764876472 0.4578790005641697 0.6289879310921986	0.105299
C	0.8691872373571397 0.4573798761986563 0.6338747295206666	-0.171718
C	0.2552288665123528 0.5421210424358303 0.6289879310921986	0.105300
C	0.1308127086428557 0.5426201238013439 0.6338747295206666	-0.171718
C	0.4578790005641697 0.2552288665123528 0.6289879310921986	0.105300
C	0.4573798761986563 0.1308127086428557 0.6338747295206666	-0.171718
C	0.5421210424358303 0.7447711764876472 0.6289879310921986	0.105300
C	0.5426201238013439 0.8691872373571397 0.6338747295206666	-0.171718
C	0.0661703372931671 0.5000750138706845 0.4995544135974509	0.100517
C	0.9338296837068383 0.4999249861293154 0.4995544135974509	0.100519
C	0.4999249861293154 0.0661703372931671 0.4995544135974509	0.100517
C	0.5000750138706845 0.9338296837068383 0.4995544135974509	0.100519
H	0.3088139883887136 0.4257425794384329 0.2678618242122088	0.103783
H	0.0854225602997909 0.4219191753535113 0.2587980214506371	0.124658
H	0.6911859906112813 0.5742574205615674 0.2678618242122088	0.103783
H	0.9145774237002080 0.5780808246464885 0.2587980214506371	0.124658
H	0.5742574205615674 0.3088139883887136 0.2678618242122088	0.103783
H	0.5780808246464885 0.0854225602997909 0.2587980214506371	0.124659
H	0.4257425794384329 0.6911859906112813 0.2678618242122088	0.103783
H	0.4219191753535113 0.9145774237002080 0.2587980214506371	0.124658
H	0.6916240430056741 0.4252292938135425 0.7310011830144568	0.099009
H	0.9147568071960455 0.4218978726133270 0.7407866465456481	0.125024
H	0.3083759359943203 0.5747707061864575 0.7310011830144568	0.099008
H	0.0852431768039530 0.5781021273866729 0.7407866465456481	0.125023
H	0.4252292938135425 0.3083759359943203 0.7310011830144568	0.099008
H	0.4218978726133270 0.0852431768039530 0.7407866465456481	0.125024
H	0.5747707061864575 0.6916240430056741 0.7310011830144568	0.099009
H	0.5781021273866729 0.9147568071960455 0.7407866465456481	0.125023
Cu	0.5000000000000000 0.5000000000000000 0.5044244830707482	0.745755
Nb	0.5000000000000000 0.5000000000000000 -0.0169765758568889	2.438075
O	0.5000000000000000 0.5000000000000000 0.7656800989400865	-0.960132
F	0.5000000000000000 0.5000000000000000 0.2358711534496495	-0.645722
F	0.3761084130626282 0.3756035181682313 0.0067963689608623	-0.598210
F	0.6238916299373715 0.6243965248317687 0.0067963689608623	-0.598203
F	0.6243965248317687 0.3761084130626282 0.0067963689608623	-0.598206
F	0.3756035181682313 0.6238916299373715 0.0067963689608623	-0.598207
N	0.3163263883587841 0.5002472567961953 0.4996465522501383	-0.216840
N	0.6836736546412159 0.4997527432038047 0.4996465522501383	-0.216840
N	0.4997527432038047 0.3163263883587841 0.4996465522501383	-0.216840
N	0.5002472567961953 0.6836736546412159 0.4996465522501383	-0.216840
	  	
