#======================================================================

# CRYSTAL DATA

#----------------------------------------------------------------------

data_VESTA_phase_1


_pd_phase_name                         NbOFFIVE_3_Ni
_cell_length_a                         14.12780
_cell_length_b                         14.12780
_cell_length_c                         7.91257
_cell_angle_alpha                      90
_cell_angle_beta                       90
_cell_angle_gamma                      90
_symmetry_space_group_name_H-M         P 1
_symmetry_Int_Tables_number            1

loop_
_symmetry_equiv_pos_as_xyz
   x, y, z

loop_
   _atom_site_label
   _atom_site_fract_x
   _atom_site_fract_y
   _atom_site_fract_z
   _atom_site_charge
C	0.2716765150262928 0.4507905371241859 0.6388232211918973	0.066655
C	0.2283234679737094 0.0492094678758180 0.6388232211918973	0.066655
C	0.2291905532858967 0.4506554134898460 0.3587772604951756	0.066555
C	0.2708094297141055 0.0493445915101581 0.3587772604951756	0.066555
C	0.0493445915101581 0.2708094297141055 0.3587772604951756	0.066568
C	0.4506554134898460 0.2291905532858967 0.3587772604951756	0.066568
C	0.4507905371241859 0.2716765150262928 0.6388232211918973	0.066693
C	0.0492094678758180 0.2283234679737094 0.6388232211918973	0.066693
C	0.9507905711241817 0.2283234679737094 0.6388232211918973	0.066736
C	0.5492094288758183 0.2716765150262928 0.6388232211918973	0.066736
C	0.5493445525101587 0.2291905532858967 0.3587772604951756	0.066626
C	0.9506554474898413 0.2708094297141055 0.3587772604951756	0.066626
C	0.7291905362858917 0.0493445915101581 0.3587772604951756	0.066568
C	0.7708094637141083 0.4506554134898460 0.3587772604951756	0.066568
C	0.7716765490262953 0.0492094678758180 0.6388232211918973	0.066693
C	0.7283234509737047 0.4507905371241859 0.6388232211918973	0.066693
C	0.4507905371241859 0.7283234509737047 0.6388232211918973	0.066658
C	0.0492094678758180 0.7716765490262953 0.6388232211918973	0.066658
C	0.0493445915101581 0.7291905362858917 0.3587772604951756	0.066559
C	0.4506554134898460 0.7708094637141083 0.3587772604951756	0.066559
C	0.2291905532858967 0.5493445525101587 0.3587772604951756	0.066639
C	0.2708094297141055 0.9506554474898413 0.3587772604951756	0.066639
C	0.2716765150262928 0.5492094288758183 0.6388232211918973	0.066770
C	0.2283234679737094 0.9507905711241817 0.6388232211918973	0.066770
C	0.7716765490262953 0.9507905711241817 0.6388232211918973	0.066736
C	0.7283234509737047 0.5492094288758183 0.6388232211918973	0.066736
C	0.7291905362858917 0.9506554474898413 0.3587772604951756	0.066627
C	0.7708094637141083 0.5493445525101587 0.3587772604951756	0.066627
C	0.5493445525101587 0.7708094637141083 0.3587772604951756	0.066639
C	0.9506554474898413 0.7291905362858917 0.3587772604951756	0.066639
C	0.9507905711241817 0.7716765490262953 0.6388232211918973	0.066769
C	0.5492094288758183 0.7283234509737047 0.6388232211918973	0.066769
H	0.2887633193229270 0.4117145865470361 0.7531592473736515	0.099024
H	0.2112366976770779 0.0882854224529611 0.7531592473736515	0.099024
H	0.2120134472626772 0.4115712254781331 0.2442162420639366	0.107028
H	0.2879865697373277 0.0884287835218641 0.2442162420639366	0.107028
H	0.0884287835218641 0.2879865697373277 0.2442162420639366	0.107026
H	0.4115712254781331 0.2120134472626772 0.2442162420639366	0.107026
H	0.4117145865470361 0.2887633193229270 0.7531592473736515	0.099021
H	0.0882854224529611 0.2112366976770779 0.7531592473736515	0.099021
H	0.9117145525470406 0.2112366976770779 0.7531592473736515	0.099014
H	0.5882854474529594 0.2887633193229270 0.7531592473736515	0.099014
H	0.5884288085218623 0.2120134472626772 0.2442162420639366	0.107019
H	0.9115711914781377 0.2879865697373277 0.2442162420639366	0.107019
H	0.7120133962626767 0.0884287835218641 0.2442162420639366	0.107026
H	0.7879866037373233 0.4115712254781331 0.2442162420639366	0.107026
H	0.7887633533229229 0.0882854224529611 0.7531592473736515	0.099021
H	0.7112366466770771 0.4117145865470361 0.7531592473736515	0.099021
H	0.4117145865470361 0.7112366466770771 0.7531592473736515	0.099024
H	0.0882854224529611 0.7887633533229229 0.7531592473736515	0.099024
H	0.0884287835218641 0.7120133962626766 0.2442162420639366	0.107028
H	0.4115712254781331 0.7879866037373233 0.2442162420639366	0.107028
H	0.2120134472626772 0.5884288085218623 0.2442162420639366	0.107017
H	0.2879865697373277 0.9115711914781377 0.2442162420639366	0.107017
H	0.2887633193229270 0.5882854474529594 0.7531592473736515	0.099011
H	0.2112366976770779 0.9117145525470406 0.7531592473736515	0.099011
H	0.7887633533229229 0.9117145525470406 0.7531592473736515	0.099014
H	0.7112366466770771 0.5882854474529594 0.7531592473736515	0.099014
H	0.7120133962626767 0.9115711914781377 0.2442162420639366	0.107019
H	0.7879866037373233 0.5884288085218623 0.2442162420639366	0.107019
H	0.5884288085218623 0.7879866037373233 0.2442162420639366	0.107017
H	0.9115711914781377 0.7120133962626767 0.2442162420639366	0.107017
H	0.9117145525470406 0.7887633533229229 0.7531592473736515	0.099011
H	0.5882854474529594 0.7112366466770771 0.7531592473736515	0.099011
Ni	0.2500000000000000 0.2500000000000000 0.5036578585167183	0.801018
Ni	0.7500000340000028 0.2500000000000000 0.5036578585167183	0.801022
Ni	0.2500000000000000 0.7500000340000028 0.5036578585167183	0.801022
Ni	0.7500000340000028 0.7500000340000028 0.5036578585167183	0.801026
Nb	0.2500000000000000 0.2500000000000000 0.9808610988129113	2.420790
Nb	0.7500000340000028 0.2500000000000000 0.9808610988129113	2.420790
Nb	0.2500000000000000 0.7500000340000028 0.9808610988129113	2.420790
Nb	0.7500000340000028 0.7500000340000028 0.9808610988129113	2.420789
O	0.2500000000000000 0.2500000000000000 0.7538583887010839	-0.954009
O	0.7500000340000028 0.2500000000000000 0.7538583887010839	-0.954009
O	0.2500000000000000 0.7500000340000028 0.7538583887010839	-0.954009
O	0.7500000340000028 0.7500000340000028 0.7538583887010839	-0.954008
F	0.2500000000000000 0.2500000000000000 0.2497310673956370	-0.622217
F	0.3470436520936834 0.3470436520936834 0.0049181782346634	-0.562743
F	0.1529563479063165 0.1529563479063165 0.0049181782346634	-0.562743
F	0.1532233061236515 0.3467766938763485 0.0129486481952255	-0.559805
F	0.3467766938763485 0.1532233061236515 0.0129486481952256	-0.559805
F	0.7500000340000028 0.2500000000000000 0.2497310673956370	-0.622217
F	0.8467766598763526 0.3467766938763485 0.0129486481952255	-0.559805
F	0.6532233401236474 0.1532233061236515 0.0129486481952256	-0.559805
F	0.6529563819063122 0.3470436520936834 0.0049181782346634	-0.562745
F	0.8470436180936878 0.1529563479063165 0.0049181782346634	-0.562745
F	0.2500000000000000 0.7500000340000028 0.2497310673956370	-0.622217
F	0.3467766938763485 0.8467766598763526 0.0129486481952255	-0.559805
F	0.1532233061236515 0.6532233401236474 0.0129486481952256	-0.559805
F	0.1529563479063165 0.8470436180936878 0.0049181782346634	-0.562745
F	0.3470436520936834 0.6529563819063122 0.0049181782346634	-0.562745
F	0.7500000340000028 0.7500000340000028 0.2497310673956370	-0.622216
F	0.8470436180936878 0.8470436180936878 0.0049181782346634	-0.562748
F	0.6529563819063122 0.6529563819063122 0.0049181782346634	-0.562747
F	0.6532233401236474 0.8467766598763526 0.0129486481952255	-0.559806
F	0.8467766598763526 0.6532233401236474 0.0129486481952255	-0.559806
N	0.4011543620430836 0.2501346980871126 0.4990635163038124	-0.189468
N	0.0988456299569157 0.2498653019128873 0.4990635163038124	-0.189468
N	0.2501346980871126 0.4011543620430836 0.4990635163038124	-0.189460
N	0.2498653019128873 0.0988456299569157 0.4990635163038124	-0.189460
N	0.9011543960430864 0.2498653019128873 0.4990635163038124	-0.189480
N	0.5988456039569136 0.2501346980871126 0.4990635163038124	-0.189479
N	0.7498653359128900 0.4011543620430836 0.4990635163038124	-0.189466
N	0.7501347320871157 0.0988456299569157 0.4990635163038124	-0.189466
N	0.4011543620430836 0.7498653359128900 0.4990635163038124	-0.189463
N	0.0988456299569157 0.7501347320871157 0.4990635163038124	-0.189463
N	0.2498653019128873 0.9011543960430864 0.4990635163038124	-0.189483
N	0.2501346980871126 0.5988456039569136 0.4990635163038124	-0.189483
N	0.9011543960430864 0.7501347320871157 0.4990635163038124	-0.189485
N	0.5988456039569136 0.7498653359128900 0.4990635163038124	-0.189484
N	0.7501347320871157 0.9011543960430864 0.4990635163038124	-0.189478
N	0.7498653359128900 0.5988456039569136 0.4990635163038124	-0.189477
	  	
