#======================================================================

# CRYSTAL DATA

#----------------------------------------------------------------------

data_VESTA_phase_1


_pd_phase_name                         NbOFFIVE_2_Zn
_cell_length_a                         13.98243
_cell_length_b                         13.98243
_cell_length_c                         8.04069
_cell_angle_alpha                      90
_cell_angle_beta                       90
_cell_angle_gamma                      90
_symmetry_space_group_name_H-M         P 1
_symmetry_Int_Tables_number            1

loop_
_symmetry_equiv_pos_as_xyz
   x, y, z

loop_
   _atom_site_label
   _atom_site_fract_x
   _atom_site_fract_y
   _atom_site_fract_z
   _atom_site_charge
C	0.5318833682105139 0.7040103515723192 0.1324981131231366	0.102057
C	0.5322510616978892 0.8032105525070803 0.1385999715608759	-0.167971
C	0.4681166317894863 0.2959896834276800 0.1324981131231366	0.102055
C	0.4677489383021109 0.1967894824929191 0.1385999715608759	-0.167968
C	0.2959896834276800 0.5318833682105139 0.1324981131231366	0.102057
C	0.1967894824929191 0.5322510616978892 0.1385999715608759	-0.167971
C	0.7040103515723192 0.4681166317894863 0.1324981131231366	0.102055
C	0.8032105525070803 0.4677489383021109 0.1385999715608759	-0.167968
C	0.4688022820567967 0.7037573482446963 0.8657791360580482	0.101856
C	0.4678128375167627 0.8030623766188780 0.8603628612725858	-0.166194
C	0.5311977179432030 0.2962426867553032 0.8657791360580482	0.101854
C	0.5321871624832376 0.1969376583811212 0.8603628612725858	-0.166192
C	0.7037573482446963 0.5311977179432030 0.8657791360580482	0.101854
C	0.8030623766188780 0.5321871624832376 0.8603628612725858	-0.166192
C	0.2962426867553032 0.4688022820567967 0.8657791360580482	0.101857
C	0.1969376583811212 0.4678128375167627 0.8603628612725858	-0.166194
C	0.5000915042747524 0.1448256485050433 -0.0005205306397939	0.168905
C	0.5001162073335084 0.0435892253172585 -0.0004708124777465	-0.093026
C	0.4999084957252477 0.8551743514949569 -0.0005205306397939	0.168872
C	0.4998837926664916 0.9564107666827409 -0.0004708124777465	-0.092767
C	0.8551743514949569 0.5000915042747524 -0.0005205306397939	0.168905
C	0.9564107666827409 0.5001162073335084 -0.0004708124777465	-0.093026
C	0.1448256485050433 0.4999084957252477 -0.0005205306397939	0.168872
C	0.0435892253172585 0.4998837926664916 -0.0004708124777465	-0.092766
H	0.5567772325199883 0.6617225965891925 0.2378881744029655	0.092249
H	0.5575400076718516 0.8399255565390319 0.2495952458334494	0.127175
H	0.4432227674800117 0.3382773334108015 0.2378881744029655	0.092249
H	0.4424599923281480 0.1600744434609681 0.2495952458334494	0.127176
H	0.3382773334108015 0.5567772325199883 0.2378881744029655	0.092249
H	0.1600744434609681 0.5575400076718516 0.2495952458334494	0.127174
H	0.6617225965891925 0.4432227674800117 0.2378881744029655	0.092249
H	0.8399255565390319 0.4424599923281480 0.2495952458334494	0.127176
H	0.4440860199217425 0.6615499141327159 0.7601358393535247	0.098554
H	0.4422021028287881 0.8398463149651563 0.7496253799216410	0.126468
H	0.5559139800782571 0.3384500158672784 0.7601358393535247	0.098554
H	0.5577978971712121 0.1601536850348435 0.7496253799216410	0.126469
H	0.6615499141327159 0.5559139800782571 0.7601358393535247	0.098554
H	0.8398463149651563 0.5577978971712121 0.7496253799216410	0.126469
H	0.3384500158672784 0.4440860199217425 0.7601358393535247	0.098554
H	0.1601536850348435 0.4422021028287881 0.7496253799216410	0.126468
Zn	0.5000000000000000 0.5000000000000000 0.0081292433655998	0.767152
Nb	0.5000000000000000 0.5000000000000000 0.4833590245976007	2.439813
F	0.5000000000000000 0.5000000000000000 0.7437425233408707	-0.610391
F	0.5980655733235590 0.5989168782938403 0.5085464657933120	-0.587025
F	0.4010831567061592 0.5980655733235590 0.5085464657933120	-0.587025
F	0.4019344616764401 0.4010831567061592 0.5085464657933120	-0.587025
F	0.5989168782938403 0.4019344616764401 0.5085464657933120	-0.587025
O	0.5000000000000000 0.5000000000000000 0.2601160178902826	-0.929855
N	0.4994506964133433 0.3451204804006242 -0.0008765165005849	-0.219842
N	0.5005493035866573 0.6548795545993753 -0.0008765165005849	-0.219841
N	0.6548795545993753 0.4994506964133433 -0.0008765165005849	-0.219842
N	0.3451204804006242 0.5005493035866573 -0.0008765165005849	-0.219841
	  	
