#======================================================================

# CRYSTAL DATA

#----------------------------------------------------------------------

data_VESTA_phase_1


_pd_phase_name                         NbOFFIVE_2_Cd
_cell_length_a                         14.34155
_cell_length_b                         14.34155
_cell_length_c                         8.32345
_cell_angle_alpha                      90
_cell_angle_beta                       90
_cell_angle_gamma                      90
_symmetry_space_group_name_H-M         P 1
_symmetry_Int_Tables_number            1

loop_
_symmetry_equiv_pos_as_xyz
   x, y, z

loop_
   _atom_site_label
   _atom_site_fract_x
   _atom_site_fract_y
   _atom_site_fract_z
   _atom_site_charge
C	0.5301147648719425 0.7113442939479754 0.1284160763107475	0.101683
C	0.5308598778076384 0.8080899747885508 0.1344207080464473	-0.168539
C	0.4698852351280577 0.2886557410520240 0.1284160763107475	0.101676
C	0.4691401221923611 0.1919100602114487 0.1344207080464473	-0.168536
C	0.2886557410520240 0.5301147648719425 0.1284160763107475	0.101679
C	0.1919100602114487 0.5308598778076384 0.1344207080464473	-0.168539
C	0.7113442939479754 0.4698852351280577 0.1284160763107475	0.101680
C	0.8080899747885508 0.4691401221923611 0.1344207080464473	-0.168537
C	0.4702845573425763 0.7114949097717737 0.8689921081139979	0.102036
C	0.4690642101624699 0.8083322234735830 0.8643601859487727	-0.167180
C	0.5297154426574241 0.2885051252282254 0.8689921081139979	0.102033
C	0.5309357898375301 0.1916678115264164 0.8643601859487727	-0.167177
C	0.7114949097717737 0.5297154426574241 0.8689921081139979	0.102033
C	0.8083322234735830 0.5309357898375301 0.8643601859487727	-0.167177
C	0.2885051252282254 0.4702845573425763 0.8689921081139979	0.102036
C	0.1916678115264164 0.4690642101624699 0.8643601859487727	-0.167180
C	0.5000864933386011 0.1412363340380766 -0.0004468478070121	0.170960
C	0.5000666838429106 0.0425099369781948 -0.0001700046433024	-0.093641
C	0.4999135066613988 0.8587636659619232 -0.0004468478070121	0.170930
C	0.4999333161570896 0.9574900550218044 -0.0001700046433024	-0.093400
C	0.8587636659619232 0.5000864933386011 -0.0004468478070121	0.170960
C	0.9574900550218044 0.5000666838429106 -0.0001700046433024	-0.093641
C	0.1412363340380766 0.4999135066613988 -0.0004468478070121	0.170929
C	0.0425099369781948 0.4999333161570896 -0.0001700046433024	-0.093400
H	0.5533435041959275 0.6695784876308258 0.2306245525301936	0.096980
H	0.5552991953045405 0.8438724591601366 0.2417640395314598	0.128342
H	0.4466564958040724 0.3304214423691683 0.2306245525301936	0.096985
H	0.4447008046954597 0.1561275408398634 0.2417640395314598	0.128343
H	0.3304214423691684 0.5533435041959275 0.2306245525301936	0.096985
H	0.1561275408398634 0.5552991953045405 0.2417640395314598	0.128342
H	0.6695784876308258 0.4466564958040724 0.2306245525301936	0.096980
H	0.8438724591601366 0.4447008046954597 0.2417640395314598	0.128343
H	0.4471189801483630 0.6700456491685705 0.7663154968306735	0.102431
H	0.4443057838575007 0.8444323638637138 0.7575486151518148	0.127883
H	0.5528810198516368 0.3299542808314237 0.7663154968306735	0.102431
H	0.5556942161424990 0.1555676361362863 0.7575486151518148	0.127884
H	0.6700456491685705 0.5528810198516368 0.7663154968306735	0.102431
H	0.8444323638637138 0.5556942161424990 0.7575486151518148	0.127885
H	0.3299542808314237 0.4471189801483630 0.7663154968306735	0.102431
H	0.1555676361362863 0.4443057838575007 0.7575486151518148	0.127883
Cd	0.5000000000000000 0.5000000000000000 0.0055589289924396	0.857051
Nb	0.5000000000000000 0.5000000000000000 0.4855554074755675	2.467816
F	0.5000000000000000 0.5000000000000000 0.7359879970612861	-0.623523
F	0.5959501428459205 0.5964394046493879 0.5103719114189131	-0.604113
F	0.4035606303506112 0.5959501428459205 0.5103719114189131	-0.604113
F	0.4040498921540790 0.4035606303506112 0.5103719114189131	-0.604113
F	0.5964394046493879 0.4040498921540790 0.5103719114189131	-0.604113
O	0.5000000000000000 0.5000000000000000 0.2702464059000734	-0.949291
N	0.4995857487028003 0.3359621070445880 -0.0015339962900455	-0.234963
N	0.5004142512971996 0.6640379279554111 -0.0015339962900455	-0.234962
N	0.6640379279554111 0.4995857487028003 -0.0015339962900455	-0.234962
N	0.3359621070445880 0.5004142512971996 -0.0015339962900455	-0.234962
	  	
