#======================================================================

# CRYSTAL DATA

#----------------------------------------------------------------------

data_VESTA_phase_1


_pd_phase_name                         NbOFFIVE_4_Cd_i
_cell_length_a                         24.42787
_cell_length_b                         21.24266
_cell_length_c                         9.33486
_cell_angle_alpha                      90
_cell_angle_beta                       90
_cell_angle_gamma                      90
_symmetry_space_group_name_H-M         P 1
_symmetry_Int_Tables_number            1

loop_
_symmetry_equiv_pos_as_xyz
   x, y, z

loop_
   _atom_site_label
   _atom_site_fract_x
   _atom_site_fract_y
   _atom_site_fract_z
   _atom_site_charge
C	0.4104195469508657 0.5938958122951106 0.6268313650325334	0.105017
C	0.3681543369040881 0.5501136215477895 0.6239566705651743	-0.174941
C	0.2752404219755329 0.4500648832897770 0.6234545759731160	-0.119562
C	0.2313790100545788 0.4085253299565814 0.6225705747302913	-0.114854
C	0.1347097286333388 0.3236652087046187 0.6216285733449969	-0.168329
C	0.0895433331617860 0.2839089225938513 0.6256194924187934	0.098457
C	0.9104195889508624 0.0938958122951111 0.6268313650325334	0.105017
C	0.8681543789040915 0.0501136155477891 0.6239566705651743	-0.174941
C	0.7752404429755317 0.9500649292897803 0.6234545759731160	-0.119567
C	0.7313790300545804 0.9085253759565779 0.6225705747302913	-0.114853
C	0.6347097286333389 0.8236652087046183 0.6216285733449969	-0.168330
C	0.5895433281617828 0.7839089695938516 0.6256194924187934	0.098457
C	0.5895804530491340 0.4061041877048888 0.1268313260325337	0.105017
C	0.6318456630959119 0.4498863784522107 0.1239566545651726	-0.174942
C	0.7247595570244683 0.5499351167102235 0.1234546069731156	-0.119562
C	0.7686209699454196 0.5914746700434188 0.1225706207302879	-0.114854
C	0.8652903123666610 0.6763347442953813 0.1216285883450016	-0.168335
C	0.9104567138382136 0.7160910304061484 0.1256195084187947	0.098444
C	0.0895804580491381 0.9061041417048927 0.1268313260325337	0.105017
C	0.1318456420959066 0.9498863324522138 0.1239566545651726	-0.174942
C	0.2247595570244688 0.0499351117102193 0.1234546069731156	-0.119562
C	0.2686209899454213 0.0914746580434248 0.1225706207302879	-0.114854
C	0.3652902713666610 0.1763347912953815 0.1216285883450016	-0.168334
C	0.4104566718382181 0.2160910544061504 0.1256195084187946	0.098454
C	0.5901439091455410 0.5936420694100717 0.8720360570288499	0.103528
C	0.6323031861898480 0.5498320522643408 0.8737892605201989	-0.174578
C	0.7245325125094761 0.4501634642788738 0.8740802806071563	-0.117341
C	0.7684768845483735 0.4087293278180731 0.8756501094347866	-0.114857
C	0.8651507531648540 0.3241145263090981 0.8778301280510951	-0.170471
C	0.9102894735702469 0.2844073996599976 0.8743500202452728	0.096817
C	0.0901439141455452 0.0936420694100716 0.8720360570288499	0.103527
C	0.1323031651898423 0.0498320462643404 0.8737892605201989	-0.174577
C	0.2245325125094758 0.9501635102788778 0.8740802806071563	-0.117354
C	0.2684769045483751 0.9087293738180695 0.8756501094347866	-0.114870
C	0.3651507121648542 0.8241145263090983 0.8778301280510951	-0.170471
C	0.4102894315702503 0.7844074466599978 0.8743500202452728	0.096818
C	0.4098560908544587 0.4063579305899283 0.3720360880288491	0.103528
C	0.3676968138101526 0.4501679477356591 0.3737893225201965	-0.174579
C	0.2754674664905261 0.5498365357211260 0.3740802806071563	-0.117341
C	0.2315230954516249 0.5912706721819272 0.3756500784347875	-0.114863
C	0.1348492878351458 0.6758854266909013 0.3778300660510971	-0.170471
C	0.0897105734297535 0.7155925533400022 0.3743499582452754	0.096815
C	0.9098561328544553 0.9063578845899316 0.3720360880288491	0.103528
C	0.8676968558101554 0.9501679017356625 0.3737893225201965	-0.174579
C	0.7754674874905239 0.0498365307211220 0.3740802806071563	-0.117341
C	0.7315231154516265 0.0912706601819330 0.3756500784347874	-0.114863
C	0.6348492878351458 0.1758854736909017 0.3778300660510971	-0.170470
C	0.5897105684297494 0.2155925773400043 0.3743499582452754	0.096815
C	0.5901439091455410 0.4063579305899283 0.3720360880288491	0.103529
C	0.6323031861898480 0.4501679477356591 0.3737893225201965	-0.174579
C	0.7245325125094761 0.5498365357211260 0.3740802806071563	-0.117341
C	0.7684768845483735 0.5912706721819272 0.3756500784347875	-0.114863
C	0.8651507531648540 0.6758854266909013 0.3778300660510971	-0.170471
C	0.9102894735702469 0.7155925533400022 0.3743499582452754	0.096817
C	0.0901439141455452 0.9063578845899316 0.3720360880288491	0.103529
C	0.1323031651898423 0.9501679017356625 0.3737893225201965	-0.174579
C	0.2245325125094758 0.0498365307211220 0.3740802806071563	-0.117341
C	0.2684769045483751 0.0912706601819330 0.3756500784347875	-0.114863
C	0.3651507121648542 0.1758854736909017 0.3778300660510971	-0.170471
C	0.4102894315702503 0.2155925773400043 0.3743499582452754	0.096818
C	0.4098560908544587 0.5936420694100717 0.8720360570288499	0.103529
C	0.3676968138101526 0.5498320522643408 0.8737892605201989	-0.174579
C	0.2754674664905261 0.4501634642788738 0.8740802806071563	-0.117342
C	0.2315230954516249 0.4087293278180731 0.8756501094347866	-0.114857
C	0.1348492878351458 0.3241145263090981 0.8778301280510951	-0.170471
C	0.0897105734297535 0.2844073996599976 0.8743500202452728	0.096820
C	0.9098561328544553 0.0936420694100716 0.8720360570288499	0.103529
C	0.8676968558101554 0.0498320462643404 0.8737892605201989	-0.174578
C	0.7754674874905239 0.9501635102788778 0.8740802806071563	-0.117354
C	0.7315231154516265 0.9087293738180695 0.8756501094347866	-0.114870
C	0.6348492878351458 0.8241145263090983 0.8778301280510951	-0.170471
C	0.5897105684297494 0.7844074466599978 0.8743500202452728	0.096820
C	0.4104195469508657 0.4061041877048888 0.1268313260325337	0.105019
C	0.3681543369040881 0.4498863784522107 0.1239566545651726	-0.174942
C	0.2752404219755329 0.5499351167102235 0.1234546069731156	-0.119562
C	0.2313790100545788 0.5914746700434188 0.1225706207302879	-0.114854
C	0.1347097286333388 0.6763347442953813 0.1216285883450016	-0.168335
C	0.0895433331617860 0.7160910304061484 0.1256195084187946	0.098448
C	0.9104195889508624 0.9061041417048927 0.1268313260325337	0.105019
C	0.8681543789040915 0.9498863324522138 0.1239566545651726	-0.174942
C	0.7752404429755317 0.0499351117102193 0.1234546069731156	-0.119562
C	0.7313790300545804 0.0914746580434248 0.1225706207302879	-0.114854
C	0.6347097286333389 0.1763347912953815 0.1216285883450016	-0.168335
C	0.5895433281617828 0.2160910544061504 0.1256195084187947	0.098447
C	0.5895804530491340 0.5938958122951106 0.6268313650325334	0.105019
C	0.6318456630959119 0.5501136215477895 0.6239566705651743	-0.174941
C	0.7247595570244683 0.4500648832897770 0.6234545759731160	-0.119562
C	0.7686209699454196 0.4085253299565814 0.6225705747302913	-0.114854
C	0.8652903123666610 0.3236652087046187 0.6216285733449969	-0.168330
C	0.9104567138382136 0.2839089225938513 0.6256194924187932	0.098459
C	0.0895804580491381 0.0938958122951111 0.6268313650325334	0.105019
C	0.1318456420959066 0.0501136155477891 0.6239566705651743	-0.174941
C	0.2247595570244688 0.9500649292897803 0.6234545759731160	-0.119567
C	0.2686209899454213 0.9085253759565779 0.6225705747302913	-0.114853
C	0.3652902713666610 0.8236652087046183 0.6216285733449969	-0.168330
C	0.4104566718382181 0.7839089695938516 0.6256194924187932	0.098469
C	0.3444259226040843 0.5239466600417817 0.7484785677138512	0.113281
C	0.2991322349670662 0.4753343779569288 0.7485492130955332	0.069061
C	0.2069084699488131 0.3872494698718684 0.7492805243048057	0.067609
C	0.1589212722772378 0.3449740403591859 0.7494812320715912	0.102366
C	0.8444259636040845 0.0239466580417815 0.7484785677138512	0.113280
C	0.7991322979670676 0.9753344239569325 0.7485492130955332	0.069078
C	0.7069084699488132 0.8872494698718686 0.7492805243048057	0.067611
C	0.6589212932772363 0.8449740403591859 0.7494812320715912	0.102366
C	0.6555740773959153 0.4760533399582187 0.2484785527138534	0.113282
C	0.7008677020329324 0.5246655760430675 0.2485491980955354	0.069060
C	0.7930915300511868 0.6127505301281314 0.2492805093048080	0.067609
C	0.8410787067227637 0.6550259596408141 0.2494812170715935	0.102369
C	0.1555740673959147 0.9760532929582180 0.2484785527138534	0.113282
C	0.2008677440329285 0.0246656130430670 0.2485491980955354	0.069060
C	0.2930915300511868 0.1127505411281361 0.2492805093048080	0.067609
C	0.3410787277227621 0.1550259826408125 0.2494812170715935	0.102369
C	0.6555740773959153 0.5239466600417817 0.7484785677138512	0.113281
C	0.7008677020329324 0.4753343779569288 0.7485492130955332	0.069061
C	0.7930915300511868 0.3872494698718684 0.7492805243048057	0.067609
C	0.8410787067227637 0.3449740403591859 0.7494812320715912	0.102366
C	0.1555740673959147 0.0239466580417815 0.7484785677138512	0.113280
C	0.2008677440329285 0.9753344239569325 0.7485492130955332	0.069078
C	0.2930915300511868 0.8872494698718686 0.7492805243048057	0.067611
C	0.3410787277227621 0.8449740403591859 0.7494812320715912	0.102366
C	0.3444259226040843 0.4760533399582187 0.2484785527138534	0.113282
C	0.2991322349670662 0.5246655760430675 0.2485491980955354	0.069060
C	0.2069084699488131 0.6127505301281314 0.2492805093048080	0.067609
C	0.1589212722772378 0.6550259596408141 0.2494812170715935	0.102369
C	0.8444259636040845 0.9760532929582180 0.2484785527138534	0.113282
C	0.7991322979670676 0.0246656130430670 0.2485491980955354	0.069060
C	0.7069084699488132 0.1127505411281361 0.2492805093048080	0.067609
C	0.6589212932772363 0.1550259826408125 0.2494812170715935	0.102369
H	0.4279815685659608 0.6121251632753810 0.5272017580583779	0.110017
H	0.3557546430729920 0.5380743254787040 0.5171694997754299	0.105952
H	0.2901784631507004 0.4614373749150278 0.5186015495202502	0.086849
H	0.2165447629309091 0.3929460152225261 0.5185251588669784	0.103925
H	0.1506573954468020 0.3372708757829838 0.5173043833474854	0.117459
H	0.0703334768143543 0.2661908666804251 0.5276467944151748	0.109479
H	0.9279815685659611 0.1121251402753828 0.5272017580583779	0.110017
H	0.8557546430729923 0.0380743454786989 0.5171694997754299	0.105952
H	0.7901784011507027 0.9614373749150281 0.5186015495202502	0.086849
H	0.7165447419309109 0.8929460622225261 0.5185251588669784	0.103925
H	0.6506573954468022 0.8372708987829820 0.5173043833474854	0.117459
H	0.5703334618143560 0.7661908666804249 0.5276467944151748	0.109481
H	0.5720184314340389 0.3878748597246172 0.0272017280583753	0.110017
H	0.6442453569270077 0.4619256745212955 0.0171694997754297	0.105952
H	0.7098215988492973 0.5385626250849719 0.0186016115202484	0.086849
H	0.7834552580690891 0.6070539847774742 0.0185251278669721	0.103926
H	0.8493425625531943 0.6627291482170183 0.0173044143474846	0.117460
H	0.9296665801856404 0.7338091333195751 0.0276467634151756	0.109480
H	0.0720184164340343 0.8878748827246228 0.0272017280583753	0.110017
H	0.1442453879270069 0.9619256285212993 0.0171694997754297	0.105952
H	0.2098215578492977 0.0385626310849726 0.0186016115202484	0.086854
H	0.2834552580690891 0.1070539727774731 0.0185251278669721	0.103926
H	0.3493426045531980 0.1627291362170172 0.0173044143474846	0.117460
H	0.4296664971856435 0.2338091093195731 0.0276467634151756	0.109475
H	0.5730817175970626 0.6117648771083454 -0.0277700761814307	0.102430
H	0.6449745204411731 0.5375453659897134 -0.0198212055587697	0.105528
H	0.7092776274838043 0.4615073001376534 -0.0213531189811658	0.086863
H	0.7832231553419973 0.3933482431525561 -0.0200605175081871	0.103675
H	0.8491587951931264 0.3380266714779714 -0.0181321777537238	0.117130
H	0.9294551719410924 0.2670427191791142 -0.0274295608053296	0.102885
H	0.0730817025970577 0.1117648541083471 -0.0277700761814307	0.102430
H	0.1449745514411726 0.0375453859897085 -0.0198212055587697	0.105528
H	0.2092775864838047 0.9615073001376534 -0.0213531189811657	0.086870
H	0.2832231553419974 0.8933482901525565 -0.0200605175081871	0.103676
H	0.3491588371931298 0.8380266944779698 -0.0181321777537238	0.117130
H	0.4294550889410960 0.7670427191791143 -0.0274295608053296	0.102886
H	0.4269182824029376 0.3882351458916530 0.4722299448185674	0.102429
H	0.3550254795588265 0.4624546340102859 0.4801788194412289	0.105528
H	0.2907224345161935 0.5384926998623466 0.4786468580188357	0.086863
H	0.2167768656580008 0.6066517568474439 0.4799395264918095	0.103682
H	0.1508411628068700 0.6619733525220305 0.4818677722462720	0.117130
H	0.0705448850589017 0.7329572808208857 0.4725704231946761	0.102886
H	0.9269182824029374 0.8882351688916584 0.4722299448185674	0.102429
H	0.8550254795588269 0.9624545880102899 0.4801788194412289	0.105528
H	0.7907223725161957 0.0384927058623470 0.4786468580188357	0.086863
H	0.7167768446580027 0.1066517448474428 0.4799395264918095	0.103682
H	0.6508411628068701 0.1619733405220296 0.4818677722462720	0.117130
H	0.5705448700589040 0.2329572568208839 0.4725704231946761	0.102886
H	0.5730817175970626 0.3882351458916530 0.4722299448185674	0.102429
H	0.6449745204411731 0.4624546340102859 0.4801788194412289	0.105529
H	0.7092776274838043 0.5384926998623466 0.4786468580188357	0.086863
H	0.7832231553419973 0.6066517568474439 0.4799395264918095	0.103682
H	0.8491587951931264 0.6619733525220305 0.4818677722462720	0.117130
H	0.9294551719410924 0.7329572808208857 0.4725704231946761	0.102886
H	0.0730817025970577 0.8882351688916584 0.4722299448185674	0.102429
H	0.1449745514411726 0.9624545880102899 0.4801788194412289	0.105529
H	0.2092775864838047 0.0384927058623470 0.4786468580188357	0.086863
H	0.2832231553419974 0.1066517448474428 0.4799395264918095	0.103682
H	0.3491588371931298 0.1619733405220296 0.4818677722462720	0.117130
H	0.4294550889410960 0.2329572568208839 0.4725704231946761	0.102887
H	0.4269182824029376 0.6117648771083454 -0.0277700761814307	0.102430
H	0.3550254795588265 0.5375453659897134 -0.0198212055587697	0.105528
H	0.2907224345161935 0.4615073001376534 -0.0213531189811657	0.086863
H	0.2167768656580008 0.3933482431525561 -0.0200605175081871	0.103675
H	0.1508411628068700 0.3380266714779714 -0.0181321777537238	0.117130
H	0.0705448850589017 0.2670427191791142 -0.0274295608053296	0.102885
H	0.9269182824029374 0.1117648541083470 -0.0277700761814307	0.102430
H	0.8550254795588269 0.0375453859897085 -0.0198212055587697	0.105528
H	0.7907223725161957 0.9615073001376534 -0.0213531189811657	0.086870
H	0.7167768446580027 0.8933482901525565 -0.0200605175081871	0.103676
H	0.6508411628068701 0.8380266944779698 -0.0181321777537238	0.117130
H	0.5705448700589040 0.7670427191791143 -0.0274295608053296	0.102886
H	0.4279815685659608 0.3878748597246172 0.0272017280583753	0.110017
H	0.3557546430729920 0.4619256745212955 0.0171694997754297	0.105952
H	0.2901784631507004 0.5385626250849719 0.0186016115202484	0.086849
H	0.2165447629309091 0.6070539847774742 0.0185251278669721	0.103926
H	0.1506573954468020 0.6627291482170183 0.0173044143474846	0.117460
H	0.0703334768143543 0.7338091333195751 0.0276467634151756	0.109479
H	0.9279815685659611 0.8878748827246228 0.0272017280583753	0.110017
H	0.8557546430729923 0.9619256285212993 0.0171694997754297	0.105952
H	0.7901784011507027 0.0385626310849726 0.0186016115202484	0.086854
H	0.7165447419309109 0.1070539727774731 0.0185251278669719	0.103926
H	0.6506573954468022 0.1627291362170172 0.0173044143474846	0.117460
H	0.5703334618143560 0.2338091093195731 0.0276467634151756	0.109481
H	0.5720184314340389 0.6121251632753810 0.5272017580583779	0.110018
H	0.6442453569270077 0.5380743254787040 0.5171694997754299	0.105951
H	0.7098215988492973 0.4614373749150278 0.5186015495202502	0.086849
H	0.7834552580690891 0.3929460152225261 0.5185251588669784	0.103925
H	0.8493425625531943 0.3372708757829838 0.5173043833474854	0.117459
H	0.9296665801856404 0.2661908666804251 0.5276467944151748	0.109480
H	0.0720184164340343 0.1121251402753828 0.5272017580583779	0.110018
H	0.1442453879270069 0.0380743454786989 0.5171694997754299	0.105951
H	0.2098215578492977 0.9614373749150281 0.5186015495202502	0.086849
H	0.2834552580690891 0.8929460622225261 0.5185251588669784	0.103925
H	0.3493426045531980 0.8372708987829820 0.5173043833474854	0.117459
H	0.4296664971856435 0.7661908666804250 0.5276467944151748	0.109475
Cd	0.5000000000000000 0.6891343343221584 0.7537889332636286	0.819852
Cd	0.0000000000000000 0.1891343343221588 0.7537889332636286	0.819853
Cd	0.5000000000000000 0.3108656656778410 0.2537889182636308	0.819851
Cd	0.0000000000000000 0.8108656186778412 0.2537889182636308	0.819851
F	0.5000000000000000 0.6856063021441080 0.4749870919501618	-0.675434
F	0.0000000000000000 0.1856063361441107 0.4749870919501618	-0.675433
F	0.5000000000000000 0.3143936748558936 0.9749870609501625	-0.675433
F	0.0000000000000000 0.8143936518558953 0.9749870609501625	-0.675433
F	0.4431524906653033 0.7482345781877172 0.2601062036671674	-0.609755
F	0.5559505879444699 0.6191020121721920 0.2590499595710080	-0.602840
F	0.9431524906653029 0.2482346241877137 0.2601062036671674	-0.609752
F	0.0559505879444692 0.1191020241721854 0.2590499595710080	-0.602846
F	0.5568475093346971 0.2517653758122865 0.7601062186671650	-0.609756
F	0.4440494120555306 0.3808979878278085 0.7590499745710053	-0.602839
F	0.0568474883346987 0.7517654218122828 0.7601062186671650	-0.609781
F	0.9440494120555301 0.8808980338278118 0.7590499745710053	-0.602844
F	0.5568475093346971 0.7482345781877172 0.2601062036671674	-0.609755
F	0.4440494120555306 0.6191020121721920 0.2590499595710080	-0.602840
F	0.0568474883346987 0.2482346241877137 0.2601062036671674	-0.609780
F	0.9440494120555301 0.1191020241721854 0.2590499595710080	-0.602846
F	0.4431524906653033 0.2517653758122865 0.7601062186671650	-0.609756
F	0.5559505879444699 0.3808979878278085 0.7590499745710053	-0.602839
F	0.9431524906653029 0.7517654218122828 0.7601062186671650	-0.609753
F	0.0559505879444692 0.8808980338278118 0.7590499745710053	-0.602845
O	0.5000000000000000 0.6857850313632469 0.0398883283352558	-0.959272
O	0.0000000000000000 0.1857850653632499 0.0398883283352558	-0.959278
O	0.5000000000000000 0.3142149456367544 0.5398883513352541	-0.959272
O	0.0000000000000000 0.8142149226367564 0.5398883513352541	-0.959277
N	0.4317018264224678 0.6153543636653356 0.7499380373026560	-0.226250
N	0.5675124062753792 0.7646150021180025 0.7503394455145682	-0.238087
N	0.9317018674224676 0.1153543746653327 0.7499380373026560	-0.226251
N	0.0675124222753804 0.2646149551180023 0.7503394455145682	-0.238087
N	0.5682981735775322 0.3846456133346662 0.2499380223026579	-0.226252
N	0.4324875937246209 0.2353850208819958 0.2503394305145709	-0.238074
N	0.0682981735775323 0.8846456363346645 0.2499380223026579	-0.226252
N	0.9324875937246208 0.7353849978819975 0.2503394305145709	-0.238071
N	0.5682981735775322 0.6153543636653355 0.7499380373026560	-0.226250
N	0.4324875937246209 0.7646150021180025 0.7503394455145682	-0.238090
N	0.0682981735775323 0.1153543746653327 0.7499380373026560	-0.226250
N	0.9324875937246208 0.2646149551180023 0.7503394455145682	-0.238087
N	0.4317018264224678 0.3846456133346662 0.2499380223026579	-0.226252
N	0.5675124062753792 0.2353850208819958 0.2503394305145709	-0.238070
N	0.9317018674224676 0.8846456363346644 0.2499380223026579	-0.226252
N	0.0675124222753804 0.7353849978819975 0.2503394305145709	-0.238070
Nb	0.5000000000000000 0.6842507616382736 0.2335303486738719	2.461916
Nb	0.0000000000000000 0.1842508076382703 0.2335303486738718	2.461958
Nb	0.5000000000000000 0.3157491923617297 0.7335303636738693	2.461916
Nb	0.0000000000000000 0.8157492383617264 0.7335303636738693	2.461958
	  	
