#======================================================================

# CRYSTAL DATA

#----------------------------------------------------------------------

data_VESTA_phase_1


_pd_phase_name                         NbOFFIVE_1_Cd
_cell_length_a                         11.77960
_cell_length_b                         11.77960
_cell_length_c                         8.31051
_cell_angle_alpha                      90
_cell_angle_beta                       90
_cell_angle_gamma                      90
_symmetry_space_group_name_H-M         P 1
_symmetry_Int_Tables_number            1

loop_
_symmetry_equiv_pos_as_xyz
   x, y, z

loop_
   _atom_site_label
   _atom_site_fract_x
   _atom_site_fract_y
   _atom_site_fract_z
   _atom_site_charge
C	0.2424466038850066 0.4637063580358375 0.3682543666385665	0.105267
C	0.1243439310392613 0.4624726801765478 0.3636017667078749	-0.170434
C	0.7575534391149934 0.5362936849641624 0.3682543666385665	0.105267
C	0.8756560149607341 0.5375273198234527 0.3636017667078749	-0.170434
C	0.5362936849641624 0.2424466038850066 0.3682543666385665	0.105268
C	0.5375273198234527 0.1243439310392613 0.3636017667078749	-0.170434
C	0.4637063580358375 0.7575534391149934 0.3682543666385665	0.105267
C	0.4624726801765478 0.8756560149607341 0.3636017667078749	-0.170434
C	0.7581689435006743 0.4625257266609172 0.6273043966185887	0.102894
C	0.8761617070640246 0.4615026931304166 0.6319898330713583	-0.175060
C	0.2418310994993255 0.5374743163390827 0.6273043966185887	0.102894
C	0.1238382389359708 0.5384973068695833 0.6319898330713583	-0.175060
C	0.4625257266609172 0.2418310994993255 0.6273043966185887	0.102894
C	0.4615026931304166 0.1238382389359708 0.6319898330713583	-0.175060
C	0.5374743163390828 0.7581689435006743 0.6273043966185887	0.102894
C	0.5384973068695833 0.8761617070640246 0.6319898330713583	-0.175060
C	0.0626909219872817 0.5002562432272174 0.4976988013777006	0.099835
C	0.9373090990127236 0.4997437567727827 0.4976988013777006	0.099837
C	0.4997437567727827 0.0626909219872817 0.4976988013777006	0.099836
C	0.5002562432272174 0.9373090990127236 0.4976988013777006	0.099837
H	0.2930162690029265 0.4349104281978068 0.2658759061821158	0.102102
H	0.0807900556066447 0.4300752662383920 0.2574227766208783	0.120478
H	0.7069837099970681 0.5650895718021931 0.2658759061821158	0.102102
H	0.9192099283933539 0.5699247337616078 0.2574227766208783	0.120477
H	0.5650895718021931 0.2930162690029265 0.2658759061821158	0.102102
H	0.5699247337616078 0.0807900556066447 0.2574227766208783	0.120478
H	0.4349104281978068 0.7069837099970681 0.2658759061821158	0.102102
H	0.4300752662383920 0.9192099283933539 0.2574227766208783	0.120477
H	0.7075839453798922 0.4337241355926908 0.7296747540242502	0.095221
H	0.9197418393094576 0.4293920604142732 0.7382648901952411	0.121479
H	0.2924160336201032 0.5662758644073090 0.7296747540242502	0.095221
H	0.0802581446905411 0.5706079395857272 0.7382648901952411	0.121478
H	0.4337241355926908 0.2924160336201032 0.7296747540242502	0.095221
H	0.4293920604142732 0.0802581446905411 0.7382648901952411	0.121479
H	0.5662758644073090 0.7075839453798922 0.7296747540242503	0.095221
H	0.5706079395857272 0.9197418393094576 0.7382648901952411	0.121478
Cd	0.5000000000000000 0.5000000000000000 0.5108087891150007	0.858520
Nb	0.5000000000000000 0.5000000000000000 -0.0086119508566700	2.469517
O	0.5000000000000000 0.5000000000000000 0.7753454558742314	-0.952048
F	0.5000000000000000 0.5000000000000000 0.2416766137960181	-0.621210
F	0.3826131812774604 0.3833326597112791 0.0170054244939979	-0.604000
F	0.6173868617225392 0.6166673832887214 0.0170054244939979	-0.604000
F	0.6166673832887214 0.3826131812774604 0.0170054244939979	-0.604000
F	0.3833326597112791 0.6173868617225392 0.0170054244939979	-0.604000
N	0.2998869445671818 0.5005600918959419 0.4981023860872810	-0.236477
N	0.7001130984328188 0.4994399081040577 0.4981023860872810	-0.236476
N	0.4994399081040577 0.2998869445671818 0.4981023860872810	-0.236477
N	0.5005600918959419 0.7001130984328188 0.4981023860872810	-0.236476
	  	
