#======================================================================

# CRYSTAL DATA

#----------------------------------------------------------------------

data_VESTA_phase_1


_pd_phase_name                         NbOFFIVE_2_Cd_i
_cell_length_a                         14.34036
_cell_length_b                         14.34036
_cell_length_c                         8.37258
_cell_angle_alpha                      90
_cell_angle_beta                       90
_cell_angle_gamma                      90
_symmetry_space_group_name_H-M         P 1
_symmetry_Int_Tables_number            1

loop_
_symmetry_equiv_pos_as_xyz
   x, y, z

loop_
   _atom_site_label
   _atom_site_fract_x
   _atom_site_fract_y
   _atom_site_fract_z
   _atom_site_charge
C	-0.0000000000000000 0.3086328835362729 0.3547869330798801	-0.160732
C	-0.0000000000000000 0.2118254747267110 0.3601422267166725	0.108011
C	0.5000000000000000 0.8086328835362731 0.8547869030798854	-0.160732
C	0.5000000000000000 0.7118254747267111 0.8601421677166712	0.108011
C	-0.0000000000000000 0.6913671164637269 0.3547869330798801	-0.160734
C	-0.0000000000000000 0.7881745252732890 0.3601422267166725	0.108013
C	0.5000000000000000 0.1913671164637271 0.8547869030798854	-0.160734
C	0.5000000000000000 0.2881745252732891 0.8601421677166712	0.108013
C	0.6913671164637269 0.0000000000000000 0.3547869330798801	-0.160732
C	0.7881745252732890 0.0000000000000000 0.3601422267166725	0.108014
C	0.1913671164637271 0.5000000000000000 0.8547869030798854	-0.160732
C	0.2881745252732891 0.5000000000000000 0.8601421677166712	0.108014
C	0.3086328835362729 0.0000000000000000 0.3547869330798801	-0.160734
C	0.2118254747267110 0.0000000000000000 0.3601422267166725	0.108016
C	0.8086328835362731 0.5000000000000000 0.8547869030798854	-0.160735
C	0.7118254747267110 0.5000000000000000 0.8601421677166712	0.108016
C	-0.0000000000000000 0.3085180327768710 0.6437466461595502	-0.161236
C	-0.0000000000000000 0.2118069180374483 0.6376360921983490	0.106939
C	0.5000000000000000 0.8085180327768712 0.1437466161595550	-0.161236
C	0.5000000000000000 0.7118069180374483 0.1376360481983523	0.106939
C	-0.0000000000000000 0.6914819672231288 0.6437466461595502	-0.161238
C	-0.0000000000000000 0.7881930819625517 0.6376360921983489	0.106941
C	0.5000000000000000 0.1914819672231291 0.1437466161595550	-0.161238
C	0.5000000000000000 0.2881930819625515 0.1376360481983523	0.106941
C	0.3085180327768710 0.0000000000000000 0.6437466461595502	-0.161238
C	0.2118069180374483 0.0000000000000000 0.6376360921983489	0.106944
C	0.8085180327768712 0.5000000000000000 0.1437466161595550	-0.161238
C	0.7118069180374483 0.5000000000000000 0.1376360481983523	0.106944
C	0.6914819672231288 0.0000000000000000 0.6437466461595502	-0.161236
C	0.7881930819625517 0.0000000000000000 0.6376360921983490	0.106942
C	0.1914819672231291 0.5000000000000000 0.1437466161595550	-0.161236
C	0.2881930819625515 0.5000000000000000 0.1376360481983523	0.106942
C	-0.0000000000000000 0.4574991631060509 0.4995031756300344	-0.096337
C	-0.0000000000000000 0.3588913937409816 0.4993304930975391	0.163200
C	0.5000000000000000 0.9574991281060515 -0.0004968243699656	-0.096337
C	0.5000000000000000 0.8588913587409822 -0.0006695069024610	0.163200
C	-0.0000000000000000 0.5425008368939491 0.4995031756300344	-0.096088
C	-0.0000000000000000 0.6411086412590178 0.4993304930975391	0.163170
C	0.5000000000000000 0.0425008498939538 -0.0004968243699656	-0.096088
C	0.5000000000000000 0.1411086242590199 -0.0006695069024610	0.163170
C	0.5425008368939491 0.0000000000000000 0.4995031756300344	-0.096337
C	0.6411086412590178 0.0000000000000000 0.4993304930975391	0.163200
C	0.0425008498939538 0.5000000000000000 -0.0004968243699656	-0.096337
C	0.1411086242590199 0.5000000000000000 -0.0006695069024610	0.163200
C	0.4574991631060509 0.0000000000000000 0.4995031756300344	-0.096089
C	0.3588913937409816 0.0000000000000000 0.4993304930975391	0.163170
C	0.9574991281060515 0.5000000000000000 -0.0004968243699656	-0.096088
C	0.8588913587409822 0.5000000000000000 -0.0006695069024610	0.163170
H	-0.0000000000000000 0.3448800083959761 0.2405069517791766	0.120355
H	-0.0000000000000000 0.1702200031847034 0.2510862969058790	0.098817
H	0.5000000000000000 0.8448800423959786 0.7405069667791745	0.120355
H	0.5000000000000000 0.6702200381847031 0.7510862819058811	0.098817
H	-0.0000000000000000 0.6551199576040214 0.2405069517791766	0.120354
H	-0.0000000000000000 0.8297799618152969 0.2510862969058790	0.098817
H	0.5000000000000000 0.1551199746040262 0.7405069667791745	0.120354
H	0.5000000000000000 0.3297799968152966 0.7510862819058811	0.098817
H	0.6551199576040214 0.0000000000000000 0.2405069517791766	0.120355
H	0.8297799618152969 0.0000000000000000 0.2510862969058790	0.098816
H	0.1551199746040262 0.5000000000000000 0.7405069667791745	0.120355
H	0.3297799968152966 0.5000000000000000 0.7510862819058811	0.098816
H	0.3448800083959761 0.0000000000000000 0.2405069517791766	0.120354
H	0.1702200031847034 0.0000000000000000 0.2510862969058790	0.098816
H	0.8448800423959786 0.5000000000000000 0.7405069667791745	0.120354
H	0.6702200381847031 0.5000000000000000 0.7510862819058811	0.098816
H	-0.0000000000000000 0.3445006814175689 0.7582864302159339	0.120783
H	-0.0000000000000000 0.1698955871590953 0.7463405534204286	0.092133
H	0.5000000000000000 0.8445007154175720 0.2582864592159331	0.120783
H	0.5000000000000000 0.6698956221590946 0.2463405244204297	0.092133
H	-0.0000000000000000 0.6554992845824280 0.7582864302159339	0.120782
H	-0.0000000000000000 0.8301043778409054 0.7463405534204286	0.092134
H	0.5000000000000000 0.1554993015824332 0.2582864592159331	0.120782
H	0.5000000000000000 0.3301044128409045 0.2463405244204297	0.092134
H	0.3445006814175689 0.0000000000000000 0.7582864302159339	0.120782
H	0.1698955871590953 0.0000000000000000 0.7463405534204286	0.092133
H	0.8445007154175720 0.5000000000000000 0.2582864592159331	0.120782
H	0.6698956221590946 0.5000000000000000 0.2463405244204297	0.092133
H	0.6554992845824280 0.0000000000000000 0.7582864302159339	0.120783
H	0.8301043778409054 0.0000000000000000 0.7463405534204286	0.092133
H	0.1554993015824332 0.5000000000000000 0.2582864592159331	0.120783
H	0.3301044128409045 0.5000000000000000 0.2463405244204297	0.092133
Cd	-0.0000000000000000 0.0000000000000000 0.5059468974706287	0.854135
Cd	0.5000000000000000 0.5000000000000000 0.0059468974706288	0.854135
Nb	-0.0000000000000000 0.0000000000000000 -0.0147738214084095	2.450913
Nb	0.5000000000000000 0.5000000000000000 0.4852261785915906	2.450913
N	-0.0000000000000000 0.1644144525628067 0.4988643020070672	-0.232370
N	0.5000000000000000 0.6644144525628067 -0.0011356979929328	-0.232370
N	-0.0000000000000000 0.8355855474371933 0.4988643020070672	-0.232370
N	0.5000000000000000 0.3355855474371932 -0.0011356979929328	-0.232370
N	0.8355855474371933 0.0000000000000000 0.4988643020070672	-0.232371
N	0.3355855474371932 0.5000000000000000 -0.0011356979929328	-0.232371
N	0.1644144525628067 0.0000000000000000 0.4988643020070672	-0.232371
N	0.6644144525628067 0.5000000000000000 -0.0011356979929328	-0.232371
O	-0.0000000000000000 0.0000000000000000 0.7707911820478276	-0.938813
O	0.5000000000000000 0.5000000000000000 0.2707911530478284	-0.938814
F	-0.0000000000000000 0.0000000000000000 0.2353289723959891	-0.619529
F	0.5000000000000000 0.5000000000000000 0.7353289283959922	-0.619529
F	0.5959592708689421 0.5959592708689421 0.5104466911629756	-0.596350
F	0.5959592708689421 0.4040406941310585 0.5104466911629756	-0.596350
F	0.4040406941310585 0.5959592708689421 0.5104466911629756	-0.596350
F	0.4040406941310585 0.4040406941310585 0.5104466911629756	-0.596350
F	0.0959592788689429 0.0959592788689429 0.0104466911629757	-0.596350
F	0.9040407291310579 0.9040407291310579 0.0104466911629757	-0.596350
F	0.9040407291310579 0.0959592788689429 0.0104466911629757	-0.596350
F	0.0959592788689429 0.9040407291310579 0.0104466911629757	-0.596350
	  	
