#======================================================================

# CRYSTAL DATA

#----------------------------------------------------------------------

data_VESTA_phase_1


_pd_phase_name                         NbOFFIVE_16_Cd_i
_cell_length_a                         25.53623
_cell_length_b                         25.53623
_cell_length_c                         8.22638
_cell_angle_alpha                      90
_cell_angle_beta                       90
_cell_angle_gamma                      90
_symmetry_space_group_name_H-M         P 1
_symmetry_Int_Tables_number            1

loop_
_symmetry_equiv_pos_as_xyz
   x, y, z

loop_
   _atom_site_label
   _atom_site_fract_x
   _atom_site_fract_y
   _atom_site_fract_z
   _atom_site_charge
C	0.4796066245874869 0.3812271010441660 0.3722953804516667	0.101179
C	0.4783133974229036 0.3268249404760364 0.3686779509296541	-0.171239
C	0.9559821130084353 0.6113605339681013 0.9446172674097468	-0.125497
C	0.9560928570015869 0.5569641326847324 0.9453226584202611	-0.124491
C	0.5203934134125164 0.6187728989558342 0.3722953804516667	0.101181
C	0.5216865645771002 0.6731750215239682 0.3686779509296541	-0.171240
C	0.0440178819915606 0.3886394660318986 0.9446172674097468	-0.125497
C	0.0439071479984098 0.4430358673152680 0.9453226584202611	-0.124491
C	0.6187728989558342 0.4796066245874869 0.3722953804516667	0.101181
C	0.6731750215239682 0.4783133974229036 0.3686779509296541	-0.171240
C	0.3886394660318986 0.9559821130084353 0.9446172674097468	-0.125497
C	0.4430358673152680 0.9560928570015869 0.9453226584202611	-0.124491
C	0.3812271010441660 0.5203934134125164 0.3722953804516667	0.101180
C	0.3268249404760364 0.5216865645771002 0.3686779509296541	-0.171239
C	0.6113605339681013 0.0440178819915606 0.9446172674097468	-0.125497
C	0.5569641326847324 0.0439071479984098 0.9453226584202611	-0.124491
C	0.5208192430990543 0.3813306676151338 0.6238255034570247	0.098352
C	0.5217137950393602 0.3269569761936975 0.6292514604764049	-0.171334
C	0.0440398634716999 0.6113353042398603 0.0554914220710061	-0.125459
C	0.0439180078447995 0.5569420962563307 0.0546616814411748	-0.124372
C	0.4791807949009494 0.6186693323848660 0.6238255034570247	0.098368
C	0.4782861669606438 0.6730429858063064 0.6292514604764049	-0.171339
C	0.9559601315282955 0.3886646957601400 0.0554914220710061	-0.125459
C	0.9560819971551975 0.4430579037436691 0.0546616814411748	-0.124372
C	0.3813306676151338 0.4791807949009494 0.6238255034570247	0.098352
C	0.3269569761936975 0.4782861669606438 0.6292514604764048	-0.171334
C	0.6113353042398603 0.9559601315282955 0.0554914220710061	-0.125459
C	0.5569420962563307 0.9560819971551975 0.0546616814411748	-0.124372
C	0.6186693323848660 0.5208192430990543 0.6238255034570247	0.098368
C	0.6730429858063064 0.5217137950393602 0.6292514604764048	-0.171340
C	0.3886646957601400 0.0440398634716999 0.0554914220710061	-0.125459
C	0.4430579037436691 0.0439180078447995 0.0546616814411748	-0.124372
C	0.5440398684717045 0.8886646957601397 0.5554914300710064	-0.125458
C	0.5439180028448025 0.9430579037436693 0.5546617174411780	-0.124372
C	0.0208192260990558 0.1186693233848689 0.1238255354570202	0.098351
C	0.0217138330393560 0.1730430048063045 0.1292514604764049	-0.171334
C	0.4559601705282960 0.1113352942398592 0.5554914300710064	-0.125458
C	0.4560819971551975 0.0569420862563301 0.5546617174411780	-0.124372
C	0.9791807189009426 0.8813306676151340 0.1238255354570202	0.098351
C	0.9782861669606437 0.8269569761936976 0.1292514604764049	-0.171334
C	0.1113352942398592 0.5440398684717045 0.5554914300710064	-0.125458
C	0.0569420862563301 0.5439180028448025 0.5546617174411780	-0.124372
C	0.8813306676151340 0.0208192260990558 0.1238255354570202	0.098351
C	0.8269569761936976 0.0217138330393560 0.1292514604764049	-0.171334
C	0.8886646957601397 0.4559601705282960 0.5554914300710064	-0.125459
C	0.9430579037436693 0.4560819971551975 0.5546617174411780	-0.124372
C	0.1186693233848689 0.9791807189009426 0.1238255354570202	0.098351
C	0.1730430048063045 0.9782861669606437 0.1292514604764049	-0.171334
C	0.4559821520084351 0.8886394660318987 0.4446172674097463	-0.125497
C	0.4560928570015870 0.9430358673152676 0.4453226584202608	-0.124491
C	0.9796065485874804 0.1187728899558369 0.8722953804516661	0.101180
C	0.9783133974229038 0.1731750405239658 0.8686779189296515	-0.171239
C	0.5440178869915647 0.1113605239681007 0.4446172674097463	-0.125497
C	0.5439071429984131 0.0569641226847315 0.4453226584202608	-0.124491
C	0.0203933964125185 0.8812271010441658 0.8722953804516661	0.101180
C	0.0216866025770963 0.8268249404760357 0.8686779189296515	-0.171239
C	0.8886394660318987 0.5440178869915647 0.4446172674097463	-0.125497
C	0.9430358673152676 0.5439071429984131 0.4453226584202608	-0.124491
C	0.1187728899558369 0.0203933964125185 0.8722953804516661	0.101180
C	0.1731750405239658 0.0216866025770963 0.8686779189296515	-0.171239
C	0.1113605239681007 0.4559821520084351 0.4446172674097463	-0.125497
C	0.0569641226847315 0.4560928570015870 0.4453226584202608	-0.124491
C	0.8812271010441658 0.9796065485874804 0.8722953804516661	0.101180
C	0.8268249404760357 0.9783133974229038 0.8686779189296515	-0.171239
C	0.4999099838969287 0.2984327689787664 0.4992518482885824	0.175083
C	0.4998290073422228 0.2428939199103138 0.4998000770826910	-0.116159
C	0.4999312713257200 0.1951112950744489 0.5000150179174788	-0.094235
C	0.4999833873100485 0.1395445689775453 0.5000837582161159	0.125532
C	0.4999972916387438 0.0288371120266374 0.4999653652554178	0.065633
C	0.0000900161030714 0.7984327889787680 -0.0007481517114177	0.175083
C	0.0001709926577774 0.7428939389103121 -0.0001999229173089	-0.116159
C	0.0000687286742803 0.6951112950744490 0.0000150179174789	-0.094235
C	0.0000166126899513 0.6395445689775456 0.0000837582161152	0.125532
C	0.0000027083612561 0.5288371080266372 -0.0000346347445822	0.065633
C	0.5000900161030718 0.7015671730212359 0.4992518482885824	0.175084
C	0.5001709926577774 0.7571060990896840 0.4998000770826910	-0.116159
C	0.5000687286742805 0.8048886659255513 0.5000150179174788	-0.094235
C	0.5000166126899515 0.8604553920224547 0.5000837582161159	0.125532
C	0.5000027083612560 0.9711629309733625 0.4999653652554178	0.065633
C	-0.0000900161030714 0.2015672110212320 -0.0007481517114177	0.175083
C	-0.0001709926577774 0.2571060800896862 -0.0001999229173089	-0.116159
C	-0.0000687286742803 0.3048886849255494 0.0000150179174789	-0.094235
C	-0.0000166126899513 0.3604554310224546 0.0000837582161152	0.125532
C	-0.0000027083612561 0.4711628919733629 -0.0000346347445822	0.065633
C	0.7015671730212359 0.4999099838969287 0.4992518482885824	0.175084
C	0.7571060990896840 0.4998290073422228 0.4998000770826910	-0.116159
C	0.8048886659255513 0.4999312713257200 0.5000150179174788	-0.094235
C	0.8604553920224547 0.4999833873100485 0.5000837582161159	0.125532
C	0.9711629309733625 0.4999972916387438 0.4999653652554178	0.065633
C	0.2015672110212320 0.0000900161030714 -0.0007481517114177	0.175083
C	0.2571060800896862 0.0001709926577774 -0.0001999229173089	-0.116159
C	0.3048886849255494 0.0000687286742803 0.0000150179174789	-0.094235
C	0.3604554310224546 0.0000166126899513 0.0000837582161152	0.125532
C	0.4711628919733629 0.0000027083612561 -0.0000346347445822	0.065633
C	0.2984327689787664 0.5000900161030718 0.4992518482885824	0.175083
C	0.2428939199103138 0.5001709926577774 0.4998000770826910	-0.116159
C	0.1951112950744489 0.5000687286742805 0.5000150179174788	-0.094235
C	0.1395445689775453 0.5000166126899515 0.5000837582161159	0.125532
C	0.0288371120266374 0.5000027083612560 0.4999653652554178	0.065633
C	0.7984327889787680 -0.0000900161030714 -0.0007481517114177	0.175083
C	0.7428939389103121 -0.0001709926577774 -0.0001999229173089	-0.116159
C	0.6951112950744490 -0.0000687286742803 0.0000150179174789	-0.094235
C	0.6395445689775456 -0.0000166126899513 0.0000837582161152	0.125532
C	0.5288371080266372 -0.0000027083612561 -0.0000346347445822	0.065633
H	0.4640442489286191 0.4044984018868744 0.2717454820779816	0.103067
H	0.4610036005273808 0.3065073130530047 0.2654732252283105	0.125531
H	0.9220125280461926 0.6328057169784905 0.9001086767377930	0.111495
H	0.9221527823986089 0.5357268375926623 0.8989433262345543	0.106170
H	0.5359557510713806 0.5955016361131215 0.2717454820779816	0.103067
H	0.5389964374726154 0.6934927059470009 0.2654732252283105	0.125531
H	0.0779874719538071 0.3671943210215054 0.9001086767377930	0.111495
H	0.0778471986013927 0.4642731624073373 0.8989433262345543	0.106170
H	0.5955016361131215 0.4640442489286191 0.2717454820779816	0.103067
H	0.6934927059470009 0.4610036005273808 0.2654732252283105	0.125531
H	0.3671943210215054 0.9220125280461926 0.9001086767377930	0.111495
H	0.4642731624073373 0.9221527823986089 0.8989433262345543	0.106170
H	0.4044984018868744 0.5359557510713806 0.2717454820779816	0.103067
H	0.3065073130530047 0.5389964374726154 0.2654732252283105	0.125531
H	0.6328057169784905 0.0779874719538071 0.9001086767377930	0.111495
H	0.5357268375926623 0.0778471986013927 0.8989433262345543	0.106170
H	0.5364782130285352 0.4047965078679664 0.7236547633686966	0.098140
H	0.5388543712570177 0.3068337013603763 0.7330827835740406	0.126041
H	0.0780110441692757 0.6327698926372289 0.1000275066668784	0.111310
H	0.0778563473894305 0.5356898296817376 0.1009750550603580	0.106209
H	0.4635217869714645 0.5952035301320303 0.7236547633686966	0.098137
H	0.4611456667429775 0.6931663176396289 0.7330827835740406	0.126042
H	0.9219889558307243 0.3672301453627667 0.1000275066668784	0.111310
H	0.9221436336105719 0.4643101703182626 0.1009750550603580	0.106209
H	0.4047965078679664 0.4635217869714645 0.7236547633686966	0.098140
H	0.3068337013603763 0.4611456667429775 0.7330827835740406	0.126041
H	0.6327698926372289 0.9219889558307243 0.1000275066668784	0.111310
H	0.5356898296817376 0.9221436336105719 0.1009750550603580	0.106209
H	0.5952035301320303 0.5364782130285352 0.7236547633686966	0.098137
H	0.6931663176396289 0.5388543712570177 0.7330827835740406	0.126042
H	0.3672301453627667 0.0780110441692757 0.1000275066668784	0.111310
H	0.4643101703182626 0.0778563473894305 0.1009750550603580	0.106209
H	0.5780110061692797 0.8672301073627711 0.6000275306668802	0.111310
H	0.5778563283894320 0.9643101323182663 0.6009750710603594	0.106209
H	0.0364782150285355 0.0952034921320337 0.2236547633686969	0.098140
H	0.0388543332570223 0.1931662986396238 0.2330827835740406	0.126041
H	0.4219889558307242 0.1327698636372306 0.6000275306668802	0.111310
H	0.4221436716105674 0.0356898466817352 0.6009750710603594	0.106209
H	0.9635218249714680 0.9047965078679657 0.2236547633686969	0.098140
H	0.9611456667429783 0.8068337203603743 0.2330827835740406	0.126041
H	0.1327698636372306 0.5780110061692797 0.6000275306668802	0.111310
H	0.0356898466817352 0.5778563283894320 0.6009750710603594	0.106209
H	0.9047965078679657 0.0364782150285355 0.2236547633686969	0.098140
H	0.8068337203603743 0.0388543332570223 0.2330827835740406	0.126041
H	0.8672301073627711 0.4219889558307242 0.6000275306668802	0.111310
H	0.9643101323182663 0.4221436716105674 0.6009750710603594	0.106209
H	0.0952034921320337 0.9635218249714680 0.2236547633686969	0.098140
H	0.1931662986396238 0.9611456667429783 0.2330827835740406	0.126041
H	0.4220125280461929 0.8671942830215095 0.4001086447377908	0.111495
H	0.4221528203986055 0.9642731244073417 0.3989433902345523	0.106170
H	0.9640442869286225 0.0955015981131256 0.7717454980779828	0.103066
H	0.9610036005273807 0.1934926869469953 0.7654731932283149	0.125530
H	0.5779874339538114 0.1328056879784916 0.4001086447377908	0.111495
H	0.5778471796013951 0.0357268545926604 0.3989433902345523	0.106170
H	0.0359557530713811 0.9044984018868746 0.7717454980779828	0.103066
H	0.0389963994726194 0.8065073320530023 0.7654731932283149	0.125530
H	0.8671942830215095 0.5779874339538114 0.4001086447377908	0.111495
H	0.9642731244073417 0.5778471796013951 0.3989433902345523	0.106170
H	0.0955015981131256 0.0359557530713811 0.7717454980779828	0.103067
H	0.1934926869469953 0.0389963994726194 0.7654731932283149	0.125530
H	0.1328056879784916 0.4220125280461929 0.4001086447377908	0.111495
H	0.0357268545926604 0.4221528203986055 0.3989433902345523	0.106170
H	0.9044984018868746 0.9640442869286225 0.7717454980779828	0.103066
H	0.8065073320530023 0.9610036005273807 0.7654731932283149	0.125530
Cd	0.5000000000000000 0.5000000000000000 0.5071150280513633	0.861858
Cd	0.0000000000000000 0.0000000000000000 0.0071150280513634	0.861857
Nb	0.5000000000000000 0.5000000000000000 -0.0115228495747475	2.474924
Nb	0.0000000000000000 0.0000000000000000 0.4884771504252522	2.474924
F	0.5000000000000000 0.5000000000000000 0.2394376923420541	-0.618782
F	0.0000000000000000 0.0000000000000000 0.7394376443420501	-0.618782
F	0.5543036449634231 0.5537759751487852 0.0134313702870695	-0.606894
F	0.0537759471487899 0.0543036169634278 0.5134313702870689	-0.606893
F	0.4456963930365732 0.4462240628512109 0.0134313702870695	-0.606893
F	0.9462240248512148 0.9456963550365769 0.5134313702870689	-0.606893
F	0.4462240628512109 0.5543036449634231 0.0134313702870695	-0.606894
F	0.9456963550365769 0.0537759471487899 0.5134313702870689	-0.606893
F	0.5537759751487852 0.4456963930365732 0.0134313702870695	-0.606893
F	0.0543036169634278 0.9462240248512148 0.5134313702870689	-0.606893
O	0.5000000000000000 0.5000000000000000 0.7711093345594925	-0.953147
O	0.0000000000000000 0.0000000000000000 0.2711093025594898	-0.953138
N	0.5003251363160423 0.4079132839110839 0.4977635860025505	-0.235277
N	-0.0003251363160421 0.9079133219110869 -0.0022364139974493	-0.235277
N	0.4996748636839580 0.5920867160889163 0.4977635860025505	-0.235287
N	0.0003251363160421 0.0920866880889138 -0.0022364139974493	-0.235277
N	0.5920867160889163 0.5003251363160423 0.4977635860025505	-0.235286
N	0.0920866880889138 -0.0003251363160421 -0.0022364139974493	-0.235277
N	0.4079132839110839 0.4996748636839580 0.4977635860025505	-0.235278
N	0.9079133219110869 0.0003251363160421 -0.0022364139974493	-0.235277
	  	
