#======================================================================

# CRYSTAL DATA

#----------------------------------------------------------------------

data_VESTA_phase_1


_pd_phase_name                         NbOFFIVE_7_Co
_cell_length_a                         18.72797
_cell_length_b                         18.72797
_cell_length_c                         8.30929
_cell_angle_alpha                      90
_cell_angle_beta                       90
_cell_angle_gamma                      90
_symmetry_space_group_name_H-M         P 1
_symmetry_Int_Tables_number            1

loop_
_symmetry_equiv_pos_as_xyz
   x, y, z

loop_
   _atom_site_label
   _atom_site_fract_x
   _atom_site_fract_y
   _atom_site_fract_z
   _atom_site_charge
C	0.6682084517941328 0.8687535699057419 0.6943120903915027	0.095891
C	0.6157231078092714 0.9209764029710629 0.6981359770257154	-0.174670
C	0.5819633655352418 0.8860285209537575 0.4315011466143797	-0.168554
C	0.6343210469892342 0.8338407484365873 0.4373421253559817	0.089037
C	0.8317915482058672 0.6312464300942581 0.6943120903915027	0.095890
C	0.8842768921907286 0.5790235970289371 0.6981359770257154	-0.174648
C	0.9180365844647612 0.6139715300462432 0.4315011466143797	-0.168538
C	0.8656789030107688 0.6661592515634127 0.4373421253559817	0.089092
C	0.6312464300942581 0.6682084517941328 0.6943120903915027	0.095891
C	0.5790235970289371 0.6157231078092714 0.6981359770257154	-0.174647
C	0.6139715300462432 0.5819633655352418 0.4315011466143797	-0.168537
C	0.6661592515634127 0.6343210469892342 0.4373421253559817	0.089093
C	0.8687535699057419 0.8317915482058672 0.6943120903915027	0.095892
C	0.9209764029710629 0.8842768921907286 0.6981359770257154	-0.174669
C	0.8860285209537575 0.9180365844647612 0.4315011466143797	-0.168552
C	0.8338407484365873 0.8656789030107688 0.4373421253559817	0.089037
C	0.3315956106978944 0.3681185146228323 0.3061924952787043	0.091884
C	0.3839474247875858 0.4206039938298353 0.3015268640723909	-0.173946
C	0.4184128534123719 0.3863629302074460 0.5681509113734239	-0.170663
C	0.3663021801849676 0.3340575000397485 0.5631860387239510	0.092570
C	0.1684043763021081 0.1318814853771676 0.3061924952787043	0.091884
C	0.1160525752124141 0.0793960061701648 0.3015268640723909	-0.173946
C	0.0815871465876282 0.1136370697925540 0.5681509113734239	-0.170663
C	0.1336978068150348 0.1659424999602515 0.5631860387239510	0.092570
C	0.3681185146228323 0.1684043763021081 0.3061924952787043	0.091884
C	0.4206039938298353 0.1160525752124141 0.3015268640723909	-0.173945
C	0.3863629302074460 0.0815871465876282 0.5681509113734239	-0.170662
C	0.3340575000397485 0.1336978068150348 0.5631860387239510	0.092571
C	0.1318814853771676 0.3315956106978944 0.3061924952787043	0.091884
C	0.0793960061701648 0.3839474247875858 0.3015268640723909	-0.173945
C	0.1136370697925540 0.4184128534123719 0.5681509113734239	-0.170662
C	0.1659424999602515 0.3663021801849676 0.5631860387239510	0.092571
C	0.4317587002963865 0.0714480454081296 0.4352708553742742	0.139172
C	0.4873497148570966 0.0170111261011996 0.4331670256158633	-0.123106
C	0.0682412807036085 0.4285519235918713 0.4352708553742742	0.139173
C	0.0126502591429013 0.4829888598987992 0.4331670256158633	-0.123110
C	0.4285519235918713 0.4317587002963865 0.4352708553742742	0.139173
C	0.4829888598987992 0.4873497148570966 0.4331670256158633	-0.123110
C	0.0714480454081296 0.0682412807036085 0.4352708553742742	0.139172
C	0.0170111261011996 0.0126502591429013 0.4331670256158633	-0.123106
C	0.5684096896673052 0.5712907079203479 0.5638741952787458	0.138406
C	0.5128060486936770 0.5168852934036753 0.5655319632951882	-0.122751
C	0.9315903603326989 0.9287093420796563 0.5638741952787458	0.138489
C	0.9871939003063224 0.9831147065963247 0.5655319632951882	-0.122774
C	0.5712907079203479 0.9315903603326989 0.5638741952787458	0.138489
C	0.5168852934036753 0.9871939003063224 0.5655319632951882	-0.122774
C	0.9287093420796563 0.5684096896673052 0.5638741952787458	0.138406
C	0.9831147065963247 0.5128060486936770 0.5655319632951882	-0.122752
H	0.7034288415417300 0.8594010448252821 0.7960429308079082	0.100071
H	0.6101098050024152 0.9535758586126858 0.8060502521287255	0.120742
H	0.5489362246270726 0.8897822054921585 0.3240315423808573	0.120195
H	0.6437817218382108 0.7981839794896642 0.3363973951189815	0.105180
H	0.7965711584582700 0.6405989041747172 0.7960429308079082	0.100071
H	0.8898901949975848 0.5464240913873172 0.8060502521287254	0.120741
H	0.9510637243729267 0.6102177435078409 0.3240315423808573	0.120195
H	0.8562182781617892 0.7018160205103358 0.3363973951189815	0.105171
H	0.6405989041747172 0.7034288415417300 0.7960429308079082	0.100071
H	0.5464240913873172 0.6101098050024152 0.8060502521287255	0.120741
H	0.6102177435078409 0.5489362246270726 0.3240315423808573	0.120195
H	0.7018160205103358 0.6437817218382108 0.3363973951189815	0.105171
H	0.8594010448252821 0.7965711584582700 0.7960429308079082	0.100071
H	0.9535758586126858 0.8898901949975848 0.8060502521287254	0.120743
H	0.8897822054921585 0.9510637243729267 0.3240315423808573	0.120196
H	0.7981839794896642 0.8562182781617892 0.3363973951189815	0.105180
H	0.2965074972693949 0.3583237727088470 0.2043989068384906	0.105194
H	0.3893647872070739 0.4529808990001903 0.1931809255066383	0.121365
H	0.4516794854783193 0.3902794178370335 0.6751701171649174	0.120294
H	0.3572743247492915 0.2982757898298785 0.6640696565952374	0.099324
H	0.2034925157306096 0.1416762402911574 0.2043989068384906	0.105194
H	0.1106351867929240 0.0470191199998076 0.1931809255066383	0.121365
H	0.0483205455216796 0.1097205691629620 0.6751701171649174	0.120294
H	0.1427256752507085 0.2017241971701240 0.6640696565952374	0.099324
H	0.3583237727088470 0.2034925157306096 0.2043989068384906	0.105194
H	0.4529808990001903 0.1106351867929240 0.1931809255066383	0.121365
H	0.3902794178370335 0.0483205455216796 0.6751701171649174	0.120295
H	0.2982757898298785 0.1427256752507085 0.6640696565952374	0.099324
H	0.1416762402911574 0.2965074972693949 0.2043989068384906	0.105194
H	0.0470191199998076 0.3893647872070739 0.1931809255066383	0.121365
H	0.1097205691629620 0.4516794854783193 0.6751701171649174	0.120295
H	0.2017241971701240 0.3572743247492915 0.6640696565952374	0.099324
H	0.5071042970653177 0.0013590099245551 0.3144130929241744	0.104919
H	0.9928956529346853 0.4986409880754447 0.3144130929241744	0.104918
H	0.4986409880754447 0.5071042970653177 0.3144130929241744	0.104918
H	0.0013590099245551 0.9928956529346853 0.3144130929241744	0.104919
H	0.4930435000539957 0.5012929220245643 0.6843534602416913	0.104387
H	0.0069564809460064 0.9987071279754327 0.6843534602416913	0.104389
H	0.5012929220245643 0.0069564809460064 0.6843534602416913	0.104389
H	0.9987071279754327 0.4930435000539957 0.6843534602416913	0.104387
Co	0.2500000000000000 0.2500000000000000 0.4379923293644181	0.605479
Co	0.7500000000000000 0.7500000000000000 0.5704235303284597	0.604122
Nb	0.2500000000000000 0.2500000000000000 0.9160706400832054	2.411467
Nb	0.7500000000000000 0.7500000000000000 0.0463539860731684	2.411900
F	0.2500000000000000 0.2500000000000000 0.1696066901672905	-0.619070
F	0.7500000000000000 0.7500000000000000 0.3000922818473739	-0.617776
F	0.3253787122841086 0.3222462652435341 0.9396147679301207	-0.596048
F	0.1746212877158916 0.1777537217564681 0.9396147679301207	-0.596048
F	0.1777537217564681 0.3253787122841086 0.9396147679301207	-0.596048
F	0.3222462652435341 0.1746212877158916 0.9396147679301207	-0.596048
F	0.6757764979292150 0.8234346507136527 0.0698065931076274	-0.596406
F	0.8242235020707850 0.6765653492863473 0.0698065931076274	-0.596407
F	0.8234346507136527 0.8242235020707850 0.0698065931076274	-0.596406
F	0.6765653492863473 0.6757764979292150 0.0698065931076274	-0.596407
O	0.2500000000000000 0.2500000000000000 0.7002067859691924	-0.921684
O	0.7500000000000000 0.7500000000000000 0.8306319453263560	-0.922521
N	0.3250833290775172 0.1770993871901894 0.4349113730448794	-0.179806
N	0.1749166709224827 0.3229006128098105 0.4349113730448794	-0.179806
N	0.3229006128098105 0.3250833290775172 0.4349113730448794	-0.179806
N	0.1770993871901894 0.1749166709224827 0.4349113730448794	-0.179806
N	0.6747332694334437 0.6772826802196327 0.5665226772697743	-0.180742
N	0.8252667305665563 0.8227173197803673 0.5665226772697743	-0.180726
N	0.6772826802196327 0.8252667305665563 0.5665226772697743	-0.180726
N	0.8227173197803673 0.6747332694334437 0.5665226772697743	-0.180742
	  	
