#======================================================================

# CRYSTAL DATA

#----------------------------------------------------------------------

data_VESTA_phase_1


_pd_phase_name                         NbOFFIVE_7_Ni
_cell_length_a                         19.13693
_cell_length_b                         19.13693
_cell_length_c                         8.07390
_cell_angle_alpha                      90
_cell_angle_beta                       90
_cell_angle_gamma                      90
_symmetry_space_group_name_H-M         P 1
_symmetry_Int_Tables_number            1

loop_
_symmetry_equiv_pos_as_xyz
   x, y, z

loop_
   _atom_site_label
   _atom_site_fract_x
   _atom_site_fract_y
   _atom_site_fract_z
   _atom_site_charge
C	0.6655933107302748 0.8718718770709947 0.6959759846474539	0.105622
C	0.6143321355395228 0.9232041639321817 0.7006386508397764	-0.178207
C	0.5795933879457188 0.8877246113954822 0.4282401135093762	-0.171696
C	0.6310688544755312 0.8367508881129787 0.4343731684272124	0.099966
C	0.8344066892697252 0.6281281229290053 0.6959759846474539	0.105623
C	0.8856678644604772 0.5767958360678183 0.7006386508397764	-0.178221
C	0.9204065620542842 0.6122754396045185 0.4282401135093762	-0.171713
C	0.8689310955244718 0.6632491118870213 0.4343731684272124	0.099967
C	0.6281281229290053 0.6655933107302748 0.6959759846474539	0.105622
C	0.5767958360678183 0.6143321355395228 0.7006386508397764	-0.178207
C	0.6122754396045185 0.5795933879457188 0.4282401135093762	-0.171696
C	0.6632491118870213 0.6310688544755312 0.4343731684272124	0.099966
C	0.8718718770709947 0.8344066892697252 0.6959759846474539	0.105623
C	0.9232041639321817 0.8856678644604772 0.7006386508397764	-0.178221
C	0.8877246113954822 0.9204065620542842 0.4282401135093762	-0.171713
C	0.8367508881129787 0.8689310955244718 0.4343731684272124	0.099967
C	0.3343274996353684 0.3715490351304374 0.3039698366360521	0.103705
C	0.3854917987879029 0.4230846216717172 0.2990939743899651	-0.176172
C	0.4206022228033101 0.3880160150790995 0.5714040930360557	-0.173981
C	0.3693212280397717 0.3369332533097739 0.5655644405839899	0.102530
C	0.1656724873646341 0.1284509648695628 0.3039698366360521	0.103718
C	0.1145082012120973 0.0769153783282828 0.2990939743899651	-0.176134
C	0.0793977771966900 0.1119839849209006 0.5714040930360557	-0.173981
C	0.1306787589602307 0.1630667466902261 0.5655644405839899	0.102540
C	0.3715490351304374 0.1656724873646341 0.3039698366360521	0.103718
C	0.4230846216717172 0.1145082012120973 0.2990939743899651	-0.176133
C	0.3880160150790995 0.0793977771966900 0.5714040930360557	-0.173980
C	0.3369332533097739 0.1306787589602307 0.5655644405839899	0.102540
C	0.1284509648695628 0.3343274996353684 0.3039698366360521	0.103706
C	0.0769153783282828 0.3854917987879029 0.2990939743899651	-0.176171
C	0.1119839849209006 0.4206022228033101 0.5714040930360557	-0.173981
C	0.1630667466902261 0.3693212280397717 0.5655644405839899	0.102531
C	0.4330801603715449 0.0701549216526183 0.4356513763921366	0.139204
C	0.4873426776796600 0.0167975595113468 0.4320915902672154	-0.122019
C	0.0669198206284500 0.4298450473473826 0.4356513763921366	0.139211
C	0.0126572963203378 0.4832024264886521 0.4320915902672154	-0.122033
C	0.4298450473473826 0.4330801603715449 0.4356513763921366	0.139210
C	0.4832024264886521 0.4873426776796600 0.4320915902672154	-0.122018
C	0.0701549216526183 0.0669198206284500 0.4356513763921366	0.139205
C	0.0167975595113468 0.0126572963203378 0.4320915902672154	-0.122033
C	0.5671167258128649 0.5700465467765116 0.5637745211790727	0.139574
C	0.5127799376647270 0.5167014546826145 0.5670430389798182	-0.122155
C	0.9328833241871393 0.9299535032234926 0.5637745211790727	0.139574
C	0.9872200113352724 0.9832985453173855 0.5670430389798182	-0.122109
C	0.5700465467765116 0.9328833241871393 0.5637745211790727	0.139574
C	0.5167014546826145 0.9872200113352724 0.5670430389798182	-0.122155
C	0.9299535032234926 0.5671167258128649 0.5637745211790727	0.139574
C	0.9832985453173855 0.5127799376647270 0.5670430389798182	-0.122109
H	0.7003659247939538 0.8635473433741332 0.8005826391435675	0.092748
H	0.6092446226740329 0.9557992276197459 0.8106130252391563	0.117029
H	0.5463365107086477 0.8909255571589798 0.3190397753902269	0.116935
H	0.6393733135401141 0.8014147141258930 0.3308236511657386	0.099388
H	0.7996340752060462 0.6364526056258661 0.8005826391435675	0.092748
H	0.8907553773259671 0.5442007223802571 0.8106130252391563	0.117030
H	0.9536634382913516 0.6090743918410195 0.3190397753902269	0.116938
H	0.8606266864598859 0.6985852858741070 0.3308236511657386	0.099388
H	0.6364526056258661 0.7003659247939538 0.8005826391435675	0.092748
H	0.5442007223802571 0.6092446226740329 0.8106130252391563	0.117029
H	0.6090743918410195 0.5463365107086477 0.3190397753902269	0.116935
H	0.6985852858741070 0.6393733135401141 0.3308236511657386	0.099388
H	0.8635473433741332 0.7996340752060462 0.8005826391435675	0.092748
H	0.9557992276197459 0.8907553773259671 0.8106130252391563	0.117030
H	0.8909255571589798 0.9536634382913516 0.3190397753902269	0.116938
H	0.8014147141258930 0.8606266864598859 0.3308236511657386	0.099388
H	0.2996758605437301 0.3628646909075295 0.1991803595985140	0.099430
H	0.3904467157185116 0.4555711604134499 0.1888493588406231	0.116489
H	0.4539580341025360 0.3912733495461445 0.6804125192940977	0.117217
H	0.3613256489451404 0.3014246480580166 0.6689317318762856	0.092849
H	0.2003241524562746 0.1371353220924750 0.1991803595985140	0.099408
H	0.1095532582814862 0.0444288585865480 0.1888493588406231	0.116483
H	0.0460419968974630 0.1087266374538509 0.6804125192940977	0.117216
H	0.1386743510548597 0.1985753389419860 0.6689317318762856	0.092848
H	0.3628646909075295 0.2003241524562746 0.1991803595985140	0.099408
H	0.4555711604134499 0.1095532582814862 0.1888493588406231	0.116483
H	0.3912733495461445 0.0460419968974630 0.6804125192940977	0.117216
H	0.3014246480580166 0.1386743510548597 0.6689317318762856	0.092848
H	0.1371353220924750 0.2996758605437301 0.1991803595985140	0.099430
H	0.0444288585865480 0.3904467157185116 0.1888493588406231	0.116489
H	0.1087266374538509 0.4539580341025360 0.6804125192940977	0.117216
H	0.1985753389419860 0.3613256489451404 0.6689317318762856	0.092849
H	0.5062011536353226 0.0019313301597435 0.3091626716059024	0.103064
H	0.9937987963646804 0.4980686678402563 0.3091626716059024	0.103066
H	0.4980686678402563 0.5062011536353226 0.3091626716059024	0.103064
H	0.0019313301597435 0.9937987963646804 0.3091626716059024	0.103066
H	0.4939066519127039 0.5019015773521280 0.6901089338871478	0.102662
H	0.0060933290872979 0.9980984726478690 0.6901089338871478	0.102654
H	0.5019015773521280 0.0060933290872979 0.6901089338871478	0.102662
H	0.9980984726478690 0.4939066519127039 0.6901089338871478	0.102654
Ni	0.2500000000000000 0.2500000000000000 0.4384857055475334	0.794991
Ni	0.7500000000000000 0.7500000000000000 0.5701435384909932	0.795513
Nb	0.2500000000000000 0.2500000000000000 0.9148783614808766	2.428740
Nb	0.7500000000000000 0.7500000000000000 0.0450476489270196	2.426931
F	0.2500000000000000 0.2500000000000000 0.1797474620413291	-0.623609
F	0.7500000000000000 0.7500000000000000 0.3103800116607712	-0.622772
F	0.3232124645744516 0.3204920029790206 0.9402889044743051	-0.586019
F	0.1767875354255483 0.1795079840209818 0.9402889044743051	-0.586019
F	0.1795079840209818 0.3232124645744516 0.9402889044743051	-0.586019
F	0.3204920029790206 0.1767875354255483 0.9402889044743051	-0.586018
F	0.6778674374460882 0.8216725491100350 0.0703231131591708	-0.586144
F	0.8221325625539118 0.6783274508899650 0.0703231131591708	-0.586144
F	0.8216725491100350 0.8221325625539118 0.0703231131591708	-0.586144
F	0.6783274508899650 0.6778674374460882 0.0703231131591708	-0.586144
O	0.2500000000000000 0.2500000000000000 0.6924324501396932	-0.934682
O	0.7500000000000000 0.7500000000000000 0.8228186365974446	-0.933834
N	0.3287038553859202 0.1736926699385820 0.4348057373171074	-0.232591
N	0.1712961446140797 0.3263073300614179 0.4348057373171074	-0.232561
N	0.3263073300614179 0.3287038553859202 0.4348057373171074	-0.232563
N	0.1736926699385820 0.1712961446140797 0.4348057373171074	-0.232589
N	0.6711246298902612 0.6738783006717715 0.5655732631486150	-0.232284
N	0.8288753701097388 0.8261216993282285 0.5655732631486150	-0.232285
N	0.6738783006717715 0.8288753701097388 0.5655732631486150	-0.232284
N	0.8261216993282285 0.6711246298902612 0.5655732631486150	-0.232285
	  	
