#======================================================================

# CRYSTAL DATA

#----------------------------------------------------------------------

data_VESTA_phase_1


_pd_phase_name                         NbOFFIVE_15_Fe_i
_cell_length_a                         29.70872
_cell_length_b                         28.57804
_cell_length_c                         8.32186
_cell_angle_alpha                      90
_cell_angle_beta                       90
_cell_angle_gamma                      90
_symmetry_space_group_name_H-M         P 1
_symmetry_Int_Tables_number            1

loop_
_symmetry_equiv_pos_as_xyz
   x, y, z

loop_
   _atom_site_label
   _atom_site_fract_x
   _atom_site_fract_y
   _atom_site_fract_z
   _atom_site_charge
C	0.9349305523392607 0.1042851867845353 0.8895706234895074	0.104836
C	0.9025565590964885 0.0694491728506863 0.8937510057242636	-0.165234
C	0.7701634109455660 0.9362833861208703 0.8963713463242652	-0.114862
C	0.7356763059552788 0.9036823858519279 0.8961608901973684	-0.116916
C	0.5666986803724593 0.7396038435152413 0.8892708433982114	0.102670
C	0.6004068187339137 0.7730537000841068 0.8934580300884363	-0.168641
C	0.4349304883392558 0.6042851697845371 0.8895706234895074	0.104866
C	0.4025565270964858 0.5694491528506848 0.8937510057242636	-0.165187
C	0.2701634109455652 0.4362833541208674 0.8963713463242652	-0.114845
C	0.2356763059552787 0.4036823858519284 0.8961608901973684	-0.116919
C	0.0666987203724555 0.2396038595152425 0.8892708433982114	0.102687
C	0.1004068107339209 0.2730536830841089 0.8934580300884363	-0.168680
C	0.0650694916607425 0.8957148302154629 0.3895706234895074	0.104836
C	0.0974434729035143 0.9305508471493152 0.3937510057242635	-0.165235
C	0.2298366210544301 0.0637166548791295 0.3963713463242650	-0.114844
C	0.2643237100447223 0.0963176061480711 0.3961608901973679	-0.116919
C	0.4333012876275453 0.2603961564847588 0.3892708123982124	0.102687
C	0.3995931812660852 0.2269462999158931 0.3934580300884369	-0.168680
C	0.5650694476607393 0.3957147972154634 0.3895706234895074	0.104835
C	0.5974434409035115 0.4305508151493125 0.3937510057242635	-0.165234
C	0.7298365890544340 0.5637166138791297 0.3963713463242650	-0.114862
C	0.7643236940447212 0.5963176141480721 0.3961608901973679	-0.116916
C	0.9333013196275407 0.7603961564847587 0.3892708123982124	0.102669
C	0.8995931812660863 0.7269462999158932 0.3934580300884369	-0.168641
C	0.0645701950855592 0.1048158282803657 0.6105302738532836	0.101751
C	0.0969749379824381 0.0699095265566992 0.6040696257410082	-0.162165
C	0.2298485938988784 0.9362725180135053 0.6031125424844765	-0.115169
C	0.2643240079426321 0.9036737415571878 0.6033488082809835	-0.116939
C	0.4337762406188187 0.7391819842199659 0.6105780720295546	0.100246
C	0.4000101253864693 0.7726724453193814 0.6045075827690529	-0.166977
C	0.5645701510855551 0.6048158112803678 0.6105302738532836	0.101751
C	0.5969749059824355 0.5699095065566976 0.6040696257410082	-0.162165
C	0.7298485618988827 0.4362724860135028 0.6031125424844765	-0.115146
C	0.7643239919426302 0.4036737415571880 0.6033488082809835	-0.116882
C	0.9337762726188140 0.2391820002199671 0.6105780720295546	0.100202
C	0.9000101253864694 0.2726724283193833 0.6045075827690529	-0.166970
C	0.9354298489144449 0.8951841887196322 0.1105302978532783	0.101751
C	0.9030250940175645 0.9300904934433024 0.1040696017410132	-0.162165
C	0.7701514381011173 0.0637275229864945 0.1031125814844759	-0.115146
C	0.7356760080573698 0.0963262504428112 0.1033488312809819	-0.116882
C	0.5662237273811860 0.2608180157800343 0.1105780640295538	0.100202
C	0.5999898746135306 0.2273275546806187 0.1045075987690546	-0.166970
C	0.4354297849144392 0.3951841557196331 0.1105302978532783	0.101771
C	0.4030250620175619 0.4300904614432997 0.1040696017410132	-0.162167
C	0.2701514381011172 0.5637274819864947 0.1031125814844759	-0.115169
C	0.2356760080573693 0.5963262584428122 0.1033488312809819	-0.116939
C	0.0662237673811819 0.7608180157800341 0.1105780640295538	0.100245
C	0.0999898666135370 0.7273275546806186 0.1045075987690547	-0.166977
C	0.0645701950855592 0.8951841887196322 0.1105302978532783	0.101751
C	0.0969749379824381 0.9300904934433024 0.1040696017410132	-0.162165
C	0.2298485938988784 0.0637275229864945 0.1031125814844759	-0.115146
C	0.2643240079426321 0.0963262504428112 0.1033488312809819	-0.116882
C	0.4337762406188187 0.2608180157800343 0.1105780640295538	0.100245
C	0.4000101253864693 0.2273275546806187 0.1045075987690547	-0.166977
C	0.5645701510855551 0.3951841557196331 0.1105302978532783	0.101751
C	0.5969749059824355 0.4300904614432997 0.1040696017410132	-0.162165
C	0.7298485618988827 0.5637274819864947 0.1031125814844759	-0.115168
C	0.7643239919426302 0.5963262584428122 0.1033488312809819	-0.116939
C	0.9337762726188140 0.7608180157800341 0.1105780640295538	0.100202
C	0.9000101253864694 0.7273275546806186 0.1045075987690547	-0.166970
C	0.9354298489144449 0.1048158282803657 0.6105302738532836	0.101751
C	0.9030250940175645 0.0699095265566992 0.6040696257410082	-0.162165
C	0.7701514381011173 0.9362725180135053 0.6031125424844765	-0.115169
C	0.7356760080573698 0.9036737415571878 0.6033488082809835	-0.116939
C	0.5662237273811860 0.7391819842199659 0.6105780720295546	0.100202
C	0.5999898746135306 0.7726724453193814 0.6045075827690529	-0.166970
C	0.4354297849144392 0.6048158112803678 0.6105302738532836	0.101770
C	0.4030250620175619 0.5699095065566976 0.6040696257410081	-0.162166
C	0.2701514381011172 0.4362724860135028 0.6031125424844765	-0.115147
C	0.2356760080573693 0.4036737415571880 0.6033488082809835	-0.116882
C	0.0662237673811819 0.2391820002199671 0.6105780720295546	0.100246
C	0.0999898666135370 0.2726724283193833 0.6045075827690529	-0.166977
C	0.9349305523392607 0.8957148302154629 0.3895706234895074	0.104836
C	0.9025565590964885 0.9305508471493152 0.3937510057242635	-0.165235
C	0.7701634109455660 0.0637166548791295 0.3963713463242650	-0.114844
C	0.7356763059552788 0.0963176061480711 0.3961608901973679	-0.116919
C	0.5666986803724593 0.2603961564847588 0.3892708123982124	0.102669
C	0.6004068187339137 0.2269462999158931 0.3934580300884369	-0.168641
C	0.4349304883392558 0.3957147972154634 0.3895706234895074	0.104866
C	0.4025565270964858 0.4305508151493125 0.3937510057242635	-0.165188
C	0.2701634109455652 0.5637166138791297 0.3963713463242650	-0.114862
C	0.2356763059552787 0.5963176141480721 0.3961608901973679	-0.116916
C	0.0666987203724555 0.7603961564847587 0.3892708123982124	0.102687
C	0.1004068107339209 0.7269462999158932 0.3934580300884369	-0.168680
C	0.0650694916607425 0.1042851867845353 0.8895706234895074	0.104836
C	0.0974434729035143 0.0694491728506863 0.8937510057242636	-0.165235
C	0.2298366210544301 0.9362833861208703 0.8963713463242652	-0.114862
C	0.2643237100447223 0.9036823858519279 0.8961608901973684	-0.116916
C	0.4333012876275453 0.7396038435152413 0.8892708433982114	0.102688
C	0.3995931812660852 0.7730537000841068 0.8934580300884363	-0.168680
C	0.5650694476607393 0.6042851697845371 0.8895706234895074	0.104834
C	0.5974434409035115 0.5694491528506848 0.8937510057242636	-0.165234
C	0.7298365890544340 0.4362833541208674 0.8963713463242652	-0.114845
C	0.7643236940447212 0.4036823858519284 0.8961608901973684	-0.116919
C	0.9333013196275407 0.2396038595152425 0.8892708433982114	0.102670
C	0.8995931812660863 0.2730536830841089 0.8934580300884363	-0.168641
C	0.6526753673985816 0.8244417797035020 0.7480895790639134	-0.106184
C	0.8856823713550317 0.0514139854998567 0.7482199874771929	0.160794
C	0.8225825393196803 0.9867725937400776 0.7492325853703874	-0.100771
C	0.6181005662547743 0.7905691090939450 0.7483874132906365	0.167735
C	0.7878459448773161 0.9531205151351314 0.7497196923267436	0.127513
C	0.7178338709083141 0.8868334110352583 0.7497609362748787	0.138864
C	0.6828098301765447 0.8534865765299886 0.7493564900411442	-0.099447
C	0.8521675245114735 0.0164288503517972 0.7477839811772401	-0.106622
C	0.1526753193985849 0.3244418127035008 0.7480895790639134	-0.106186
C	0.3856823393550286 0.5514139604998581 0.7482199874771929	0.160785
C	0.3225825713196834 0.4867726267400848 0.7492325853703874	-0.100756
C	0.1181005422547723 0.2905691090939452 0.7483874132906365	0.167743
C	0.2878459768773116 0.4531205151351315 0.7497196923267436	0.127440
C	0.2178338389083116 0.3868334440352572 0.7497609362748787	0.138855
C	0.1828098461765461 0.3534865765299881 0.7493564900411442	-0.099447
C	0.3521675565114692 0.5164288863518000 0.7477839811772401	-0.106628
C	0.3473246966014160 0.1755582032964931 0.2480895630639116	-0.106185
C	0.1143176446449698 0.9485860395001419 0.2482199714771912	0.160795
C	0.1774174606803192 0.0132273872599166 0.2492325693703863	-0.100756
C	0.3818994657452285 0.2094308909060548 0.2483873972906351	0.167742
C	0.2121540391226894 0.0468794678648637 0.2497196763267423	0.127439
C	0.2821661610916885 0.1131665719647440 0.2497609202748783	0.138856
C	0.3171901698234554 0.1465134234700118 0.2493564740411430	-0.099448
C	0.1478324594885252 0.9835711136482000 0.2477839651772391	-0.106628
C	0.8473246326014184 0.6755582202964980 0.2480895630639116	-0.106183
C	0.6143176286449683 0.4485860395001418 0.2482199714771912	0.160795
C	0.6774174606803197 0.5132274062599224 0.2492325693703863	-0.100770
C	0.8818994337452257 0.7094308909060550 0.2483873972906351	0.167734
C	0.7121540551226839 0.5468794848648686 0.2497196763267423	0.127513
C	0.7821661290916859 0.6131665889647417 0.2497609202748783	0.138864
C	0.8171901698234553 0.6465134234700114 0.2493564740411430	-0.099448
C	0.6478324754885265 0.4835711466481990 0.2477839651772391	-0.106624
C	0.3473246966014160 0.8244417797035020 0.7480895790639134	-0.106186
C	0.1143176446449698 0.0514139854998567 0.7482199874771929	0.160794
C	0.1774174606803192 0.9867725937400776 0.7492325853703874	-0.100771
C	0.3818994657452285 0.7905691090939450 0.7483874132906365	0.167743
C	0.2121540391226894 0.9531205151351314 0.7497196923267436	0.127513
C	0.2821661610916885 0.8868334110352583 0.7497609362748787	0.138864
C	0.3171901698234554 0.8534865765299886 0.7493564900411442	-0.099447
C	0.1478324594885252 0.0164288503517972 0.7477839811772401	-0.106622
C	0.8473246326014184 0.3244418127035008 0.7480895790639134	-0.106184
C	0.6143176286449683 0.5514139604998581 0.7482199874771929	0.160795
C	0.6774174606803197 0.4867726267400848 0.7492325853703874	-0.100757
C	0.8818994337452257 0.2905691090939452 0.7483874132906365	0.167735
C	0.7121540551226839 0.4531205151351315 0.7497196923267436	0.127440
C	0.7821661290916859 0.3868334440352572 0.7497609362748787	0.138855
C	0.8171901698234553 0.3534865765299881 0.7493564900411442	-0.099448
C	0.6478324754885265 0.5164288863518000 0.7477839811772401	-0.106627
C	0.6526753673985816 0.1755582032964931 0.2480895630639116	-0.106183
C	0.8856823713550317 0.9485860395001419 0.2482199714771912	0.160795
C	0.8225825393196803 0.0132273872599166 0.2492325693703863	-0.100756
C	0.6181005662547743 0.2094308909060548 0.2483873972906351	0.167734
C	0.7878459448773161 0.0468794678648637 0.2497196763267423	0.127439
C	0.7178338709083141 0.1131665719647440 0.2497609202748783	0.138856
C	0.6828098301765447 0.1465134234700118 0.2493564740411430	-0.099448
C	0.8521675245114735 0.9835711136482000 0.2477839651772391	-0.106628
C	0.1526753193985849 0.6755582202964980 0.2480895630639116	-0.106185
C	0.3856823393550286 0.4485860395001418 0.2482199714771912	0.160785
C	0.3225825713196834 0.5132274062599224 0.2492325693703863	-0.100769
C	0.1181005422547723 0.7094308909060550 0.2483873972906351	0.167742
C	0.2878459768773116 0.5468794848648686 0.2497196763267423	0.127513
C	0.2178338389083116 0.6131665889647417 0.2497609202748783	0.138864
C	0.1828098461765461 0.6465134234700114 0.2493564740411430	-0.099448
C	0.3521675565114692 0.4835711466481990 0.2477839651772391	-0.106625
H	0.9485785357858310 0.1189800929020997 -0.0003491512506091	0.082779
H	0.8904017359207168 0.0564003206563712 0.0089216450654235	0.121255
H	0.7840553142095841 0.9492505898691613 0.0091640828975395	0.106288
H	0.7219414822571363 0.8906122280581897 0.0089041186931311	0.115121
H	0.5526227711086182 0.7253824054922473 -0.0005877132020468	0.081518
H	0.6129914895021050 0.7854567450452997 0.0087458178207506	0.125605
H	0.4485786007858257 0.6189800679021012 -0.0003491512506091	0.082766
H	0.3904017359207168 0.5564002876563717 0.0089216450654235	0.121248
H	0.2840552822095893 0.4492506228691598 0.0091640828975395	0.106287
H	0.2219414822571360 0.3906121950581903 0.0089041186931311	0.115121
H	0.0526227231086214 0.2253824214922487 -0.0005877132020468	0.081516
H	0.1129915375021093 0.2854566790453017 0.0087458178207506	0.125640
H	0.0514214162141721 0.8810199320978988 0.4996508337493933	0.082779
H	0.1095982640792830 0.9435997123436283 0.5089216450654238	0.121256
H	0.2159447177904109 0.0507493811308404 0.5091640828975391	0.106286
H	0.2780585177428642 0.1093878129418105 0.5089040876931246	0.115122
H	0.4473772938913763 0.2746175785077510 0.4994122947979538	0.081517
H	0.3870084464978966 0.2145433039547009 0.5087458448207566	0.125639
H	0.5514214642141690 0.3810199320978988 0.4996508337493933	0.082779
H	0.6095982640792832 0.4435996793436288 0.5089216450654238	0.121256
H	0.7159446857904159 0.5507493771308395 0.5091640828975391	0.106287
H	0.7780585177428637 0.6093877719418103 0.5089040876931247	0.115121
H	0.9473772288913818 0.7746175945077527 0.4994122947979538	0.081518
H	0.8870085104978950 0.7145432549547003 0.5087458448207566	0.125603
H	0.0506979897425405 0.1197894521310696 0.5012507120736341	0.090011
H	0.1087579404007444 0.0572291325351870 0.4879736970156795	0.121516
H	0.2159581654416473 0.9492429766790478 0.4903491121714343	0.106042
H	0.2780758797056363 0.8905957999786861 0.4906799387986630	0.115128
H	0.4480716958116546 0.7248060515243421 0.5010379050543016	0.089703
H	0.3877209323414940 0.7847711215344004 0.4884752156253627	0.126199
H	0.5506980377425374 0.6197894271310715 0.5012507120736341	0.090011
H	0.6087579404007443 0.5572290995351878 0.4879736970156795	0.121516
H	0.7159581334416518 0.4492430096790472 0.4903491121714343	0.106031
H	0.7780758797056363 0.3905957669786866 0.4906799387986630	0.115120
H	0.9480716308116599 0.2248060675243434 0.5010379050543016	0.089710
H	0.8877209963414926 0.2847710555344017 0.4884752156253627	0.126199
H	0.9493019622574626 0.8802105728689285 0.0012506810736346	0.090011
H	0.8912420595992557 0.9427709004648122 0.9879736660156806	0.121517
H	0.7840418665583482 0.0507569943209531 0.9903490801714318	0.106030
H	0.7219241202943637 0.1094042410213140 0.9906799387986640	0.115121
H	0.5519283691883401 0.2751939324756568 0.0010379050543012	0.089710
H	0.6122790036585074 0.2152289274656004 0.9884752156253627	0.126198
H	0.4493020272574573 0.3802105728689289 0.0012506810736346	0.090009
H	0.3912420595992556 0.4427708674648130 0.9879736660156806	0.121517
H	0.2840418345583526 0.5507569903209530 0.9903490801714318	0.106041
H	0.2219241202943639 0.6094042000213139 0.9906799387986640	0.115129
H	0.0519283211883434 0.7751939484756579 0.0010379050543012	0.089703
H	0.1122790516585116 0.7152288784655996 0.9884752156253627	0.126198
H	0.0506979897425405 0.8802105728689285 0.0012506810736346	0.090011
H	0.1087579404007444 0.9427709004648122 0.9879736660156806	0.121517
H	0.2159581654416473 0.0507569943209531 0.9903490801714318	0.106030
H	0.2780758797056363 0.1094042410213140 0.9906799387986640	0.115122
H	0.4480716958116546 0.2751939324756568 0.0010379050543012	0.089703
H	0.3877209323414940 0.2152289274656004 0.9884752156253627	0.126198
H	0.5506980377425374 0.3802105728689289 0.0012506810736346	0.090011
H	0.6087579404007443 0.4427708674648130 0.9879736660156806	0.121517
H	0.7159581334416518 0.5507569903209530 0.9903490801714318	0.106041
H	0.7780758797056363 0.6094042000213139 0.9906799387986640	0.115129
H	0.9480716308116599 0.7751939484756579 0.0010379050543012	0.089710
H	0.8877209963414926 0.7152288784655996 0.9884752156253627	0.126198
H	0.9493019622574626 0.1197894521310696 0.5012507120736341	0.090011
H	0.8912420595992557 0.0572291325351870 0.4879736970156795	0.121516
H	0.7840418665583482 0.9492429766790478 0.4903491121714343	0.106042
H	0.7219241202943637 0.8905957999786861 0.4906799387986630	0.115129
H	0.5519283691883401 0.7248060515243421 0.5010379050543016	0.089709
H	0.6122790036585074 0.7847711215344004 0.4884752156253627	0.126199
H	0.4493020272574573 0.6197894271310715 0.5012507120736341	0.090010
H	0.3912420595992556 0.5572290995351878 0.4879736970156795	0.121516
H	0.2840418345583526 0.4492430096790472 0.4903491121714343	0.106031
H	0.2219241202943639 0.3905957669786866 0.4906799387986630	0.115121
H	0.0519283211883434 0.2248060675243434 0.5010379050543016	0.089703
H	0.1122790516585116 0.2847710555344017 0.4884752156253627	0.126199
H	0.9485785357858310 0.8810199320978988 0.4996508337493933	0.082779
H	0.8904017359207168 0.9435997123436283 0.5089216450654238	0.121256
H	0.7840553142095841 0.0507493811308404 0.5091640828975391	0.106286
H	0.7219414822571363 0.1093878129418105 0.5089040876931247	0.115122
H	0.5526227711086182 0.2746175785077510 0.4994122947979538	0.081518
H	0.6129914895021050 0.2145433039547009 0.5087458448207566	0.125603
H	0.4485786007858257 0.3810199320978988 0.4996508337493933	0.082765
H	0.3904017359207168 0.4435996793436288 0.5089216450654238	0.121249
H	0.2840552822095893 0.5507493771308395 0.5091640828975391	0.106288
H	0.2219414822571360 0.6093877719418103 0.5089040876931247	0.115122
H	0.0526227231086214 0.7746175945077527 0.4994122947979538	0.081517
H	0.1129915375021093 0.7145432549547003 0.5087458448207566	0.125639
H	0.0514214162141721 0.1189800929020997 -0.0003491512506091	0.082779
H	0.1095982640792830 0.0564003206563712 0.0089216450654235	0.121255
H	0.2159447177904109 0.9492505898691613 0.0091640828975395	0.106288
H	0.2780585177428642 0.8906122280581897 0.0089041186931311	0.115121
H	0.4473772938913763 0.7253824054922473 -0.0005877132020468	0.081516
H	0.3870084464978966 0.7854567450452997 0.0087458178207506	0.125640
H	0.5514214642141690 0.6189800679021012 -0.0003491512506091	0.082779
H	0.6095982640792832 0.5564002876563717 0.0089216450654235	0.121255
H	0.7159446857904159 0.4492506228691598 0.0091640828975395	0.106287
H	0.7780585177428637 0.3906121950581903 0.0089041186931311	0.115121
H	0.9473772288913818 0.2253824214922487 -0.0005877132020468	0.081518
H	0.8870085104978950 0.2854566790453017 0.0087458178207506	0.125605
Fe	0.5000000000000000 0.6726592073109736 0.7549765415127380	0.888327
Fe	-0.0000000000000000 0.1726591743109749 0.7549765415127380	0.888317
Fe	0.5000000000000000 0.3273408256890248 0.2549765255127363	0.888327
Fe	-0.0000000000000000 0.8273407926890264 0.2549765255127363	0.888317
Nb	0.5000000000000000 0.6728370635633940 0.2340789205350316	2.416866
Nb	-0.0000000000000000 0.1728371125633949 0.2340789205350316	2.416865
Nb	0.5000000000000000 0.3271628714366110 0.7340789365350334	2.416866
Nb	-0.0000000000000000 0.8271629364366060 0.7340789365350334	2.416865
F	0.5000000000000000 0.7408009476367117 0.2604887266797988	-0.577748
F	0.5000000000000000 0.6048805484397949 0.2606208164007742	-0.574242
F	-0.0000000000000000 0.2408009146367122 0.2604887266797988	-0.577748
F	-0.0000000000000000 0.1048805564397953 0.2606208164007742	-0.574241
F	0.5000000000000000 0.2591990693632866 0.7604887426797998	-0.577750
F	0.5000000000000000 0.3951194185602060 0.7606208324007756	-0.574240
F	-0.0000000000000000 0.7591990523632883 0.7604887426797998	-0.577749
F	-0.0000000000000000 0.8951194515602051 0.7606208324007756	-0.574239
F	0.5655487855166932 0.6726806653630355 0.2600888180939855	-0.578166
F	0.0655487775166924 0.1726806483630371 0.2600888180939855	-0.578165
F	0.4344512144833073 0.3273193346369653 0.7600888340939863	-0.578165
F	0.9344512144833068 0.8273193346369645 0.7600888340939863	-0.578165
F	0.4344512144833073 0.6726806653630355 0.2600888180939855	-0.578166
F	0.9344512144833068 0.1726806483630371 0.2600888180939855	-0.578166
F	0.5655487855166932 0.3273193346369653 0.7600888340939863	-0.578165
F	0.0655487775166924 0.8273193346369645 0.7600888340939863	-0.578165
F	0.5000000000000000 0.6728953749765760 0.4886418206325617	-0.597785
F	-0.0000000000000000 0.1728953749765757 0.4886418206325617	-0.597785
F	0.5000000000000000 0.3271046250234244 -0.0113581173674404	-0.597785
F	-0.0000000000000000 0.8271046250234240 -0.0113581173674404	-0.597785
O	0.5000000000000000 0.6728061036397043 0.0183807885288666	-0.901957
O	-0.0000000000000000 0.1728061036397040 0.0183807885288666	-0.901959
O	0.5000000000000000 0.3271938963602961 0.5183807695288688	-0.901957
O	-0.0000000000000000 0.8271938963602957 0.5183807695288688	-0.901959
N	0.5494794991235603 0.7225757989010797 0.7506270500668129	-0.247958
N	0.9513726078238822 0.1220570695612708 0.7508447445285114	-0.246226
N	0.0494795391235568 0.2225758149010810 0.7506270500668129	-0.247994
N	0.4513725758238866 0.6220570455612686 0.7508447445285114	-0.246296
N	0.4505204688764436 0.2774241850989190 0.2506270340668111	-0.247991
N	0.0486274201761133 0.8779429544387314 0.2508447285285106	-0.246226
N	0.9505205008764397 0.7774242010989203 0.2506270340668111	-0.247955
N	0.5486273921761178 0.3779429214387319 0.2508447285285106	-0.246228
N	0.4505204688764436 0.7225757989010797 0.7506270500668129	-0.247993
N	0.0486274201761133 0.1220570695612708 0.7508447445285114	-0.246225
N	0.9505205008764397 0.2225758149010810 0.7506270500668129	-0.247956
N	0.5486273921761178 0.6220570455612686 0.7508447445285114	-0.246225
N	0.5494794991235603 0.2774241850989190 0.2506270340668111	-0.247956
N	0.9513726078238822 0.8779429544387314 0.2508447285285106	-0.246227
N	0.0494795391235568 0.7774242010989203 0.2506270340668111	-0.247992
N	0.4513725758238866 0.3779429214387319 0.2508447285285106	-0.246298
	  	
