#======================================================================

# CRYSTAL DATA

#----------------------------------------------------------------------

data_VESTA_phase_1


_pd_phase_name                         NbOFFIVE_15_Zn_i
_cell_length_a                         29.95251
_cell_length_b                         29.11708
_cell_length_c                         8.14364
_cell_angle_alpha                      90
_cell_angle_beta                       90
_cell_angle_gamma                      90
_symmetry_space_group_name_H-M         P 1
_symmetry_Int_Tables_number            1

loop_
_symmetry_equiv_pos_as_xyz
   x, y, z

loop_
   _atom_site_label
   _atom_site_fract_x
   _atom_site_fract_y
   _atom_site_fract_z
   _atom_site_charge
C	0.9328192787570947 0.1018613039614549 0.8917728748214814	0.108398
C	0.9008051944308698 0.0674873656316652 0.8970328972613938	-0.167027
C	0.7699192362181544 0.9361951816841602 0.8996208893513842	-0.114685
C	0.7359116391675217 0.9039519016754927 0.8994016951163573	-0.116818
C	0.5688903361397530 0.7420835668264645 0.8916670907467455	0.105206
C	0.6023134132624256 0.7750031834820196 0.8966805999393415	-0.171360
C	0.4328192147570892 0.6018612869614568 0.8917728748214814	0.108434
C	0.4008051624308678 0.5674873456316638 0.8970328972613938	-0.167035
C	0.2699192362181542 0.4361951496841578 0.8996208893513842	-0.114683
C	0.2359116391675216 0.4039519016754931 0.8994016951163573	-0.116816
C	0.0688903761397489 0.2420835828264660 0.8916670907467455	0.105206
C	0.1023134052624321 0.2750031664820224 0.8966805999393415	-0.171361
C	0.0671807652429092 0.8981387130385432 0.3917728748214814	0.108435
C	0.0991948375691323 0.9325126543683362 0.3970328972613942	-0.167035
C	0.2300807957818413 0.0638048593158393 0.3996208893513840	-0.114683
C	0.2640883768324798 0.0960480903245064 0.3994016951163574	-0.116816
C	0.4311096318602519 0.2579164331735353 0.3916670597467463	0.105205
C	0.3976865867375743 0.2249968165179800 0.3966805999393414	-0.171361
C	0.5671807212429053 0.3981386800385436 0.3917728748214814	0.108399
C	0.5991948055691302 0.4325126223683338 0.3970328972613942	-0.167027
C	0.7300807637818456 0.5638048183158398 0.3996208893513840	-0.114684
C	0.7640883608324783 0.5960480983245073 0.3994016951163574	-0.116818
C	0.9311096638602470 0.7579164331735355 0.3916670597467463	0.105205
C	0.8976865867375744 0.7249968165179804 0.3966805999393414	-0.171360
C	0.0668211143296960 0.1022397651357180 0.6072413875901914	0.108212
C	0.0988860311286212 0.0678391284107347 0.6005740344601385	-0.167869
C	0.2300911223045159 0.9361851746524299 0.6001851871432941	-0.115208
C	0.2640878519356749 0.9039544589495292 0.6004176909001304	-0.115950
C	0.4314437414778711 0.7417094724378859 0.6073666468352161	0.105334
C	0.3979792187421766 0.7746638292059544 0.6009692807551460	-0.169628
C	0.5668210703296925 0.6022397481357198 0.6072413875901914	0.108194
C	0.5988859991286187 0.5678391084107333 0.6005740344601385	-0.167870
C	0.7300910903045204 0.4361851426524272 0.6001851871432941	-0.115210
C	0.7640878359356735 0.4039544589495289 0.6004176909001304	-0.115950
C	0.9314437734778676 0.2417094884378870 0.6073666468352161	0.105334
C	0.8979792187421765 0.2746638122059568 0.6009692807551460	-0.169627
C	0.9331789296703075 0.8977602518642802 0.1072414115901862	0.108195
C	0.9011140008713813 0.9321608915892667 0.1005740104601436	-0.167870
C	0.7699089096954796 0.0638148663475699 0.1001852261432939	-0.115210
C	0.7359121640643265 0.0960455330504705 0.1004177139001287	-0.115950
C	0.5685562265221324 0.2582905275621141 0.1073666388352158	0.105333
C	0.6020207812578235 0.2253361707940454 0.1009692967551475	-0.169628
C	0.4331788656703023 0.3977602188642807 0.1072414115901862	0.108213
C	0.4011139688713786 0.4321608595892642 0.1005740104601436	-0.167870
C	0.2699089096954794 0.5638148253475701 0.1001852261432939	-0.115208
C	0.2359121640643264 0.5960455410504708 0.1004177139001287	-0.115950
C	0.0685562665221294 0.7582905275621141 0.1073666388352158	0.105333
C	0.1020207732578299 0.7253361707940456 0.1009692967551475	-0.169628
C	0.0668211143296960 0.8977602518642802 0.1072414115901862	0.108213
C	0.0988860311286212 0.9321608915892667 0.1005740104601436	-0.167870
C	0.2300911223045159 0.0638148663475699 0.1001852261432939	-0.115208
C	0.2640878519356749 0.0960455330504705 0.1004177139001287	-0.115950
C	0.4314437414778711 0.2582905275621141 0.1073666388352158	0.105333
C	0.3979792187421766 0.2253361707940454 0.1009692967551475	-0.169627
C	0.5668210703296925 0.3977602188642807 0.1072414115901862	0.108195
C	0.5988859991286187 0.4321608595892642 0.1005740104601436	-0.167871
C	0.7300910903045204 0.5638148253475701 0.1001852261432939	-0.115210
C	0.7640878359356735 0.5960455410504708 0.1004177139001287	-0.115950
C	0.9314437734778676 0.7582905275621141 0.1073666388352158	0.105333
C	0.8979792187421765 0.7253361707940456 0.1009692967551475	-0.169627
C	0.9331789296703075 0.1022397651357180 0.6072413875901914	0.108194
C	0.9011140008713813 0.0678391284107347 0.6005740344601385	-0.167870
C	0.7699089096954796 0.9361851746524299 0.6001851871432941	-0.115210
C	0.7359121640643265 0.9039544589495292 0.6004176909001304	-0.115950
C	0.5685562265221324 0.7417094724378859 0.6073666468352161	0.105334
C	0.6020207812578235 0.7746638292059544 0.6009692807551460	-0.169627
C	0.4331788656703023 0.6022397481357198 0.6072413875901914	0.108212
C	0.4011139688713786 0.5678391084107333 0.6005740344601385	-0.167869
C	0.2699089096954794 0.4361851426524272 0.6001851871432941	-0.115209
C	0.2359121640643264 0.4039544589495289 0.6004176909001304	-0.115950
C	0.0685562665221294 0.2417094884378870 0.6073666468352161	0.105334
C	0.1020207732578299 0.2746638122059568 0.6009692807551460	-0.169627
C	0.9328192787570947 0.8981387130385432 0.3917728748214814	0.108399
C	0.9008051944308698 0.9325126543683362 0.3970328972613942	-0.167027
C	0.7699192362181544 0.0638048593158393 0.3996208893513840	-0.114684
C	0.7359116391675217 0.0960480903245064 0.3994016951163574	-0.116818
C	0.5688903361397530 0.2579164331735353 0.3916670597467463	0.105206
C	0.6023134132624256 0.2249968165179800 0.3966805999393414	-0.171360
C	0.4328192147570892 0.3981386800385436 0.3917728748214814	0.108435
C	0.4008051624308678 0.4325126223683338 0.3970328972613942	-0.167035
C	0.2699192362181542 0.5638048183158398 0.3996208893513840	-0.114683
C	0.2359116391675216 0.5960480983245073 0.3994016951163574	-0.116816
C	0.0688903761397489 0.7579164331735355 0.3916670597467463	0.105206
C	0.1023134052624321 0.7249968165179804 0.3966805999393414	-0.171360
C	0.0671807652429092 0.1018613039614549 0.8917728748214814	0.108435
C	0.0991948375691323 0.0674873656316652 0.8970328972613938	-0.167034
C	0.2300807957818413 0.9361951816841602 0.8996208893513842	-0.114683
C	0.2640883768324798 0.9039519016754927 0.8994016951163573	-0.116816
C	0.4311096318602519 0.7420835668264645 0.8916670907467455	0.105207
C	0.3976865867375743 0.7750031834820196 0.8966805999393415	-0.171360
C	0.5671807212429053 0.6018612869614568 0.8917728748214814	0.108399
C	0.5991948055691302 0.5674873456316638 0.8970328972613938	-0.167027
C	0.7300807637818456 0.4361951496841578 0.8996208893513842	-0.114684
C	0.7640883608324783 0.4039519016754931 0.8994016951163573	-0.116818
C	0.9311096638602470 0.2420835828264661 0.8916670907467457	0.105207
C	0.8976865867375744 0.2750031664820224 0.8966805999393415	-0.171360
C	0.6540701846327659 0.8255340860838846 0.7481986488207654	-0.104477
C	0.8840998049094069 0.0497598310560223 0.7483086784084391	0.162160
C	0.8216912000364495 0.9860800823703321 0.7494027644221194	-0.100255
C	0.6198386081148691 0.7921585333953156 0.7483612179284831	0.169842
C	0.7873912276014631 0.9528379097901672 0.7498755558014046	0.127666
C	0.7183083795990943 0.8872493212149760 0.7498953140922537	0.138708
C	0.6837843312591436 0.8542278579433951 0.7494694231083600	-0.099425
C	0.8509330856938003 0.0152788557766924 0.7481016846567851	-0.105240
C	0.1540701366327693 0.3255341190838836 0.7481986488207654	-0.104477
C	0.3840997729094042 0.5497598060560239 0.7483086784084391	0.162162
C	0.3216912320364517 0.4860801153703380 0.7494027644221194	-0.100256
C	0.1198385841148673 0.2921585333953157 0.7483612179284831	0.169842
C	0.2873912596014583 0.4528379097901673 0.7498755558014046	0.127664
C	0.2183083475990919 0.3872493542149754 0.7498953140922537	0.138708
C	0.1837843472591444 0.3542278579433948 0.7494694231083600	-0.099426
C	0.3509331176937963 0.5152788917766955 0.7481016846567851	-0.105243
C	0.3459298793672318 0.1744658969161106 0.2481986328207643	-0.104476
C	0.1159002110905944 0.9502401939439761 0.2483086624084371	0.162163
C	0.1783087999635506 0.0139198986296630 0.2494027484221181	-0.100255
C	0.3801614238851335 0.2078414666046843 0.2483612019284818	0.169842
C	0.2126087563985430 0.0471620732098277 0.2498755398014031	0.127663
C	0.2816916524009081 0.1127506617850261 0.2498952980922523	0.138709
C	0.3162156687408567 0.1457721420566049 0.2494694071083585	-0.099426
C	0.1490668983061980 0.9847211082233045 0.2481016686567835	-0.105244
C	0.8459298153672341 0.6744659139161154 0.2481986328207643	-0.104476
C	0.6159001950905931 0.4502401939439761 0.2483086624084371	0.162161
C	0.6783087999635505 0.5139199176296679 0.2494027484221181	-0.100253
C	0.8801613918851309 0.7078414666046844 0.2483612019284818	0.169842
C	0.7126087723985369 0.5471620902098328 0.2498755398014031	0.127666
C	0.7816916204009057 0.6127506787850240 0.2498952980922523	0.138709
C	0.8162156687408564 0.6457721420566049 0.2494694071083585	-0.099426
C	0.6490669143061997 0.4847211412233039 0.2481016686567835	-0.105242
C	0.3459298793672318 0.8255340860838846 0.7481986488207654	-0.104477
C	0.1159002110905944 0.0497598310560223 0.7483086784084391	0.162162
C	0.1783087999635506 0.9860800823703321 0.7494027644221194	-0.100256
C	0.3801614238851335 0.7921585333953156 0.7483612179284831	0.169842
C	0.2126087563985430 0.9528379097901672 0.7498755558014046	0.127664
C	0.2816916524009081 0.8872493212149760 0.7498953140922537	0.138708
C	0.3162156687408567 0.8542278579433951 0.7494694231083600	-0.099425
C	0.1490668983061980 0.0152788557766924 0.7481016846567851	-0.105243
C	0.8459298153672341 0.3255341190838836 0.7481986488207654	-0.104477
C	0.6159001950905931 0.5497598060560239 0.7483086784084391	0.162160
C	0.6783087999635505 0.4860801153703380 0.7494027644221194	-0.100254
C	0.8801613918851309 0.2921585333953157 0.7483612179284831	0.169843
C	0.7126087723985369 0.4528379097901673 0.7498755558014046	0.127666
C	0.7816916204009057 0.3872493542149754 0.7498953140922537	0.138708
C	0.8162156687408564 0.3542278579433948 0.7494694231083600	-0.099426
C	0.6490669143061997 0.5152788917766955 0.7481016846567851	-0.105241
C	0.6540701846327659 0.1744658969161106 0.2481986328207643	-0.104476
C	0.8840998049094069 0.9502401939439761 0.2483086624084371	0.162161
C	0.8216912000364495 0.0139198986296630 0.2494027484221181	-0.100253
C	0.6198386081148691 0.2078414666046843 0.2483612019284818	0.169842
C	0.7873912276014631 0.0471620732098277 0.2498755398014031	0.127666
C	0.7183083795990943 0.1127506617850261 0.2498952980922523	0.138709
C	0.6837843312591436 0.1457721420566049 0.2494694071083585	-0.099426
C	0.8509330856938003 0.9847211082233045 0.2481016686567835	-0.105242
C	0.1540701366327693 0.6744659139161154 0.2481986328207643	-0.104476
C	0.3840997729094042 0.4502401939439761 0.2483086624084371	0.162163
C	0.3216912320364517 0.5139199176296679 0.2494027484221181	-0.100255
C	0.1198385841148673 0.7078414666046844 0.2483612019284818	0.169842
C	0.2873912596014583 0.5471620902098328 0.2498755398014031	0.127663
C	0.2183083475990919 0.6127506787850240 0.2498952980922523	0.138709
C	0.1837843472591444 0.6457721420566049 0.2494694071083585	-0.099427
C	0.3509331176937963 0.4847211412233039 0.2481016686567835	-0.105244
H	0.9464146285623862 0.1164051755675825 0.0042060138753543	0.083996
H	0.8888597062950582 0.0546162500256168 0.0146029069579911	0.120344
H	0.7835875162122190 0.9490439761028265 0.0148025181677991	0.106703
H	0.7223704079009261 0.8910675771534607 0.0145880936285242	0.115293
H	0.5547592895702916 0.7281479872620887 0.0041905444152381	0.083113
H	0.6146865503061000 0.7872758626912475 0.0143306208294421	0.125556
H	0.4464146935623804 0.6164051505675839 0.0042060138753543	0.083987
H	0.3888597062950586 0.5546162170256174 0.0146029069579911	0.120345
H	0.2835874842122235 0.4490440091028257 0.0148025181677991	0.106703
H	0.2223704079009258 0.3910675441534617 0.0145880936285242	0.115294
H	0.0547592415702950 0.2281480032620896 0.0041905444152381	0.083113
H	0.1146865983061036 0.2872757966912495 0.0143306208294421	0.125556
H	0.0535853234376172 0.8835948494324161 0.5042059988753571	0.083987
H	0.1111402937049413 0.9453837829743826 0.5146029069579909	0.120346
H	0.2164125157877766 0.0509559948971746 0.5148025181677992	0.106702
H	0.2776295920990744 0.1089324638465390 0.5145880626285183	0.115295
H	0.4452407754297030 0.2718519967379102 0.5041905524152389	0.083114
H	0.3853133856939021 0.2127241863087529 0.5143306478294483	0.125555
H	0.5535853714376138 0.3835948494324158 0.5042059988753571	0.083996
H	0.6111402937049418 0.4453837499743834 0.5146029069579909	0.120345
H	0.7164124837877810 0.5509559908971743 0.5148025181677992	0.106703
H	0.7776295920990739 0.6089324228465393 0.5145880626285183	0.115294
H	0.9452407104297084 0.7718520127379113 0.5041905524152389	0.083114
H	0.8853134496939000 0.7127241373087525 0.5143306478294483	0.125555
H	0.0530173864808532 0.1169925456270700 0.4954654917166353	0.093898
H	0.1106395116426790 0.0551975965585537 0.4823730231615042	0.121038
H	0.2164194351836721 0.9490421613281057 0.4850402129678972	0.106767
H	0.2776421045300393 0.8910587708917496 0.4852867803910840	0.115210
H	0.4457452317165616 0.7275439859835865 0.4954942703357933	0.091992
H	0.3857805298813190 0.7867086040052736 0.4827002137103896	0.125465
H	0.5530174344808503 0.6169925206270713 0.4954654917166353	0.093900
H	0.6106395116426793 0.5551975635585549 0.4823730231615042	0.121038
H	0.7164194031836765 0.4490421943281045 0.4850402129678972	0.106767
H	0.7776421045300389 0.3910587378917501 0.4852867803910840	0.115210
H	0.9457451667165672 0.2275440019835876 0.4954942703357933	0.091992
H	0.8857805938813176 0.2867085380052752 0.4827002137103896	0.125465
H	0.9469825655191497 0.8830074793729287 0.9954654607166362	0.093900
H	0.8893604883573207 0.9448024364414451 0.9823729921615046	0.121039
H	0.7835805968163235 0.0509578096718957 0.9850401809678945	0.106766
H	0.7223578954699611 0.1089412701082507 0.9852867803910836	0.115211
H	0.5542548332834328 0.2724559980164120 0.9954942703357933	0.091993
H	0.6142194061186824 0.2132914449947269 0.9827002137103897	0.125464
H	0.4469826305191447 0.3830074793729286 0.9954654607166362	0.093898
H	0.3893604883573213 0.4448024034414462 0.9823729921615046	0.121039
H	0.2835805648163280 0.5509578056718951 0.9850401809678945	0.106766
H	0.2223578954699607 0.6089412291082504 0.9852867803910836	0.115211
H	0.0542547852834361 0.7724560140164135 0.9954942703357933	0.091993
H	0.1142194541186868 0.7132913959947264 0.9827002137103898	0.125464
H	0.0530173864808532 0.8830074793729287 0.9954654607166362	0.093898
H	0.1106395116426790 0.9448024364414451 0.9823729921615046	0.121039
H	0.2164194351836721 0.0509578096718957 0.9850401809678945	0.106767
H	0.2776421045300393 0.1089412701082507 0.9852867803910836	0.115211
H	0.4457452317165616 0.2724559980164120 0.9954942703357933	0.091993
H	0.3857805298813190 0.2132914449947269 0.9827002137103897	0.125464
H	0.5530174344808503 0.3830074793729286 0.9954654607166362	0.093900
H	0.6106395116426793 0.4448024034414462 0.9823729921615046	0.121039
H	0.7164194031836765 0.5509578056718951 0.9850401809678945	0.106766
H	0.7776421045300389 0.6089412291082504 0.9852867803910836	0.115211
H	0.9457451667165672 0.7724560140164135 0.9954942703357933	0.091993
H	0.8857805938813176 0.7132913959947264 0.9827002137103897	0.125464
H	0.9469825655191497 0.1169925456270700 0.4954654917166353	0.093900
H	0.8893604883573207 0.0551975965585537 0.4823730231615042	0.121038
H	0.7835805968163235 0.9490421613281057 0.4850402129678972	0.106767
H	0.7223578954699611 0.8910587708917496 0.4852867803910840	0.115210
H	0.5542548332834328 0.7275439859835865 0.4954942703357933	0.091992
H	0.6142194061186824 0.7867086040052736 0.4827002137103896	0.125465
H	0.4469826305191447 0.6169925206270713 0.4954654917166353	0.093898
H	0.3893604883573213 0.5551975635585549 0.4823730231615042	0.121038
H	0.2835805648163280 0.4490421943281045 0.4850402129678972	0.106767
H	0.2223578954699607 0.3910587378917501 0.4852867803910840	0.115210
H	0.0542547852834361 0.2275440019835876 0.4954942703357933	0.091992
H	0.1142194541186868 0.2867085380052752 0.4827002137103896	0.125465
H	0.9464146285623862 0.8835948494324161 0.5042059988753571	0.083996
H	0.8888597062950582 0.9453837829743826 0.5146029069579909	0.120345
H	0.7835875162122190 0.0509559948971746 0.5148025181677992	0.106703
H	0.7223704079009261 0.1089324638465390 0.5145880626285183	0.115295
H	0.5547592895702916 0.2718519967379102 0.5041905524152389	0.083114
H	0.6146865503061000 0.2127241863087529 0.5143306478294483	0.125555
H	0.4464146935623804 0.3835948494324158 0.5042059988753571	0.083987
H	0.3888597062950586 0.4453837499743834 0.5146029069579909	0.120346
H	0.2835874842122235 0.5509559908971743 0.5148025181677992	0.106702
H	0.2223704079009258 0.6089324228465393 0.5145880626285183	0.115295
H	0.0547592415702950 0.7718520127379113 0.5041905524152389	0.083114
H	0.1146865983061036 0.7127241373087525 0.5143306478294483	0.125555
H	0.0535853234376172 0.1164051755675825 0.0042060138753543	0.083987
H	0.1111402937049413 0.0546162500256168 0.0146029069579911	0.120345
H	0.2164125157877766 0.9490439761028265 0.0148025181677991	0.106703
H	0.2776295920990744 0.8910675771534607 0.0145880936285242	0.115294
H	0.4452407754297030 0.7281479872620887 0.0041905444152381	0.083113
H	0.3853133856939021 0.7872758626912475 0.0143306208294422	0.125556
H	0.5535853714376138 0.6164051505675839 0.0042060138753543	0.083996
H	0.6111402937049418 0.5546162170256174 0.0146029069579911	0.120344
H	0.7164124837877810 0.4490440091028257 0.0148025181677991	0.106703
H	0.7776295920990739 0.3910675441534617 0.0145880936285242	0.115294
H	0.9452407104297084 0.2281480032620896 0.0041905444152381	0.083113
H	0.8853134496939000 0.2872757966912495 0.0143306208294422	0.125556
Zn	0.5000000000000000 0.6729258274666859 0.7586918595928518	0.763075
Zn	0.0000000000000000 0.1729257944666868 0.7586918595928518	0.763075
Zn	0.5000000000000000 0.3270742055333131 0.2586918435928505	0.763079
Zn	0.0000000000000000 0.8270741725333141 0.2586918435928505	0.763079
Nb	0.5000000000000000 0.6728669479682917 0.2339533453213094	2.421664
Nb	0.0000000000000000 0.1728669969682921 0.2339533453213094	2.421664
Nb	0.5000000000000000 0.3271329870317140 0.7339533613213107	2.421662
Nb	0.0000000000000000 0.8271330520317083 0.7339533613213107	2.421662
F	0.5000000000000000 0.7395179746151231 0.2604760364710046	-0.581296
F	0.5000000000000000 0.6062449220379938 0.2611232289080342	-0.577860
F	0.0000000000000000 0.2395179416151244 0.2604760364710046	-0.581296
F	0.0000000000000000 0.1062449300379950 0.2611232289080341	-0.577860
F	0.5000000000000000 0.2604820423848743 0.7604760524710061	-0.581298
F	0.5000000000000000 0.3937550449620064 0.7611232449080358	-0.577858
F	0.0000000000000000 0.7604820253848769 0.7604760524710061	-0.581298
F	0.0000000000000000 0.8937550779620062 0.7611232449080358	-0.577858
F	0.5647753200523177 0.6727218461465126 0.2614362446128857	-0.581020
F	0.0647753120523172 0.1727218291465146 0.2614362446128857	-0.581020
F	0.4352246799476824 0.3272781538534878 0.7614362606128868	-0.581020
F	0.9352246799476823 0.8272781538534874 0.7614362606128868	-0.581021
F	0.4352246799476824 0.6727218461465126 0.2614362446128857	-0.581020
F	0.9352246799476823 0.1727218291465146 0.2614362446128857	-0.581020
F	0.5647753200523177 0.3272781538534878 0.7614362606128868	-0.581021
F	0.0647753120523172 0.8272781538534874 0.7614362606128868	-0.581020
F	0.5000000000000000 0.6731256696383033 0.4944684630333926	-0.604018
F	0.0000000000000000 0.1731256696383034 0.4944684630333926	-0.604018
F	0.5000000000000000 0.3268743303616963 -0.0055314749666093	-0.604017
F	0.0000000000000000 0.8268743303616967 -0.0055314749666093	-0.604017
O	0.5000000000000000 0.6728493201701283 0.0128006322073763	-0.911744
O	0.0000000000000000 0.1728493201701282 0.0128006322073763	-0.911744
O	0.5000000000000000 0.3271506798298716 0.5128006132073787	-0.911745
O	0.0000000000000000 0.8271506798298717 0.5128006132073787	-0.911745
N	0.5520779340276697 0.7254702786440389 0.7500871177759907	-0.220198
N	0.9488585043268467 0.1191853469316347 0.7500957125270652	-0.220642
N	0.0520779740276659 0.2254702946440405 0.7500871177759907	-0.220196
N	0.4488584723268513 0.6191853229316324 0.7500957125270652	-0.220670
N	0.4479220339723349 0.2745297053559596 0.2500871017759895	-0.220195
N	0.0511415236731484 0.8808146770683676 0.2500956965270636	-0.220672
N	0.9479220659723303 0.7745297213559611 0.2500871017759895	-0.220197
N	0.5511414956731533 0.3808146440683680 0.2500956965270636	-0.220644
N	0.4479220339723349 0.7254702786440389 0.7500871177759907	-0.220197
N	0.0511415236731484 0.1191853469316347 0.7500957125270652	-0.220670
N	0.9479220659723303 0.2254702946440405 0.7500871177759907	-0.220198
N	0.5511414956731533 0.6191853229316324 0.7500957125270652	-0.220642
N	0.5520779340276697 0.2745297053559596 0.2500871017759895	-0.220196
N	0.9488585043268467 0.8808146770683676 0.2500956965270636	-0.220644
N	0.0520779740276659 0.7745297213559611 0.2500871017759895	-0.220195
N	0.4488584723268513 0.3808146440683680 0.2500956965270636	-0.220672
	  	
