#======================================================================

# CRYSTAL DATA

#----------------------------------------------------------------------

data_VESTA_phase_1


_pd_phase_name                         NbOFFIVE_5_Cu_i
_cell_length_a                         19.75111
_cell_length_b                         19.75111
_cell_length_c                         16.29119
_cell_angle_alpha                      90
_cell_angle_beta                       90
_cell_angle_gamma                      90
_symmetry_space_group_name_H-M         P 1
_symmetry_Int_Tables_number            1

loop_
_symmetry_equiv_pos_as_xyz
   x, y, z

loop_
   _atom_site_label
   _atom_site_fract_x
   _atom_site_fract_y
   _atom_site_fract_z
   _atom_site_charge
F	0.3149065212957810 0.1747529431798554 0.3470732228208650	-0.601665
F	0.1850934667042253 0.3252470688201385 0.3470732228208650	-0.601663
F	0.3252470688201385 0.3149065212957810 0.3470732228208650	-0.601663
F	0.1747529431798554 0.1850934667042253 0.3470732228208650	-0.601664
F	0.6873891349414463 0.6728432435598798 0.1431121802938246	-0.601155
F	0.8126108650585537 0.8271567564401202 0.1431121802938246	-0.601154
F	0.6728432435598798 0.8126108650585537 0.1431121802938246	-0.601154
F	0.8271567564401202 0.6873891349414463 0.1431121802938246	-0.601155
F	0.6873891349414463 0.8271567564401202 0.6431121952938225	-0.601153
F	0.8126108650585537 0.6728432435598798 0.6431121952938225	-0.601155
F	0.6728432435598798 0.6873891349414463 0.6431121952938225	-0.601155
F	0.8271567564401202 0.8126108650585537 0.6431121952938225	-0.601154
F	0.3149065212957810 0.3252470688201385 0.8470731918208659	-0.601663
F	0.1850934667042253 0.1747529431798554 0.8470731918208659	-0.601664
F	0.3252470688201385 0.1850934667042253 0.8470731918208659	-0.601664
F	0.1747529431798554 0.3149065212957810 0.8470731918208659	-0.601663
F	0.2500000000000000 0.2500000000000000 0.2318712104124610	-0.646213
F	0.7500000000000000 0.7500000000000000 0.0283829120662316	-0.645149
F	0.7500000000000000 0.7500000000000000 0.5283829080662383	-0.645149
F	0.2500000000000000 0.2500000000000000 0.7318712564124575	-0.646212
O	0.2500000000000000 0.2500000000000000 0.4676764107842299	-0.963251
O	0.7500000000000000 0.7500000000000000 0.2641164032613783	-0.963143
O	0.7500000000000000 0.7500000000000000 0.7641163722613793	-0.963141
O	0.2500000000000000 0.2500000000000000 0.9676764107842366	-0.963253
N	0.3536985680870868 0.2480967438258386 0.6012625052243298	-0.222429
N	0.1463014079129183 0.2519032801741632 0.6012625052243298	-0.222429
N	0.2519032801741632 0.3536985680870867 0.6012625052243298	-0.222429
N	0.2480967438258386 0.1463014079129183 0.6012625052243298	-0.222430
N	0.6464257468647236 0.7458350150714189 0.8973047889446799	-0.223059
N	0.8535742051352795 0.7541649849285811 0.8973047889446799	-0.223059
N	0.7458350150714189 0.8535742051352795 0.8973047889446799	-0.223059
N	0.7541649849285811 0.6464257468647236 0.8973047889446799	-0.223059
N	0.6464257468647236 0.7541649849285811 0.3973047889446805	-0.223056
N	0.8535742051352795 0.7458350150714189 0.3973047889446805	-0.223057
N	0.7458350150714189 0.6464257468647236 0.3973047889446805	-0.223057
N	0.7541649849285811 0.8535742051352795 0.3973047889446805	-0.223057
N	0.3536985680870867 0.2519032801741632 0.1012625132243300	-0.222430
N	0.1463014079129183 0.2480967438258386 0.1012625132243300	-0.222431
N	0.2519032801741632 0.1463014079129183 0.1012625132243300	-0.222431
N	0.2480967438258386 0.3536985680870867 0.1012625132243300	-0.222430
C	0.3865739974639980 0.2193154580181042 0.6646865320112969	0.100426
C	0.4568320082726161 0.2180925847020725 0.6690096790958101	-0.173848
C	0.4954207147533171 0.2479861284724105 0.6064135738635575	0.105099
C	0.4600603649089836 0.2776431790630038 0.5408537742902778	-0.178950
C	0.3897788755580635 0.2765021327886183 0.5401809608332593	0.102874
C	0.5699181266910993 0.2485797888056960 0.6091356396001829	0.056401
C	0.6061973686039410 0.1921555723043205 0.6378902370683364	-0.129830
C	0.6765563653061176 0.1926053386829268 0.6390358168140196	-0.125567
C	0.7127982692304836 0.2499008735856808 0.6129940994728816	0.067627
C	0.6765532074859439 0.3066283506077737 0.5852390034403978	-0.120738
C	0.6062244131325357 0.3057320302176018 0.5826369952050341	-0.127103
C	0.1134260145360028 0.2806845179818939 0.6646865320112969	0.100427
C	0.0431680067273813 0.2819074392979223 0.6690096790958101	-0.173832
C	0.0045792932466838 0.2520138715275895 0.6064135738635575	0.105096
C	0.0399396560910147 0.2223568209369964 0.5408537742902778	-0.178950
C	0.1102211484419386 0.2234978672113817 0.5401809608332593	0.102875
C	0.9300818253089038 0.2514202351942987 0.6091356396001829	0.056402
C	0.8938025833960621 0.3078444276956794 0.6378902370683364	-0.129831
C	0.8234436346938824 0.3073946733170742 0.6390358168140196	-0.125567
C	0.7872017307695164 0.2500991504143141 0.6129940994728816	0.067624
C	0.8234467925140561 0.1933716613922274 0.5852390034403978	-0.120739
C	0.8937755868674643 0.1942679457823962 0.5826369952050341	-0.127104
C	0.2806845179818939 0.3865739974639980 0.6646865320112969	0.100426
C	0.2819074392979223 0.4568320082726161 0.6690096790958101	-0.173847
C	0.2520138715275895 0.4954207147533171 0.6064135738635575	0.105099
C	0.2223568209369964 0.4600603649089836 0.5408537742902778	-0.178950
C	0.2234978672113817 0.3897788755580635 0.5401809608332593	0.102875
C	0.2514202351942987 0.5699181266910993 0.6091356396001829	0.056402
C	0.3078444276956794 0.6061973686039410 0.6378902370683364	-0.129830
C	0.3073946733170742 0.6765563653061176 0.6390358168140196	-0.125567
C	0.2500991504143141 0.7127982692304836 0.6129940994728816	0.067628
C	0.1933716613922274 0.6765532074859439 0.5852390034403978	-0.120739
C	0.1942679457823962 0.6062244131325357 0.5826369952050341	-0.127103
C	0.2193154580181042 0.1134260145360028 0.6646865320112969	0.100429
C	0.2180925847020725 0.0431680067273813 0.6690096790958101	-0.173832
C	0.2479861284724105 0.0045792932466838 0.6064135738635575	0.105095
C	0.2776431790630038 0.0399396560910147 0.5408537742902778	-0.178949
C	0.2765021327886183 0.1102211484419386 0.5401809608332593	0.102876
C	0.2485797888056960 0.9300818253089038 0.6091356396001829	0.056402
C	0.1921555723043205 0.8938025833960621 0.6378902370683364	-0.129832
C	0.1926053386829268 0.8234436346938824 0.6390358168140196	-0.125567
C	0.2499008735856808 0.7872017307695164 0.6129940994728816	0.067623
C	0.3066283506077737 0.8234467925140561 0.5852390034403978	-0.120739
C	0.3057320302176018 0.8937755868674643 0.5826369952050341	-0.127104
C	0.6125871542019173 0.7172725660924046 0.8345443365187948	0.103938
C	0.5423826194746661 0.7165051619031196 0.8313955185230687	-0.177795
C	0.5047574162828732 0.7467812161347568 0.8946087687801632	0.106134
C	0.5411136313238550 0.7760049455666964 0.9595980450479590	-0.178636
C	0.6114062630387085 0.7743383357652195 0.9591547505088247	0.101507
C	0.4301983307781996 0.7478636584320542 0.8924518380689050	0.054264
C	0.3936950282805964 0.6916508355695907 0.8634341930970602	-0.128518
C	0.3233478061404011 0.6923750234456902 0.8619331940723343	-0.124872
C	0.2872412580494064 0.7497735029117480 0.8879039423824088	0.067701
C	0.3236874733070478 0.8063129063001043 0.9158441972631585	-0.120553
C	0.3940333327890871 0.8051335708722888 0.9188969519256208	-0.126964
C	0.8874127987980823 0.7827274339075954 0.8345443365187948	0.103937
C	0.9576173805253339 0.7834948380968804 0.8313955185230687	-0.177793
C	0.9952425837171268 0.7532187838652432 0.8946087687801632	0.106134
C	0.9588863686761450 0.7239950544333036 0.9595980450479590	-0.178637
C	0.8885937369612915 0.7256616642347805 0.9591547505088247	0.101507
C	0.0698016692218007 0.7521363415679458 0.8924518380689050	0.054264
C	0.1063049477194088 0.8083492124304061 0.8634341930970602	-0.128518
C	0.1766521938595988 0.8076250245543137 0.8619331940723343	-0.124872
C	0.2127587419505935 0.7502264970882520 0.8879039423824088	0.067697
C	0.1763125506929542 0.6936871416998996 0.9158441972631585	-0.120552
C	0.1059666672109127 0.6948664771277081 0.9188969519256208	-0.126963
C	0.7172725660924046 0.8874127987980823 0.8345443365187948	0.103937
C	0.7165051619031196 0.9576173805253339 0.8313955185230687	-0.177794
C	0.7467812161347568 0.9952425837171268 0.8946087687801632	0.106134
C	0.7760049455666964 0.9588863686761450 0.9595980450479590	-0.178635
C	0.7743383357652195 0.8885937369612915 0.9591547505088247	0.101508
C	0.7478636584320542 0.0698016692218007 0.8924518380689050	0.054264
C	0.6916508355695907 0.1063049477194088 0.8634341930970602	-0.128518
C	0.6923750234456902 0.1766521938595988 0.8619331940723343	-0.124872
C	0.7497735029117480 0.2127587419505935 0.8879039423824088	0.067701
C	0.8063129063001043 0.1763125506929542 0.9158441972631585	-0.120553
C	0.8051335708722888 0.1059666672109127 0.9188969519256208	-0.126963
C	0.7827274339075954 0.6125871542019173 0.8345443365187948	0.103939
C	0.7834948380968804 0.5423826194746661 0.8313955185230687	-0.177793
C	0.7532187838652432 0.5047574162828732 0.8946087687801632	0.106134
C	0.7239950544333036 0.5411136313238550 0.9595980450479590	-0.178637
C	0.7256616642347805 0.6114062630387085 0.9591547505088247	0.101508
C	0.7521363415679458 0.4301983307781996 0.8924518380689050	0.054264
C	0.8083492124304061 0.3936950282805964 0.8634341930970602	-0.128519
C	0.8076250245543137 0.3233478061404011 0.8619331940723343	-0.124871
C	0.7502264970882520 0.2872412580494064 0.8879039423824088	0.067697
C	0.6936871416998996 0.3236874733070478 0.9158441972631585	-0.120552
C	0.6948664771277081 0.3940333327890871 0.9188969519256208	-0.126964
C	0.6125871542019173 0.7827274339075954 0.3345443685187982	0.103920
C	0.5423826194746661 0.7834948380968804 0.3313954875230698	-0.177826
C	0.5047574162828732 0.7532187838652432 0.3946088307801613	0.106136
C	0.5411136313238550 0.7239950544333036 0.4595980140479596	-0.178637
C	0.6114062630387085 0.7256616642347805 0.4591547505088241	0.101507
C	0.4301983307781996 0.7521363415679458 0.3924518690689048	0.054263
C	0.3936950282805964 0.8083492124304061 0.3634342560970614	-0.128519
C	0.3233478061404011 0.8076250245543137 0.3619331940723341	-0.124871
C	0.2872412580494064 0.7502264970882520 0.3879039423824092	0.067700
C	0.3236874733070478 0.6936871416998996 0.4158441972631584	-0.120553
C	0.3940333327890871 0.6948664771277081 0.4188969829256268	-0.126964
C	0.8874127987980823 0.7172725660924046 0.3345443685187982	0.103920
C	0.9576173805253339 0.7165051619031196 0.3313954875230698	-0.177826
C	0.9952425837171268 0.7467812161347568 0.3946088307801613	0.106135
C	0.9588863686761450 0.7760049455666964 0.4595980140479596	-0.178635
C	0.8885937369612915 0.7743383357652195 0.4591547505088241	0.101506
C	0.0698016692218007 0.7478636584320542 0.3924518690689048	0.054263
C	0.1063049477194088 0.6916508355695907 0.3634342560970614	-0.128518
C	0.1766521938595988 0.6923750234456902 0.3619331940723341	-0.124871
C	0.2127587419505935 0.7497735029117480 0.3879039423824092	0.067697
C	0.1763125506929542 0.8063129063001043 0.4158441972631584	-0.120551
C	0.1059666672109127 0.8051335708722888 0.4188969829256268	-0.126964
C	0.7172725660924046 0.6125871542019173 0.3345443685187982	0.103921
C	0.7165051619031196 0.5423826194746661 0.3313954875230698	-0.177826
C	0.7467812161347568 0.5047574162828732 0.3946088307801613	0.106135
C	0.7760049455666964 0.5411136313238550 0.4595980140479596	-0.178635
C	0.7743383357652195 0.6114062630387085 0.4591547505088241	0.101507
C	0.7478636584320542 0.4301983307781996 0.3924518690689048	0.054262
C	0.6916508355695907 0.3936950282805964 0.3634342560970614	-0.128520
C	0.6923750234456902 0.3233478061404011 0.3619331940723341	-0.124872
C	0.7497735029117480 0.2872412580494064 0.3879039423824092	0.067699
C	0.8063129063001043 0.3236874733070478 0.4158441972631584	-0.120552
C	0.8051335708722888 0.3940333327890871 0.4188969829256268	-0.126965
C	0.7827274339075954 0.8874127987980823 0.3345443685187982	0.103920
C	0.7834948380968804 0.9576173805253339 0.3313954875230698	-0.177825
C	0.7532187838652432 0.9952425837171268 0.3946088307801613	0.106135
C	0.7239950544333036 0.9588863686761450 0.4595980140479596	-0.178635
C	0.7256616642347805 0.8885937369612915 0.4591547505088241	0.101506
C	0.7521363415679458 0.0698016692218007 0.3924518690689048	0.054263
C	0.8083492124304061 0.1063049477194088 0.3634342560970614	-0.128518
C	0.8076250245543137 0.1766521938595988 0.3619331940723341	-0.124870
C	0.7502264970882520 0.2127587419505935 0.3879039423824092	0.067697
C	0.6936871416998996 0.1763125506929542 0.4158441972631584	-0.120551
C	0.6948664771277081 0.1059666672109127 0.4188969829256268	-0.126964
C	0.3865739974639980 0.2806845179818939 0.1646865320112967	0.100424
C	0.4568320082726161 0.2819074392979223 0.1690097100958092	-0.173848
C	0.4954207147533171 0.2520138715275895 0.1064135198635610	0.105098
C	0.4600603649089837 0.2223568209369964 0.0408537982902800	-0.178951
C	0.3897788755580635 0.2234978672113817 0.0401809838332572	0.102874
C	0.5699181266910993 0.2514202351942987 0.1091356086001839	0.056402
C	0.6061973686039410 0.3078444276956794 0.1378901900683357	-0.129831
C	0.6765563653061176 0.3073946733170742 0.1390358328140213	-0.125567
C	0.7127982692304836 0.2500991504143141 0.1129941074728826	0.067626
C	0.6765532074859439 0.1933716613922274 0.0852390264403962	-0.120739
C	0.6062244131325357 0.1942679457823962 0.0826369712050322	-0.127104
C	0.1134260145360028 0.2193154580181042 0.1646865320112967	0.100428
C	0.0431680067273813 0.2180925847020725 0.1690097100958092	-0.173833
C	0.0045792932466838 0.2479861284724105 0.1064135198635610	0.105095
C	0.0399396560910147 0.2776431790630038 0.0408537982902800	-0.178949
C	0.1102211484419386 0.2765021327886183 0.0401809838332572	0.102875
C	0.9300818253089038 0.2485797888056960 0.1091356086001839	0.056402
C	0.8938025833960621 0.1921555723043205 0.1378901900683357	-0.129832
C	0.8234436346938824 0.1926053386829268 0.1390358328140213	-0.125566
C	0.7872017307695164 0.2499008735856808 0.1129941074728826	0.067623
C	0.8234467925140561 0.3066283506077737 0.0852390264403962	-0.120739
C	0.8937755868674643 0.3057320302176018 0.0826369712050322	-0.127105
C	0.2806845179818939 0.1134260145360028 0.1646865320112967	0.100429
C	0.2819074392979223 0.0431680067273813 0.1690097100958092	-0.173832
C	0.2520138715275895 0.0045792932466838 0.1064135198635610	0.105095
C	0.2223568209369964 0.0399396560910147 0.0408537982902800	-0.178950
C	0.2234978672113817 0.1102211484419386 0.0401809838332572	0.102875
C	0.2514202351942987 0.9300818253089038 0.1091356086001839	0.056402
C	0.3078444276956794 0.8938025833960621 0.1378901900683357	-0.129832
C	0.3073946733170742 0.8234436346938824 0.1390358328140213	-0.125566
C	0.2500991504143141 0.7872017307695164 0.1129941074728826	0.067626
C	0.1933716613922274 0.8234467925140561 0.0852390264403962	-0.120739
C	0.1942679457823962 0.8937755868674643 0.0826369712050322	-0.127105
C	0.2193154580181042 0.3865739974639980 0.1646865320112967	0.100425
C	0.2180925847020725 0.4568320082726161 0.1690097100958092	-0.173848
C	0.2479861284724105 0.4954207147533171 0.1064135198635610	0.105099
C	0.2776431790630038 0.4600603649089836 0.0408537982902800	-0.178950
C	0.2765021327886183 0.3897788755580635 0.0401809838332572	0.102875
C	0.2485797888056960 0.5699181266910993 0.1091356086001839	0.056402
C	0.1921555723043205 0.6061973686039410 0.1378901900683357	-0.129831
C	0.1926053386829268 0.6765563653061176 0.1390358328140213	-0.125567
C	0.2499008735856808 0.7127982692304836 0.1129941074728826	0.067623
C	0.3066283506077737 0.6765532074859439 0.0852390264403962	-0.120739
C	0.3057320302176018 0.6062244131325357 0.0826369712050322	-0.127105
H	0.3554443958430382 0.1982945856044414 0.7137313825312198	0.104829
H	0.4810285087835174 0.1954856180646239 0.7225385395572471	0.115834
H	0.4870681215229570 0.3002516811196890 0.4893669560433296	0.116131
H	0.3608834528723600 0.2977244999380148 0.4892296417815167	0.099861
H	0.5788100392531565 0.1471479255244580 0.6580564864110449	0.101276
H	0.7042341447209464 0.1484976334544778 0.6613845310758644	0.102385
H	0.7040386323325428 0.3510142100548527 0.5632559996790548	0.102678
H	0.5788590228666962 0.3502243667903321 0.5608646106162573	0.103979
H	0.1445556161569626 0.3017054143955584 0.7137313825312198	0.104830
H	0.0189715212164853 0.3045143579353743 0.7225385395572471	0.115820
H	0.0129318814770399 0.1997483188803108 0.4893669560433296	0.116132
H	0.1391165351276392 0.2022755000619853 0.4892296417815167	0.099861
H	0.9211899127468466 0.3528520864755430 0.6580564864110449	0.101275
H	0.7957658552790536 0.3515023545455213 0.6613845310758644	0.102385
H	0.7959613676674572 0.1489857899451475 0.5632559996790548	0.102675
H	0.9211409771333038 0.1497756332096677 0.5608646106162573	0.103978
H	0.3017054143955584 0.3554443958430382 0.7137313825312198	0.104829
H	0.3045143579353743 0.4810285087835174 0.7225385395572471	0.115833
H	0.1997483188803108 0.4870681215229570 0.4893669560433296	0.116131
H	0.2022755000619853 0.3608834528723600 0.4892296417815167	0.099861
H	0.3528520864755430 0.5788100392531565 0.6580564864110449	0.101277
H	0.3515023545455213 0.7042341447209464 0.6613845310758644	0.102386
H	0.1489857899451475 0.7040386323325428 0.5632559996790548	0.102677
H	0.1497756332096677 0.5788590228666962 0.5608646106162573	0.103978
H	0.1982945856044414 0.1445556161569626 0.7137313825312198	0.104830
H	0.1954856180646239 0.0189715212164853 0.7225385395572471	0.115821
H	0.3002516811196890 0.0129318814770399 0.4893669560433296	0.116131
H	0.2977244999380148 0.1391165351276392 0.4892296417815167	0.099861
H	0.1471479255244580 0.9211899127468466 0.6580564864110449	0.101275
H	0.1484976334544778 0.7957658552790536 0.6613845310758644	0.102384
H	0.3510142100548527 0.7959613676674572 0.5632559996790548	0.102676
H	0.3502243667903321 0.9211409771333038 0.5608646106162573	0.103980
H	0.6430751857864107 0.6961019857755759 0.7850306915983842	0.100506
H	0.5173510656706243 0.6941119658649718 0.7783578872595756	0.116057
H	0.5149989837700127 0.7988360240021524 0.0115643244545669	0.117091
H	0.6409436898285027 0.7952355779055930 0.0097027136082486	0.104250
H	0.4210121158058688 0.6466004366787388 0.8433038462464270	0.100139
H	0.2957053302989792 0.6484231673799776 0.8391938924775111	0.102381
H	0.2963778182486199 0.8508121148658631 0.9375929377030604	0.102756
H	0.4214786309718762 0.8494744033194561 0.9409471546376416	0.104618
H	0.8569248612135897 0.8038980622244281 0.7850306915983842	0.100505
H	0.9826489343293757 0.8058880341350282 0.7783578872595756	0.116056
H	0.9850009692299869 0.7011639759978476 0.0115643244545669	0.117091
H	0.8590562621715004 0.7047644220944070 0.0097027136082486	0.104249
H	0.0789879081941262 0.8533995633212612 0.8433038462464270	0.100140
H	0.2042946697010211 0.8515768326200224 0.8391938924775111	0.102380
H	0.2036221817513803 0.6491878371341330 0.9375929377030604	0.102755
H	0.0785213810281249 0.6505255486805399 0.9409471546376416	0.104618
H	0.6961019857755759 0.8569248612135897 0.7850306915983842	0.100505
H	0.6941119658649718 0.9826489343293757 0.7783578872595756	0.116056
H	0.7988360240021524 0.9850009692299869 0.0115643244545669	0.117090
H	0.7952355779055930 0.8590562621715004 0.0097027136082486	0.104249
H	0.6466004366787388 0.0789879081941262 0.8433038462464270	0.100140
H	0.6484231673799775 0.2042946697010211 0.8391938924775111	0.102381
H	0.8508121148658631 0.2036221817513803 0.9375929377030604	0.102756
H	0.8494744033194561 0.0785213810281249 0.9409471546376416	0.104619
H	0.8038980622244281 0.6430751857864107 0.7850306915983842	0.100505
H	0.8058880341350282 0.5173510656706243 0.7783578872595756	0.116056
H	0.7011639759978476 0.5149989837700127 0.0115643244545669	0.117092
H	0.7047644220944070 0.6409436898285027 0.0097027136082486	0.104250
H	0.8533995633212612 0.4210121158058688 0.8433038462464270	0.100141
H	0.8515768326200224 0.2957053302989792 0.8391938924775111	0.102380
H	0.6491878371341330 0.2963778182486199 0.9375929377030604	0.102754
H	0.6505255486805399 0.4214786309718762 0.9409471546376416	0.104618
H	0.6430751857864107 0.8038980622244281 0.2850306605983854	0.100511
H	0.5173510656706243 0.8058880341350282 0.2783578872595753	0.116097
H	0.5149989837700127 0.7011639759978476 0.5115643434545654	0.117092
H	0.6409436898285027 0.7047644220944070 0.5097026846082495	0.104250
H	0.4210121158058688 0.8533995633212612 0.3433038462464263	0.100139
H	0.2957053302989792 0.8515768326200224 0.3391939234775170	0.102381
H	0.2963778182486199 0.6491878371341330 0.4375929377030607	0.102755
H	0.4214786309718762 0.6505255486805399 0.4409472166376395	0.104619
H	0.8569248612135897 0.6961019857755759 0.2850306605983854	0.100510
H	0.9826489343293757 0.6941119658649718 0.2783578872595753	0.116098
H	0.9850009692299869 0.7988360240021524 0.5115643434545654	0.117091
H	0.8590562621715004 0.7952355779055930 0.5097026846082495	0.104250
H	0.0789879081941262 0.6466004366787388 0.3433038462464263	0.100140
H	0.2042946697010211 0.6484231673799776 0.3391939234775170	0.102380
H	0.2036221817513802 0.8508121148658631 0.4375929377030607	0.102755
H	0.0785213810281249 0.8494744033194561 0.4409472166376395	0.104620
H	0.6961019857755759 0.6430751857864107 0.2850306605983854	0.100511
H	0.6941119658649718 0.5173510656706243 0.2783578872595753	0.116098
H	0.7988360240021524 0.5149989837700127 0.5115643434545654	0.117092
H	0.7952355779055930 0.6409436898285027 0.5097026846082495	0.104250
H	0.6466004366787388 0.4210121158058688 0.3433038462464263	0.100140
H	0.6484231673799776 0.2957053302989792 0.3391939234775170	0.102381
H	0.8508121148658631 0.2963778182486199 0.4375929377030607	0.102755
H	0.8494744033194561 0.4214786309718762 0.4409472166376395	0.104621
H	0.8038980622244281 0.8569248612135897 0.2850306605983854	0.100510
H	0.8058880341350282 0.9826489343293757 0.2783578872595753	0.116097
H	0.7011639759978476 0.9850009692299869 0.5115643434545654	0.117091
H	0.7047644220944070 0.8590562621715004 0.5097026846082495	0.104250
H	0.8533995633212612 0.0789879081941262 0.3433038462464263	0.100141
H	0.8515768326200224 0.2042946697010211 0.3391939234775170	0.102381
H	0.6491878371341330 0.2036221817513803 0.4375929377030607	0.102755
H	0.6505255486805399 0.0785213810281249 0.4409472166376395	0.104620
H	0.3554443958430382 0.3017054143955584 0.2137314135312192	0.104830
H	0.4810285087835174 0.3045143579353743 0.2225385245572494	0.115834
H	0.4870681215229570 0.1997483188803108 0.9893669250433239	0.116132
H	0.3608834528723600 0.2022755000619853 0.9892296417815164	0.099861
H	0.5788100392531565 0.3528520864755430 0.1580564864110449	0.101278
H	0.7042341447209464 0.3515023545455213 0.1613845150758626	0.102385
H	0.7040386323325428 0.1489857899451475 0.0632560076790556	0.102677
H	0.5788590228666962 0.1497756332096677 0.0608645636162570	0.103981
H	0.1445556161569626 0.1982945856044414 0.2137314135312192	0.104830
H	0.0189715212164853 0.1954856180646239 0.2225385245572494	0.115821
H	0.0129318814770399 0.3002516811196890 0.9893669250433239	0.116132
H	0.1391165351276392 0.2977244999380148 0.9892296417815164	0.099862
H	0.9211899127468466 0.1471479255244580 0.1580564864110449	0.101276
H	0.7957658552790536 0.1484976334544778 0.1613845150758626	0.102383
H	0.7959613676674572 0.3510142100548527 0.0632560076790556	0.102676
H	0.9211409771333038 0.3502243667903321 0.0608645636162570	0.103980
H	0.3017054143955584 0.1445556161569626 0.2137314135312192	0.104830
H	0.3045143579353743 0.0189715212164853 0.2225385245572494	0.115821
H	0.1997483188803108 0.0129318814770399 0.9893669250433239	0.116132
H	0.2022755000619853 0.1391165351276392 0.9892296417815164	0.099862
H	0.3528520864755430 0.9211899127468466 0.1580564864110449	0.101278
H	0.3515023545455213 0.7957658552790536 0.1613845150758626	0.102384
H	0.1489857899451475 0.7959613676674572 0.0632560076790556	0.102676
H	0.1497756332096677 0.9211409771333038 0.0608645636162570	0.103981
H	0.1982945856044414 0.3554443958430382 0.2137314135312192	0.104830
H	0.1954856180646239 0.4810285087835174 0.2225385245572494	0.115835
H	0.3002516811196890 0.4870681215229570 0.9893669250433239	0.116131
H	0.2977244999380148 0.3608834528723600 0.9892296417815164	0.099861
H	0.1471479255244580 0.5788100392531565 0.1580564864110449	0.101278
H	0.1484976334544778 0.7042341447209464 0.1613845150758626	0.102384
H	0.3510142100548527 0.7040386323325428 0.0632560076790556	0.102676
H	0.3502243667903321 0.5788590228666962 0.0608645636162570	0.103982
Cu	0.2500000000000000 0.2500000000000000 0.5971177008944087	0.758227
Cu	0.7500000000000000 0.7500000000000000 0.8945751831652737	0.757574
Cu	0.7500000000000000 0.7500000000000000 0.3945751831652740	0.757576
Cu	0.2500000000000000 0.2500000000000000 0.0971177088944025	0.758231
Nb	0.2500000000000000 0.2500000000000000 0.3585054383805881	2.453137
Nb	0.7500000000000000 0.7500000000000000 0.1548894396434469	2.452584
Nb	0.7500000000000000 0.7500000000000000 0.6548894396434466	2.452584
Nb	0.2500000000000000 0.2500000000000000 0.8585054693805864	2.453138
	  	
