#======================================================================

# CRYSTAL DATA

#----------------------------------------------------------------------

data_VESTA_phase_1


_pd_phase_name                         NbOFFIVE_7_Cu
_cell_length_a                         18.94490
_cell_length_b                         18.94490
_cell_length_c                         8.37289
_cell_angle_alpha                      90
_cell_angle_beta                       90
_cell_angle_gamma                      90
_symmetry_space_group_name_H-M         P 1
_symmetry_Int_Tables_number            1

loop_
_symmetry_equiv_pos_as_xyz
   x, y, z

loop_
   _atom_site_label
   _atom_site_fract_x
   _atom_site_fract_y
   _atom_site_fract_z
   _atom_site_charge
C	0.6658755891326991 0.8702372983419904 0.6928231979620686	0.104155
C	0.6140826948933402 0.9220895510522170 0.6966586647161129	-0.175540
C	0.5807747889215411 0.8876760141359084 0.4314178864433051	-0.169264
C	0.6328189545913339 0.8362655447966026 0.4370090534810046	0.098597
C	0.8341244108673009 0.6297627016580096 0.6928231979620686	0.104155
C	0.8859173051066598 0.5779104489477830 0.6966586647161129	-0.175540
C	0.9192251610784619 0.6123240368640923 0.4314178864433051	-0.169264
C	0.8671809954086691 0.6637344552033974 0.4370090534810046	0.098596
C	0.6297627016580096 0.6658755891326991 0.6928231979620686	0.104155
C	0.5779104489477830 0.6140826948933402 0.6966586647161129	-0.175540
C	0.6123240368640923 0.5807747889215411 0.4314178864433051	-0.169264
C	0.6637344552033974 0.6328189545913339 0.4370090534810046	0.098597
C	0.8702372983419904 0.8341244108673009 0.6928231979620686	0.104155
C	0.9220895510522170 0.8859173051066598 0.6966586647161129	-0.175540
C	0.8876760141359084 0.9192251610784619 0.4314178864433051	-0.169263
C	0.8362655447966026 0.8671809954086691 0.4370090534810046	0.098597
C	0.3340999895276073 0.3698105454892323 0.3066092998571287	0.102833
C	0.3857082105172340 0.4219673429878525 0.3026479557968914	-0.173909
C	0.4193453223761814 0.3878880704259637 0.5678880669795764	-0.170377
C	0.3675961298486823 0.3362906690049212 0.5624261140913325	0.099766
C	0.1658999974723952 0.1301894545107677 0.3066092998571287	0.102833
C	0.1142917894827660 0.0780326570121474 0.3026479557968914	-0.173909
C	0.0806546776238186 0.1121119295740362 0.5678880669795764	-0.170377
C	0.1324038571513202 0.1637093309950787 0.5624261140913325	0.099766
C	0.3698105454892323 0.1658999974723952 0.3066092998571287	0.102833
C	0.4219673429878525 0.1142917894827660 0.3026479557968914	-0.173909
C	0.3878880704259637 0.0806546776238186 0.5678880669795764	-0.170377
C	0.3362906690049212 0.1324038571513202 0.5624261140913325	0.099767
C	0.1301894545107677 0.3340999895276073 0.3066092998571287	0.102833
C	0.0780326570121474 0.3857082105172340 0.3026479557968914	-0.173909
C	0.1121119295740362 0.4193453223761814 0.5678880669795764	-0.170377
C	0.1637093309950787 0.3675961298486823 0.5624261140913325	0.099767
C	0.4327016851663022 0.0705432884866628 0.4359245429390771	0.140938
C	0.4875262958782605 0.0167280065664356 0.4338360191605861	-0.120332
C	0.0672982958336926 0.4294566805133382 0.4359245429390771	0.140938
C	0.0124736781217373 0.4832719794335631 0.4338360191605861	-0.120332
C	0.4294566805133382 0.4327016851663022 0.4359245429390771	0.140938
C	0.4832719794335631 0.4875262958782605 0.4338360191605861	-0.120332
C	0.0705432884866628 0.0672982958336926 0.4359245429390771	0.140938
C	0.0167280065664356 0.0124736781217373 0.4338360191605861	-0.120332
C	0.5674779539602006 0.5703687692968109 0.5631421181494478	0.141059
C	0.5125996958531887 0.5166194577613527 0.5651473656192584	-0.121147
C	0.9325220960398035 0.9296312807031932 0.5631421181494478	0.141059
C	0.9874002531468107 0.9833805422386473 0.5651473656192584	-0.121147
C	0.5703687692968109 0.9325220960398035 0.5631421181494478	0.141059
C	0.5166194577613527 0.9874002531468107 0.5651473656192584	-0.121147
C	0.9296312807031932 0.5674779539602006 0.5631421181494478	0.141059
C	0.9833805422386473 0.5125996958531887 0.5651473656192584	-0.121147
H	0.7004456956458733 0.8607538728380573 0.7944012715370385	0.100383
H	0.6082287864829250 0.9544536778015932 0.8034995649611709	0.119753
H	0.5478031374232292 0.8915612854442171 0.3251382181012996	0.119545
H	0.6422939812505478 0.8013037703800893 0.3362505679591110	0.106462
H	0.7995543043541267 0.6392460761619421 0.7944012715370385	0.100383
H	0.8917712135170750 0.5455462721984098 0.8034995649611709	0.119753
H	0.9521968115767702 0.6084386635557822 0.3251382181012996	0.119545
H	0.8577060187494522 0.6986962296199107 0.3362505679591110	0.106462
H	0.6392460761619421 0.7004456956458733 0.7944012715370385	0.100383
H	0.5455462721984098 0.6082287864829250 0.8034995649611709	0.119753
H	0.6084386635557822 0.5478031374232292 0.3251382181012996	0.119545
H	0.6986962296199107 0.6422939812505478 0.3362505679591110	0.106462
H	0.8607538728380573 0.7995543043541267 0.7944012715370385	0.100383
H	0.9544536778015932 0.8917712135170750 0.8034995649611709	0.119753
H	0.8915612854442171 0.9521968115767702 0.3251382181012996	0.119545
H	0.8013037703800893 0.8577060187494522 0.3362505679591110	0.106462
H	0.2997980903468936 0.3601075388305806 0.2046810025808924	0.105655
H	0.3914213942890262 0.4542900854949322 0.1956654849677331	0.120130
H	0.4523542245370608 0.3919038006647111 0.6740278109518549	0.119147
H	0.3583411372843016 0.3010412238931734 0.6628287792092358	0.100430
H	0.2002019226531110 0.1398924741694241 0.2046810025808924	0.105655
H	0.1085785797109715 0.0457099335050657 0.1956654849677331	0.120130
H	0.0476458064629382 0.1080961863352843 0.6740278109518549	0.119147
H	0.1416588627156985 0.1989587631068289 0.6628287792092358	0.100430
H	0.3601075388305806 0.2002019226531110 0.2046810025808924	0.105655
H	0.4542900854949322 0.1085785797109715 0.1956654849677331	0.120130
H	0.3919038006647111 0.0476458064629382 0.6740278109518549	0.119147
H	0.3010412238931734 0.1416588627156985 0.6628287792092358	0.100430
H	0.1398924741694241 0.2997980903468936 0.2046810025808924	0.105655
H	0.0457099335050657 0.3914213942890262 0.1956654849677331	0.120130
H	0.1080961863352843 0.4523542245370608 0.6740278109518549	0.119147
H	0.1989587631068289 0.3583411372843016 0.6628287792092358	0.100430
H	0.5069863310643860 0.0013204317935693 0.3159136596612239	0.104598
H	0.9930136189356170 0.4986795662064304 0.3159136596612239	0.104598
H	0.4986795662064304 0.5069863310643860 0.3159136596612239	0.104598
H	0.0013204317935693 0.9930136189356170 0.3159136596612239	0.104598
H	0.4931624397182989 0.5012515669995642 0.6831502909740509	0.104447
H	0.0068375412817031 0.9987484830004328 0.6831502909740509	0.104447
H	0.5012515669995642 0.0068375412817031 0.6831502909740509	0.104447
H	0.9987484830004328 0.4931624397182989 0.6831502909740509	0.104447
Cu	0.2500000000000000 0.2500000000000000 0.4390807612109193	0.732045
Cu	0.7500000000000000 0.7500000000000000 0.5714835382565197	0.732998
Nb	0.2500000000000000 0.2500000000000000 0.9180800861460232	2.440399
Nb	0.7500000000000000 0.7500000000000000 0.0483253454743835	2.440840
F	0.2500000000000000 0.2500000000000000 0.1683031165702299	-0.648544
F	0.7500000000000000 0.7500000000000000 0.2991131824243930	-0.648685
F	0.3242652547864325 0.3217392419462420 0.9417213840531800	-0.602040
F	0.1757347452135675 0.1782607450537605 0.9417213840531800	-0.602040
F	0.1782607450537605 0.3242652547864325 0.9417213840531800	-0.602040
F	0.3217392419462420 0.1757347452135675 0.9417213840531800	-0.602040
F	0.6768291049104702 0.8228468901058780 0.0716818170713210	-0.602074
F	0.8231708950895298 0.6771531098941220 0.0716818170713210	-0.602074
F	0.8228468901058780 0.8231708950895298 0.0716818170713210	-0.602074
F	0.6771531098941220 0.6768291049104702 0.0716818170713210	-0.602074
O	0.2500000000000000 0.2500000000000000 0.7040324158324511	-0.956667
O	0.7500000000000000 0.7500000000000000 0.8344659413579558	-0.957571
N	0.3275569677435824 0.1746693483767113 0.4343528946731342	-0.218221
N	0.1724430322564178 0.3253306516232887 0.4343528946731342	-0.218221
N	0.3253306516232887 0.3275569677435824 0.4343528946731342	-0.218221
N	0.1746693483767113 0.1724430322564178 0.4343528946731342	-0.218221
N	0.6721445706874185 0.6749603145250946 0.5654357980347366	-0.218699
N	0.8278554293125815 0.8250396854749054 0.5654357980347366	-0.218699
N	0.6749603145250946 0.8278554293125815 0.5654357980347366	-0.218699
N	0.8250396854749054 0.6721445706874185 0.5654357980347366	-0.218699
	  	
