#======================================================================

# CRYSTAL DATA

#----------------------------------------------------------------------

data_VESTA_phase_1


_pd_phase_name                         NbOFFIVE_6_Zn_i
_cell_length_a                         17.86286
_cell_length_b                         17.86286
_cell_length_c                         15.67376
_cell_angle_alpha                      90
_cell_angle_beta                       90
_cell_angle_gamma                      90
_symmetry_space_group_name_H-M         P 1
_symmetry_Int_Tables_number            1

loop_
_symmetry_equiv_pos_as_xyz
   x, y, z

loop_
   _atom_site_label
   _atom_site_fract_x
   _atom_site_fract_y
   _atom_site_fract_z
   _atom_site_charge
N	0.2435410316964923 0.1284818196099483 0.1270697103481380	-0.226426
N	0.2564589683035077 0.3715181933900564 0.1270697103481380	-0.226426
N	0.3715181933900564 0.2435410316964923 0.1270697103481380	-0.226426
N	0.1284818196099483 0.2564589683035077 0.1270697103481380	-0.226426
N	0.7556258222667374 0.6284033885393793 0.3707968408583064	-0.225812
N	0.7443741777332626 0.8715966114606207 0.3707968408583064	-0.225813
N	0.6284033885393793 0.7443741777332626 0.3707968408583064	-0.225812
N	0.8715966114606207 0.7556258222667374 0.3707968408583064	-0.225813
N	0.7556258222667374 0.8715966114606207 0.8707968408583063	-0.225814
N	0.7443741777332626 0.6284033885393793 0.8707968408583063	-0.225813
N	0.6284033885393793 0.7556258222667374 0.8707968408583063	-0.225813
N	0.8715966114606207 0.7443741777332626 0.8707968408583063	-0.225814
N	0.2435410316964923 0.3715181933900564 0.6270697103481380	-0.226427
N	0.2564589683035077 0.1284818196099483 0.6270697103481380	-0.226427
N	0.3715181933900564 0.2564589683035077 0.6270697103481380	-0.226427
N	0.1284818196099483 0.2435410316964923 0.6270697103481380	-0.226427
C	0.2005316033898013 0.0926055298794011 0.1843372222332264	0.101510
C	0.1925768085009421 0.0152676385707803 0.1844599036458610	-0.185321
C	0.2326152306368145 0.9723513630633264 0.1250162192412431	0.111441
C	0.2785600526369085 0.0105079546138307 0.0669054336799591	-0.180240
C	0.2815722701872350 0.0882358586027389 0.0690322520930246	0.105086
C	0.2267392302838461 0.8900747543941103 0.1239195633672280	0.060898
C	0.2907499044004347 0.8463612008374075 0.1209630225907809	-0.174407
C	0.2862607053129234 0.7673909057879533 0.1220560943008289	0.085354
C	0.1487814923127914 0.7784348614924826 0.1246681679024505	-0.123925
C	0.1551743461232872 0.8551552152519074 0.1268409963080656	-0.135463
C	0.2994684096102033 0.4073944501205972 0.1843372222332264	0.101510
C	0.3074232044990626 0.4847323714292135 0.1844599036458610	-0.185321
C	0.2673847693631854 0.5276486369366736 0.1250162192412431	0.111440
C	0.2214399473630915 0.4894920603861670 0.0669054336799591	-0.180239
C	0.2184277298127649 0.4117641343972571 0.0690322520930246	0.105086
C	0.2732607697161538 0.6099252456058897 0.1239195633672280	0.060898
C	0.2092500825995678 0.6536387991625925 0.1209630225907809	-0.174407
C	0.2137392946870764 0.7326090942120467 0.1220560943008289	0.085351
C	0.3512185076872084 0.7215651385075174 0.1246681679024505	-0.123926
C	0.3448256538767128 0.6448447847480926 0.1268409963080656	-0.135463
C	0.4073944501205972 0.2005316033898013 0.1843372222332264	0.101511
C	0.4847323714292135 0.1925768085009421 0.1844599036458610	-0.185320
C	0.5276486369366736 0.2326152306368145 0.1250162192412431	0.111440
C	0.4894920603861670 0.2785600526369085 0.0669054336799591	-0.180239
C	0.4117641343972571 0.2815722701872350 0.0690322520930246	0.105087
C	0.6099252456058897 0.2267392302838461 0.1239195633672280	0.060898
C	0.6536387991625925 0.2907499044004347 0.1209630225907809	-0.174408
C	0.7326090942120467 0.2862607053129234 0.1220560943008289	0.085354
C	0.7215651385075174 0.1487814923127914 0.1246681679024505	-0.123925
C	0.6448447847480926 0.1551743461232872 0.1268409963080656	-0.135463
C	0.0926055298794011 0.2994684096102033 0.1843372222332264	0.101511
C	0.0152676385707803 0.3074232044990626 0.1844599036458610	-0.185320
C	0.9723513630633264 0.2673847693631854 0.1250162192412431	0.111440
C	0.0105079546138307 0.2214399473630915 0.0669054336799591	-0.180239
C	0.0882358586027389 0.2184277298127649 0.0690322520930246	0.105086
C	0.8900747543941103 0.2732607697161538 0.1239195633672280	0.060898
C	0.8463612008374075 0.2092500825995678 0.1209630225907809	-0.174407
C	0.7673909057879533 0.2137392946870764 0.1220560943008289	0.085351
C	0.7784348614924826 0.3512185076872084 0.1246681679024505	-0.123926
C	0.8551552152519074 0.3448256538767128 0.1268409963080656	-0.135463
C	0.7991425789766027 0.5924203868680049 0.3141334824134565	0.103339
C	0.8075481345862628 0.5150782723279850 0.3150495372443236	-0.184013
C	0.7675578641345550 0.4723547188891773 0.3747146032815326	0.112452
C	0.7215270637868887 0.5107040730818259 0.4325760791959642	-0.182533
C	0.7180421288754075 0.5883296386035791 0.4293824760621914	0.102246
C	0.7733572443345798 0.3900755919530395 0.3761372265605462	0.059832
C	0.7092983375241939 0.3463964149897246 0.3790778601259910	-0.173872
C	0.7137486165617014 0.2674142801692208 0.3779656286312468	0.085508
C	0.8512353173016036 0.2783859036745064 0.3753493094067878	-0.123929
C	0.8448741681320254 0.3551048501880404 0.3731978155341082	-0.135558
C	0.7008574210233973 0.9075796131319951 0.3141334824134565	0.103341
C	0.6924518654137372 0.9849217276720150 0.3150495372443236	-0.184012
C	0.7324421358654450 0.0276453031108245 0.3747146032815326	0.112452
C	0.7784729362131113 0.9892959799181750 0.4325760791959642	-0.182533
C	0.7819578711245925 0.9116703613964209 0.4293824760621914	0.102246
C	0.7266427556654202 0.1099244080469607 0.3761372265605462	0.059832
C	0.7907016624758061 0.1536035720102778 0.3790778601259910	-0.173871
C	0.7862513834382986 0.2325857198307791 0.3779656286312468	0.085505
C	0.6487646826983964 0.2216140963254935 0.3753493094067878	-0.123929
C	0.6551258318679746 0.1448951238119575 0.3731978155341082	-0.135559
C	0.5924203868680049 0.7008574210233973 0.3141334824134565	0.103339
C	0.5150782723279850 0.6924518654137372 0.3150495372443236	-0.184012
C	0.4723547188891773 0.7324421358654450 0.3747146032815326	0.112452
C	0.5107040730818259 0.7784729362131113 0.4325760791959642	-0.182533
C	0.5883296386035791 0.7819578711245925 0.4293824760621914	0.102246
C	0.3900755919530395 0.7266427556654202 0.3761372265605462	0.059833
C	0.3463964149897246 0.7907016624758061 0.3790778601259910	-0.173872
C	0.2674142801692208 0.7862513834382986 0.3779656286312468	0.085508
C	0.2783859036745064 0.6487646826983964 0.3753493094067878	-0.123929
C	0.3551048501880404 0.6551258318679746 0.3731978155341082	-0.135559
C	0.9075796131319951 0.7991425789766027 0.3141334824134565	0.103342
C	0.9849217276720150 0.8075481345862628 0.3150495372443236	-0.184012
C	0.0276453031108245 0.7675578641345550 0.3747146032815326	0.112452
C	0.9892959799181750 0.7215270637868887 0.4325760791959642	-0.182532
C	0.9116703613964209 0.7180421288754075 0.4293824760621914	0.102247
C	0.1099244080469607 0.7733572443345798 0.3761372265605462	0.059832
C	0.1536035720102778 0.7092983375241938 0.3790778601259910	-0.173871
C	0.2325857198307791 0.7137486165617014 0.3779656286312468	0.085505
C	0.2216140963254935 0.8512353173016036 0.3753493094067878	-0.123929
C	0.1448951238119575 0.8448741681320254 0.3731978155341082	-0.135559
C	0.7991425789766027 0.9075796131319951 0.8141334504134541	0.103341
C	0.8075481345862628 0.9849217276720150 0.8150495692443191	-0.184012
C	0.7675578641345550 0.0276453031108245 0.8747146032815326	0.112451
C	0.7215270637868887 0.9892959799181750 0.9325761111959597	-0.182532
C	0.7180421288754075 0.9116703613964209 0.9293824440621886	0.102246
C	0.7733572443345798 0.1099244080469607 0.8761371625605480	0.059832
C	0.7092983375241938 0.1536035720102778 0.8790778921259940	-0.173871
C	0.7137486165617014 0.2325857198307791 0.8779655656312522	0.085508
C	0.8512353173016036 0.2216140963254935 0.8753493094067880	-0.123928
C	0.8448741681320254 0.1448951238119575 0.8731978155341079	-0.135559
C	0.7008574210233973 0.5924203868680049 0.8141334504134541	0.103339
C	0.6924518654137372 0.5150782723279850 0.8150495692443191	-0.184012
C	0.7324421358654450 0.4723547188891773 0.8747146032815326	0.112452
C	0.7784729362131113 0.5107040730818259 0.9325761111959597	-0.182532
C	0.7819578711245925 0.5883296386035791 0.9293824440621886	0.102245
C	0.7266427556654202 0.3900755919530395 0.8761371625605480	0.059832
C	0.7907016624758061 0.3463964149897246 0.8790778921259940	-0.173871
C	0.7862513834382986 0.2674142801692208 0.8779655656312522	0.085505
C	0.6487646826983964 0.2783859036745064 0.8753493094067880	-0.123929
C	0.6551258318679746 0.3551048501880404 0.8731978155341079	-0.135559
C	0.5924203868680049 0.7991425789766027 0.8141334504134541	0.103339
C	0.5150782723279850 0.8075481345862628 0.8150495692443191	-0.184012
C	0.4723547188891773 0.7675578641345550 0.8747146032815326	0.112451
C	0.5107040730818259 0.7215270637868887 0.9325761111959597	-0.182532
C	0.5883296386035791 0.7180421288754075 0.9293824440621886	0.102246
C	0.3900755919530395 0.7733572443345798 0.8761371625605480	0.059833
C	0.3463964149897246 0.7092983375241939 0.8790778921259940	-0.173872
C	0.2674142801692208 0.7137486165617014 0.8779655656312522	0.085508
C	0.2783859036745064 0.8512353173016036 0.8753493094067880	-0.123928
C	0.3551048501880404 0.8448741681320254 0.8731978155341079	-0.135559
C	0.9075796131319951 0.7008574210233973 0.8141334504134541	0.103341
C	0.9849217276720150 0.6924518654137372 0.8150495692443191	-0.184012
C	0.0276453031108245 0.7324421358654450 0.8747146032815326	0.112451
C	0.9892959799181750 0.7784729362131113 0.9325761111959597	-0.182532
C	0.9116703613964209 0.7819578711245925 0.9293824440621886	0.102246
C	0.1099244080469607 0.7266427556654202 0.8761371625605480	0.059832
C	0.1536035720102778 0.7907016624758061 0.8790778921259940	-0.173871
C	0.2325857198307791 0.7862513834382986 0.8779655656312522	0.085505
C	0.2216140963254935 0.6487646826983964 0.8753493094067880	-0.123929
C	0.1448951238119575 0.6551258318679746 0.8731978155341079	-0.135560
C	0.2005316033898013 0.4073944501205972 0.6843372222332262	0.101510
C	0.1925768085009421 0.4847323714292135 0.6844598716458653	-0.185320
C	0.2326152306368145 0.5276486369366736 0.6250162112412423	0.111440
C	0.2785600526369085 0.4894920603861670 0.5669053976799632	-0.180239
C	0.2815722701872350 0.4117641343972571 0.5690322840930273	0.105086
C	0.2267392302838461 0.6099252456058897 0.6239196193672253	0.060898
C	0.2907499044004347 0.6536387991625925 0.6209630065907795	-0.174409
C	0.2862607053129234 0.7326090942120467 0.6220561413008291	0.085353
C	0.1487814923127914 0.7215651385075174 0.6246681759024511	-0.123925
C	0.1551743461232872 0.6448447847480926 0.6268410113080705	-0.135464
C	0.2994684096102033 0.0926055298794011 0.6843372222332262	0.101510
C	0.3074232044990626 0.0152676385707803 0.6844598716458653	-0.185320
C	0.2673847693631854 0.9723513630633264 0.6250162112412423	0.111440
C	0.2214399473630915 0.0105079546138307 0.5669053976799632	-0.180239
C	0.2184277298127649 0.0882358586027389 0.5690322840930273	0.105086
C	0.2732607697161538 0.8900747543941103 0.6239196193672253	0.060898
C	0.2092500825995678 0.8463612008374075 0.6209630065907795	-0.174408
C	0.2137392946870764 0.7673909057879533 0.6220561413008291	0.085351
C	0.3512185076872084 0.7784348614924826 0.6246681759024511	-0.123926
C	0.3448256538767128 0.8551552152519074 0.6268410113080705	-0.135463
C	0.4073944501205972 0.2994684096102033 0.6843372222332262	0.101511
C	0.4847323714292135 0.3074232044990626 0.6844598716458653	-0.185320
C	0.5276486369366736 0.2673847693631854 0.6250162112412423	0.111440
C	0.4894920603861670 0.2214399473630915 0.5669053976799632	-0.180238
C	0.4117641343972571 0.2184277298127649 0.5690322840930273	0.105086
C	0.6099252456058897 0.2732607697161538 0.6239196193672253	0.060898
C	0.6536387991625925 0.2092500825995678 0.6209630065907795	-0.174409
C	0.7326090942120467 0.2137392946870764 0.6220561413008291	0.085353
C	0.7215651385075174 0.3512185076872084 0.6246681759024511	-0.123924
C	0.6448447847480926 0.3448256538767128 0.6268410113080705	-0.135464
C	0.0926055298794011 0.2005316033898013 0.6843372222332262	0.101510
C	0.0152676385707803 0.1925768085009421 0.6844598716458653	-0.185319
C	0.9723513630633264 0.2326152306368145 0.6250162112412423	0.111440
C	0.0105079546138307 0.2785600526369085 0.5669053976799632	-0.180238
C	0.0882358586027389 0.2815722701872350 0.5690322840930273	0.105086
C	0.8900747543941103 0.2267392302838461 0.6239196193672253	0.060898
C	0.8463612008374075 0.2907499044004347 0.6209630065907795	-0.174408
C	0.7673909057879533 0.2862607053129234 0.6220561413008291	0.085351
C	0.7784348614924826 0.1487814923127914 0.6246681759024511	-0.123926
C	0.8551552152519074 0.1551743461232872 0.6268410113080705	-0.135464
H	0.1727584807526114 0.1275877493046806 0.2318793277555439	0.095976
H	0.1572040653053462 0.9883178436541482 0.2320289683770698	0.114023
H	0.3099995221705001 0.9796454452640990 0.0188467541666340	0.112925
H	0.3143589573969936 0.1199474190810794 0.0226961486377959	0.098503
H	0.3458611434370422 0.8728682821937179 0.1203070908772481	0.108467
H	0.0937261874413649 0.7517885140824042 0.1253008651793620	0.108560
H	0.1052687834616621 0.8903675261725233 0.1288741433821841	0.100487
H	0.3272415062473911 0.3724122776953180 0.2318793277555439	0.095976
H	0.3427959476946512 0.5116822093458526 0.2320289683770698	0.114023
H	0.1900004648295024 0.5203545007358965 0.0188467541666340	0.112925
H	0.1856410426030063 0.3800525669189194 0.0226961486377959	0.098503
H	0.1541388565629581 0.6271317178062821 0.1203070908772481	0.108465
H	0.4062737925586406 0.7482114859175958 0.1253008651793620	0.108557
H	0.3947312165383379 0.6096324738274767 0.1288741433821841	0.100487
H	0.3724122776953180 0.1727584807526114 0.2318793277555439	0.095976
H	0.5116822093458526 0.1572040653053462 0.2320289683770698	0.114023
H	0.5203545007358965 0.3099995221705001 0.0188467541666340	0.112925
H	0.3800525669189194 0.3143589573969936 0.0226961486377959	0.098503
H	0.6271317178062821 0.3458611434370422 0.1203070908772481	0.108469
H	0.7482114859175958 0.0937261874413649 0.1253008651793620	0.108560
H	0.6096324738274767 0.1052687834616621 0.1288741433821841	0.100489
H	0.1275877493046806 0.3272415062473911 0.2318793277555439	0.095976
H	0.9883178436541482 0.3427959476946512 0.2320289683770698	0.114023
H	0.9796454452640990 0.1900004648295024 0.0188467541666340	0.112925
H	0.1199474190810794 0.1856410426030063 0.0226961486377959	0.098503
H	0.8728682821937179 0.1541388565629581 0.1203070908772481	0.108466
H	0.7517885140824042 0.4062737925586405 0.1253008651793620	0.108557
H	0.8903675261725233 0.3947312165383379 0.1288741433821841	0.100489
H	0.8270248107233222 0.6271582218601844 0.2664529638096294	0.099693
H	0.8433001286216579 0.4878934661628074 0.2680219172323584	0.112814
H	0.6904188955589516 0.4801584967685953 0.4811711733634685	0.114238
H	0.6853370461764656 0.6202740452576724 0.4755996618344314	0.095255
H	0.6541828394262350 0.3728996373516628 0.3797138328288902	0.108617
H	0.9062862834595927 0.2517436038880386 0.3747107583179720	0.108507
H	0.8947693989612088 0.3903263809172774 0.3711477589519265	0.100410
H	0.6729751892766778 0.8728417781398156 0.2664529638096294	0.099693
H	0.6566998713783421 0.0121064988371861 0.2680219172323584	0.112813
H	0.8095811044410484 0.0198415302314104 0.4811711733634685	0.114238
H	0.8146629538235344 0.8797259547423276 0.4755996618344314	0.095255
H	0.8458171605737650 0.1271003626483374 0.3797138328288902	0.108614
H	0.5937137165404073 0.2482563961119615 0.3747107583179720	0.108505
H	0.6052306010387912 0.1096736190827225 0.3711477589519265	0.100410
H	0.6271582218601844 0.6729751892766778 0.2664529638096294	0.099693
H	0.4878934661628074 0.6566998713783421 0.2680219172323584	0.112814
H	0.4801584967685953 0.8095811044410484 0.4811711733634685	0.114238
H	0.6202740452576724 0.8146629538235344 0.4755996618344314	0.095255
H	0.3728996373516628 0.8458171605737650 0.3797138328288902	0.108618
H	0.2517436038880386 0.5937137165404073 0.3747107583179720	0.108508
H	0.3903263809172774 0.6052306010387912 0.3711477589519265	0.100412
H	0.8728417781398156 0.8270248107233222 0.2664529638096294	0.099693
H	0.0121064988371861 0.8433001286216579 0.2680219172323584	0.112813
H	0.0198415302314104 0.6904188955589516 0.4811711733634685	0.114238
H	0.8797259547423276 0.6853370461764656 0.4755996618344314	0.095255
H	0.1271003626483374 0.6541828394262350 0.3797138328288902	0.108615
H	0.2482563961119615 0.9062862834595927 0.3747107583179720	0.108505
H	0.1096736190827225 0.8947693989612088 0.3711477589519265	0.100411
H	0.8270248107233222 0.8728417781398156 0.7664529488096247	0.099693
H	0.8433001286216579 0.0121064988371861 0.7680219332323593	0.112813
H	0.6904188955589516 0.0198415302314104 0.9811711733634683	0.114236
H	0.6853370461764656 0.8797259547423276 0.9755996618344314	0.095255
H	0.6541828394262350 0.1271003626483374 0.8797138018288845	0.108616
H	0.9062862834595927 0.2482563961119615 0.8747107583179720	0.108507
H	0.8947693989612088 0.1096736190827225 0.8711477909519217	0.100411
H	0.6729751892766778 0.6271582218601844 0.7664529488096247	0.099693
H	0.6566998713783421 0.4878934661628074 0.7680219332323593	0.112814
H	0.8095811044410484 0.4801584967685953 0.9811711733634683	0.114236
H	0.8146629538235344 0.6202740452576724 0.9755996618344314	0.095255
H	0.8458171605737650 0.3728996373516628 0.8797138018288845	0.108613
H	0.5937137165404073 0.2517436038880386 0.8747107583179720	0.108504
H	0.6052306010387912 0.3903263809172774 0.8711477909519217	0.100411
H	0.6271582218601844 0.8270248107233222 0.7664529488096247	0.099693
H	0.4878934661628074 0.8433001286216579 0.7680219332323593	0.112815
H	0.4801584967685953 0.6904188955589516 0.9811711733634683	0.114236
H	0.6202740452576724 0.6853370461764656 0.9755996618344314	0.095255
H	0.3728996373516628 0.6541828394262350 0.8797138018288845	0.108617
H	0.2517436038880386 0.9062862834595927 0.8747107583179720	0.108507
H	0.3903263809172774 0.8947693989612088 0.8711477909519217	0.100412
H	0.8728417781398156 0.6729751892766778 0.7664529488096247	0.099693
H	0.0121064988371861 0.6566998713783421 0.7680219332323593	0.112813
H	0.0198415302314104 0.8095811044410484 0.9811711733634683	0.114236
H	0.8797259547423276 0.8146629538235344 0.9755996618344314	0.095256
H	0.1271003626483374 0.8458171605737650 0.8797138018288845	0.108614
H	0.2482563961119615 0.5937137165404073 0.8747107583179720	0.108504
H	0.1096736190827225 0.6052306010387912 0.8711477909519217	0.100412
H	0.1727584807526114 0.3724122776953180 0.7318793427555487	0.095977
H	0.1572040653053462 0.5116822093458526 0.7320289523770684	0.114022
H	0.3099995221705001 0.5203545007358965 0.5188467911666336	0.112923
H	0.3143589573969936 0.3800525669189194 0.5226961346377950	0.098504
H	0.3458611434370422 0.6271317178062821 0.6203071148772502	0.108468
H	0.0937261874413649 0.7482114859175958 0.6253008571793612	0.108557
H	0.1052687834616621 0.6096324738274767 0.6288741273821901	0.100487
H	0.3272415062473911 0.1275877493046806 0.7318793427555487	0.095976
H	0.3427959476946512 0.9883178436541482 0.7320289523770684	0.114022
H	0.1900004648295024 0.9796454452640990 0.5188467911666336	0.112923
H	0.1856410426030063 0.1199474190810794 0.5226961346377950	0.098504
H	0.1541388565629581 0.8728682821937179 0.6203071148772502	0.108466
H	0.4062737925586406 0.7517885140824042 0.6253008571793612	0.108554
H	0.3947312165383379 0.8903675261725233 0.6288741273821901	0.100487
H	0.3724122776953180 0.3272415062473911 0.7318793427555487	0.095977
H	0.5116822093458526 0.3427959476946512 0.7320289523770684	0.114023
H	0.5203545007358965 0.1900004648295024 0.5188467911666336	0.112923
H	0.3800525669189194 0.1856410426030063 0.5226961346377950	0.098504
H	0.6271317178062821 0.1541388565629581 0.6203071148772502	0.108470
H	0.7482114859175958 0.4062737925586406 0.6253008571793612	0.108557
H	0.6096324738274767 0.3947312165383379 0.6288741273821901	0.100488
H	0.1275877493046806 0.1727584807526114 0.7318793427555487	0.095976
H	0.9883178436541482 0.1572040653053462 0.7320289523770684	0.114023
H	0.9796454452640990 0.3099995221705001 0.5188467911666336	0.112924
H	0.1199474190810794 0.3143589573969936 0.5226961346377950	0.098504
H	0.8728682821937179 0.3458611434370422 0.6203071148772502	0.108467
H	0.7517885140824042 0.0937261874413649 0.6253008571793612	0.108555
H	0.8903675261725233 0.1052687834616621 0.6288741273821901	0.100488
F	0.3108287163511737 0.1593924892475214 0.3841380876532328	-0.604183
F	0.1891712836488262 0.3406075107524787 0.3841380876532328	-0.604183
F	0.3406075107524787 0.3108287163511737 0.3841380876532328	-0.604183
F	0.1593924892475214 0.1891712836488262 0.3841380876532328	-0.604183
F	0.6893207343348559 0.6592412244301479 0.1266501479149319	-0.604518
F	0.8106792656651441 0.8407587755698521 0.1266501479149319	-0.604518
F	0.6592412244301479 0.8106792656651441 0.1266501479149319	-0.604518
F	0.8407587755698521 0.6893207343348559 0.1266501479149319	-0.604517
F	0.6893207343348559 0.8407587755698521 0.6266501399149312	-0.604518
F	0.8106792656651441 0.6592412244301479 0.6266501399149312	-0.604517
F	0.6592412244301479 0.6893207343348559 0.6266501399149312	-0.604517
F	0.8407587755698521 0.8106792656651441 0.6266501399149312	-0.604518
F	0.3108287163511737 0.3406075107524787 0.8841380876532325	-0.604184
F	0.1891712836488262 0.1593924892475214 0.8841380876532325	-0.604184
F	0.3406075107524787 0.1891712836488262 0.8841380876532325	-0.604183
F	0.1593924892475214 0.3108287163511737 0.8841380876532325	-0.604184
F	0.2500000000000000 0.2500000000000000 0.5024032592072575	-0.604823
F	0.7500000000000000 0.7500000000000000 0.2452617216337745	-0.604942
F	0.7500000000000000 0.7500000000000000 0.7452617526337738	-0.604943
F	0.2500000000000000 0.2500000000000000 0.0024032912072534	-0.604823
O	0.2500000000000000 0.2500000000000000 0.2570004294111253	-0.943490
O	0.7500000000000000 0.7500000000000000 -0.0001016720545211	-0.944050
O	0.7500000000000000 0.7500000000000000 0.4998983329454759	-0.944050
O	0.2500000000000000 0.2500000000000000 0.7570004144111203	-0.943491
Zn	0.2500000000000000 0.2500000000000000 0.1315217221202629	0.780117
Zn	0.7500000000000000 0.7500000000000000 0.3745486361900283	0.780744
Zn	0.7500000000000000 0.7500000000000000 0.8745485721900229	0.780746
Zn	0.2500000000000000 0.2500000000000000 0.6315217701202667	0.780119
Nb	0.2500000000000000 0.2500000000000000 0.3708785763037384	2.475210
Nb	0.7500000000000000 0.7500000000000000 0.1137313049565939	2.477497
Nb	0.7500000000000000 0.7500000000000000 0.6137313209565883	2.477497
Nb	0.2500000000000000 0.2500000000000000 0.8708785763037382	2.475211
	  	
