#======================================================================

# CRYSTAL DATA

#----------------------------------------------------------------------

data_VESTA_phase_1


_pd_phase_name                         NbOFFIVE_13_Fe_i
_cell_length_a                         15.49347
_cell_length_b                         15.49387
_cell_length_c                         7.91521
_cell_angle_alpha                      89.84277
_cell_angle_beta                       90.21536
_cell_angle_gamma                      89.30881
_symmetry_space_group_name_H-M         P 1
_symmetry_Int_Tables_number            1

loop_
_symmetry_equiv_pos_as_xyz
   x, y, z

loop_
   _atom_site_label
   _atom_site_fract_x
   _atom_site_fract_y
   _atom_site_fract_z
   _atom_site_charge
C	0.5425439835901984 0.6876770274209698 0.8753386623249115	0.101017
C	0.5466610511954880 0.7774230241457337 0.8739441522524276	-0.152456
C	0.4605209543127317 0.3158676162906725 0.8824644105027087	0.099981
C	0.4570398009553646 0.2261590817759828 0.8817586960745702	-0.143090
C	0.8139096870911524 0.9703416784550303 0.3663761017979522	0.104552
C	0.7242621656043353 0.9680715086112851 0.3604572945200082	-0.138310
C	0.3137229605854071 0.5452057424330976 0.8739177623740848	0.099118
C	0.2238892187954669 0.5491393014817675 0.8705729742884998	-0.150258
C	0.1870104954388599 0.9703113776736390 0.3615661844965768	0.101142
C	0.2766410696375797 0.9688036116418134 0.3574633639366813	-0.139894
C	0.6866242506406149 0.4604952376342011 0.8862047063415917	0.101855
C	0.7763866772065502 0.4571380353934132 0.8840889305847798	-0.141673
C	0.4520098461932106 0.6889671707016515 0.1080776216624120	0.101806
C	0.4494530052728740 0.7786639802903158 0.1112505329965502	-0.143046
C	0.5456158355994987 0.3156122834810133 0.1243333668786235	0.100570
C	0.5486687745734624 0.2258342963054883 0.1288313726552959	-0.151820
C	0.1858856575192999 0.0253744848482397 0.6335649738162733	0.107206
C	0.2754012575905496 0.0266794266150659 0.6404483136143543	-0.142073
C	0.6858528275405690 0.5481379384010906 0.1233883624852562	0.099340
C	0.7756024732019284 0.5514305158443495 0.1260450217467498	-0.152083
C	0.8124674435246724 0.0309227104119490 0.6338561844973846	0.100000
C	0.7229099239807594 0.0322209143890599 0.6382907403440334	-0.140725
C	0.3136538655727579 0.4557102941136183 0.1094415703254936	0.101391
C	0.2239953800702452 0.4529393105356613 0.1108205733287264	-0.143892
C	0.9631813963593049 0.8108600813756904 0.6278366128930217	0.106684
C	0.9618641981779653 0.7212405967731459 0.6330741191718425	-0.142089
C	0.9778849954204134 0.1848194253649645 0.6397648288606205	0.101032
C	0.9763323850024422 0.2743256843437051 0.6437703707360860	-0.142502
C	0.0241843206964676 0.8107528576553806 0.3609964564506235	0.098650
C	0.0264376207923690 0.7211517649461303 0.3558428553026061	-0.140294
C	0.0305337224584270 0.1829732897453625 0.3659395873738705	0.105577
C	0.0318562549517998 0.2726441346392169 0.3589672648848845	-0.141531
C	0.0036816995151620 0.3193003575614626 0.5001864669141054	0.043996
C	0.0021566480902603 0.4139161591189589 0.4988683828614499	0.255699
C	0.4987034864370690 0.8239569702523272 0.9932217969699759	0.056576
C	0.5000477332765751 0.9190027901288387 0.9982824361262371	0.244512
C	0.9950957011559178 0.6752732126413870 0.4949977684861441	0.039812
C	0.9976937630977845 0.5805642844278825 0.4965246197286949	0.247321
C	0.5025856525832947 0.1801179946828181 0.0065105496970374	0.055987
C	0.5017330925181686 0.0849133005583166 0.0079301821904247	0.245825
C	0.6777454099203076 -0.0004559896789467 0.4992327735590659	0.039902
C	0.5830949046145317 0.9973932328532608 0.5011698728110768	0.248310
C	0.1780519298001760 0.5015290475213013 0.9902607641659370	0.056003
C	0.0828986772109523 0.5024592069599230 0.9928002398969544	0.244699
C	0.3218632850863515 0.9972522391858083 0.4999392372282363	0.043452
C	0.4164825451189939 0.9962184357623859 0.5021545862415129	0.253339
C	0.8218712836125125 0.5041162228874537 0.0054758185762481	0.055432
C	0.9170033191402173 0.5036726676168111 0.0037013921110217	0.247621
H	0.5759385562424721 0.6490815735848559 0.7802020583974330	0.108413
H	0.5857879849185997 0.8103065072135995 0.7800074501361491	0.123867
H	0.4291439463580856 0.3541524944933172 0.7833676890205715	0.109392
H	0.4218178316294570 0.1922151347550329 0.7833980350224717	0.119005
H	0.8524090733633364 0.9469543905179623 0.2606643754002803	0.106347
H	0.6914108534667718 0.9427111135882186 0.2496693341075410	0.119216
H	0.3518546823683970 0.5783337913946237 0.7785605057453762	0.109066
H	0.1904695106057879 0.5878748828641395 0.7749747448794098	0.124455
H	0.1499085342803286 0.9498990995243212 0.2520020903235620	0.098987
H	0.3102429367478485 0.9470779481393755 0.2444621784405330	0.117390
H	0.6486090118628238 0.4282383211271569 0.7892680456159431	0.108472
H	0.8107873694066872 0.4210915986232959 0.7868311720217314	0.117720
H	0.4179939740935789 0.6510342066908705 0.2025878749126843	0.105526
H	0.4128335218013823 0.8131106954193068 0.2075402121710711	0.116012
H	0.5773821876321427 0.3536703370948770 0.2216515290971990	0.103685
H	0.5851511287983973 0.1923569952870461 0.2276752840702513	0.123474
H	0.1475680842199115 0.0471743261567785 0.7406750742043064	0.098805
H	0.3082333806619411 0.0490283078743058 0.7537036296940184	0.118538
H	0.6474134634300047 0.5809516864564718 0.2195184839072387	0.104799
H	0.8086691689287081 0.5891335506068008 0.2221273058076178	0.123691
H	0.8495871831447411 0.0536725639590501 0.7416995121791797	0.093264
H	0.6890667569269275 0.0568749761031658 0.7487284381533528	0.120288
H	0.3519332067713380 0.4222500569362236 0.2058558600963164	0.104151
H	0.1898903460440255 0.4165421375833123 0.2071334663930063	0.117255
H	0.9393881824560651 0.8488528571702215 0.7339323314449210	0.098946
H	0.9367359741383747 0.6879143511902143 0.7434107939871035	0.118446
H	0.9581581614830936 0.1478078975199130 0.7498725450041411	0.089373
H	0.9551610008593855 0.3081667371326294 0.7569099377704582	0.118582
H	0.0468806948510013 0.8482340246934027 0.2538470356262235	0.097116
H	0.0517489037203667 0.6880407063658984 0.2451280369059139	0.119117
H	0.0510310260892033 0.1443764979311296 0.2581845233061758	0.104708
H	0.0529844783957308 0.3053917962611963 0.2447540656484356	0.119499
N	0.9473197145747304 0.5392855060472570 0.6093530140713663	-0.135436
N	0.4239643983748861 0.0462491464456456 0.0083057446160054	-0.148388
N	0.5417205157034886 0.0477383011995553 0.6152006407610013	-0.135252
N	0.9576539245385353 0.4259876885095515 0.0012836833039783	-0.148969
N	0.0510112417278601 0.5402617656291409 0.3862455587199923	-0.134149
N	0.5786397960147763 0.0428592232619875 0.0106331392543111	-0.148604
N	0.9570198175919619 0.5807146357676024 0.0024589018996567	-0.148894
N	0.5430514727412984 0.9435297205173017 0.3929204215777375	-0.135190
N	0.0538349935141517 0.4551191813354794 0.3886598375288600	-0.134238
N	0.5778111091519891 0.9576787384427736 0.0011837244584773	-0.147264
N	0.4578861974653376 0.9427086098925106 0.3940996516906010	-0.131089
N	0.0421724706215622 0.5801147686091515 0.9925802763986498	-0.144650
N	0.9490238249983545 0.4542045234084677 0.6093380034538337	-0.133353
N	0.4231966870622886 0.9609534574281019 0.0070273939746246	-0.144276
N	0.0429760120205808 0.4254167394947169 0.9991143950670981	-0.147657
N	0.4566747920737564 0.0473892513850850 0.6150896956290294	-0.133774
N	0.0037292160550352 0.1395825038895338 0.5035935789750849	-0.174242
N	0.4970750203631151 0.6440989761557586 0.9918167396551778	-0.174509
N	0.9942092266875777 0.8551693122729312 0.4949634043630696	-0.173001
N	0.5030197836921658 0.3599893729076228 0.0027049192149027	-0.176897
N	0.8574892582271932 0.0007506859072146 0.5008541502504003	-0.167663
N	0.3579390316379708 0.5002791145402588 0.9925514541324747	-0.175611
N	0.1420970783057792 0.9972659467146763 0.4973237870036675	-0.168900
N	0.6420283395001372 0.5041930579185994 0.0048534047053211	-0.174608
Fe	-0.0002765596887538 0.9973653338015941 0.5049117438875126	0.590380
Fe	0.5000125830723842 0.5023127859028818 0.0051506145759108	0.581505
Nb	0.0005804821314001 0.9952719428916733 0.9833416445506636	2.416765
Nb	0.4999042042255687 0.5030534938352184 0.4837476901087503	2.446248
F	0.9998745799163267 -0.0019176296353900 0.2506806910942740	-0.574938
F	0.5034088659208331 0.5013096943848480 0.7513978669637220	-0.578307
F	0.0905296194695450 0.0813212844163605 0.0104781284298607	-0.577591
F	0.5906069580486570 0.5883974346510266 0.5101782177320987	-0.594061
F	0.9125130859866210 0.9081095093719658 0.0138746426397132	-0.576348
F	0.4103703196090318 0.4172195603029358 0.5149994913149527	-0.594254
F	0.9131043072269945 0.0857221182182249 0.0048724524584610	-0.575850
F	0.4139807197690691 0.5943306620796814 0.5161850468405333	-0.592984
F	0.0887893511640836 0.9058544988251456 0.0180047941468916	-0.573342
F	0.5871707589475870 0.4121156114188881 0.5087781565911406	-0.593466
O	0.0004060134876539 0.9944948224694068 0.7564408745826069	-0.907815
O	0.4976170166404822 0.5038923509072440 0.2564880478033497	-0.919604
	  	
