#======================================================================

# CRYSTAL DATA

#----------------------------------------------------------------------

data_VESTA_phase_1


_pd_phase_name                         NbOFFIVE_16_Co_i
_cell_length_a                         25.08844
_cell_length_b                         25.08844
_cell_length_c                         7.63326
_cell_angle_alpha                      90
_cell_angle_beta                       90
_cell_angle_gamma                      90
_symmetry_space_group_name_H-M         P 1
_symmetry_Int_Tables_number            1

loop_
_symmetry_equiv_pos_as_xyz
   x, y, z

loop_
   _atom_site_label
   _atom_site_fract_x
   _atom_site_fract_y
   _atom_site_fract_z
   _atom_site_charge
C	0.4773665029923138 0.3880273262767315 0.3684157079693943	0.092732
C	0.4766067000898825 0.3326976487493424 0.3623945088678142	-0.169747
C	0.9547981041376271 0.6132581064578868 0.9431115218443578	-0.125527
C	0.9549533053387363 0.5579166974233385 0.9439541832372185	-0.125685
C	0.5226335350076892 0.6119726737232681 0.3684157079693943	0.092692
C	0.5233932619101209 0.6673023132506616 0.3623945088678142	-0.169718
C	0.0452018908623688 0.3867418935421130 0.9431115218443578	-0.125527
C	0.0450466996612606 0.4420833025766618 0.9439541832372185	-0.125685
C	0.6119726737232681 0.4773665029923138 0.3684157079693943	0.092730
C	0.6673023132506616 0.4766067000898825 0.3623945088678142	-0.169728
C	0.3867418935421130 0.9547981041376271 0.9431115218443578	-0.125527
C	0.4420833025766618 0.9549533053387363 0.9439541832372185	-0.125685
C	0.3880273262767315 0.5226335350076892 0.3684157079693943	0.092694
C	0.3326976487493424 0.5233932619101209 0.3623945088678142	-0.169737
C	0.6132581064578868 0.0452018908623688 0.9431115218443578	-0.125527
C	0.5579166974233385 0.0450466996612606 0.9439541832372185	-0.125685
C	0.5231048599666762 0.3876940865561771 0.6317622740021634	0.097504
C	0.5236212350017844 0.3323948994288068 0.6373340640024663	-0.171819
C	0.0452069410081438 0.6132542059694915 0.0567975755482647	-0.125313
C	0.0450459398544517 0.5579141054508592 0.0559744205706398	-0.125681
C	0.4768951780333273 0.6123059134438230 0.6317622740021634	0.097502
C	0.4763787269982199 0.6676050625711971 0.6373340640024663	-0.171785
C	0.9547930539918523 0.3867457940305087 0.0567975755482647	-0.125313
C	0.9549540651455452 0.4420858945491411 0.0559744205706398	-0.125682
C	0.3876940865561771 0.4768951780333273 0.6317622740021634	0.097508
C	0.3323948994288068 0.4763787269982199 0.6373340640024663	-0.171820
C	0.6132542059694915 0.9547930539918523 0.0567975755482647	-0.125313
C	0.5579141054508592 0.9549540651455452 0.0559744205706398	-0.125682
C	0.6123059134438230 0.5231048599666762 0.6317622740021634	0.097498
C	0.6676050625711971 0.5236212350017844 0.6373340640024663	-0.171784
C	0.3867457940305087 0.0452069410081438 0.0567975755482647	-0.125313
C	0.4420858945491411 0.0450459398544517 0.0559744205706398	-0.125681
C	0.5452069460081477 0.8867457940305085 0.5567975835482653	-0.125312
C	0.5450459348544548 0.9420858945491408 0.5559744565706430	-0.125682
C	0.0231048429666780 0.1123059044438256 0.1317623060021589	0.097505
C	0.0236212730017802 0.1676050815711953 0.1373340640024660	-0.171781
C	0.4547930929918522 0.1132541959694904 0.5567975835482653	-0.125312
C	0.4549540651455452 0.0579140954508581 0.5559744565706430	-0.125682
C	0.9768951020333206 0.8876940865561770 0.1317623060021589	0.097505
C	0.9763787269982196 0.8323948994288068 0.1373340640024660	-0.171781
C	0.1132541959694904 0.5452069460081477 0.5567975835482653	-0.125312
C	0.0579140954508581 0.5450459348544548 0.5559744565706430	-0.125682
C	0.8876940865561770 0.0231048429666780 0.1317623060021589	0.097505
C	0.8323948994288068 0.0236212730017802 0.1373340640024660	-0.171781
C	0.8867457940305085 0.4547930929918522 0.5567975835482653	-0.125312
C	0.9420858945491408 0.4549540651455452 0.5559744565706430	-0.125682
C	0.1123059044438256 0.9768951020333206 0.1317623060021589	0.097505
C	0.1676050815711953 0.9763787269982196 0.1373340640024660	-0.171781
C	0.4547981431376269 0.8867418935421132 0.4431115218443575	-0.125525
C	0.4549533053387365 0.9420833025766615 0.4439541832372183	-0.125686
C	0.9773664269923077 0.1119726647232712 0.8684157079693944	0.092712
C	0.9766067000898830 0.1673023322506598 0.8623944768678117	-0.169718
C	0.5452018958623729 0.1132580964578863 0.4431115218443575	-0.125525
C	0.5450466946612637 0.0579166874233373 0.4439541832372183	-0.125686
C	0.0226335180076913 0.8880273262767319 0.8684157079693944	0.092712
C	0.0233932999101173 0.8326976487493424 0.8623944768678117	-0.169718
C	0.8867418935421132 0.5452018958623729 0.4431115218443575	-0.125525
C	0.9420833025766615 0.5450466946612637 0.4439541832372183	-0.125686
C	0.1119726647232712 0.0226335180076913 0.8684157079693944	0.092712
C	0.1673023322506598 0.0233932999101173 0.8623944768678117	-0.169718
C	0.1132580964578863 0.4547981431376269 0.4431115218443575	-0.125525
C	0.0579166874233373 0.4549533053387365 0.4439541832372183	-0.125686
C	0.8880273262767319 0.9773664269923077 0.8684157079693944	0.092712
C	0.8326976487493424 0.9766067000898830 0.8623944768678117	-0.169718
C	0.5000027230408998 0.3034584800398876 0.4997469430289752	0.170084
C	0.4998546436051716 0.2469885835310991 0.4995895837585797	-0.113588
C	0.4999618029449435 0.1983752613212716 0.4998135927203516	-0.097710
C	0.4999924014968078 0.1418820295526849 0.4999211966472817	0.123830
C	0.5000005059919103 0.0293019393349230 0.4999662369420954	0.068390
C	-0.0000027230408998 0.8034585000398895 -0.0002530569710250	0.170052
C	0.0001453563948285 0.7469886025310969 -0.0004104162414202	-0.113628
C	0.0000381970550564 0.6983752613212716 -0.0001864072796484	-0.097694
C	0.0000075985031923 0.6418820295526847 -0.0000788033527185	0.123829
C	-0.0000005059919100 0.5293019353349229 -0.0000337630579046	0.068391
C	0.4999972769591000 0.6965414619601145 0.4997469430289752	0.170075
C	0.5001453563948287 0.7530114354688991 0.4995895837585797	-0.113631
C	0.5000381970550567 0.8016246996787287 0.4998135927203516	-0.097695
C	0.5000075985031923 0.8581179314473156 0.4999211966472817	0.123828
C	0.4999994940080899 0.9706981036650768 0.4999662369420954	0.068390
C	0.0000027230408998 0.1965414999601105 -0.0002530569710250	0.170053
C	-0.0001453563948285 0.2530114164689010 -0.0004104162414202	-0.113628
C	-0.0000381970550564 0.3016247186787267 -0.0001864072796484	-0.097694
C	-0.0000075985031923 0.3581179704473152 -0.0000788033527185	0.123830
C	0.0000005059919100 0.4706980646650774 -0.0000337630579046	0.068391
C	0.6965414619601145 0.5000027230408998 0.4997469430289752	0.170079
C	0.7530114354688991 0.4998546436051716 0.4995895837585797	-0.113632
C	0.8016246996787287 0.4999618029449435 0.4998135927203516	-0.097695
C	0.8581179314473156 0.4999924014968078 0.4999211966472817	0.123828
C	0.9706981036650768 0.5000005059919103 0.4999662369420954	0.068390
C	0.1965414999601105 -0.0000027230408998 -0.0002530569710250	0.170053
C	0.2530114164689010 0.0001453563948285 -0.0004104162414202	-0.113628
C	0.3016247186787267 0.0000381970550564 -0.0001864072796484	-0.097694
C	0.3581179704473152 0.0000075985031923 -0.0000788033527185	0.123830
C	0.4706980646650774 -0.0000005059919100 -0.0000337630579046	0.068391
C	0.3034584800398876 0.4999972769591000 0.4997469430289752	0.170081
C	0.2469885835310991 0.5001453563948287 0.4995895837585797	-0.113588
C	0.1983752613212716 0.5000381970550567 0.4998135927203516	-0.097710
C	0.1418820295526849 0.5000075985031923 0.4999211966472817	0.123830
C	0.0293019393349230 0.4999994940080899 0.4999662369420954	0.068390
C	0.8034585000398895 0.0000027230408998 -0.0002530569710250	0.170052
C	0.7469886025310969 -0.0001453563948285 -0.0004104162414202	-0.113628
C	0.6983752613212716 -0.0000381970550564 -0.0001864072796484	-0.097694
C	0.6418820295526847 -0.0000075985031923 -0.0000788033527185	0.123829
C	0.5293019353349229 0.0000005059919100 -0.0000337630579046	0.068391
H	0.4595144186005755 0.4114349608483764 0.2634632903494765	0.103917
H	0.4580592092019662 0.3123200526373223 0.2521904153770523	0.125771
H	0.9199193929189847 0.6350253924433096 0.8972089305549201	0.111726
H	0.9201802120708421 0.5362709339877677 0.8960476095911089	0.106499
H	0.5404855813994246 0.5885650771516194 0.2634632903494765	0.103989
H	0.5419408287980301 0.6876799663626827 0.2521904153770523	0.125766
H	0.0800806070810156 0.3649746455566866 0.8972089305549201	0.111726
H	0.0798197689291602 0.4637290660122318 0.8960476095911089	0.106499
H	0.5885650771516194 0.4595144186005755 0.2634632903494765	0.103917
H	0.6876799663626827 0.4580592092019662 0.2521904153770523	0.125768
H	0.3649746455566866 0.9199193929189847 0.8972089305549201	0.111726
H	0.4637290660122318 0.9201802120708421 0.8960476095911089	0.106499
H	0.4114349608483764 0.5404855813994246 0.2634632903494765	0.103989
H	0.3123200526373223 0.5419408287980301 0.2521904153770523	0.125769
H	0.6350253924433096 0.0800806070810156 0.8972089305549201	0.111726
H	0.5362709339877677 0.0798197689291602 0.8960476095911089	0.106499
H	0.5412410716513745 0.4109204809149185 0.7365105770422979	0.097670
H	0.5420207329781861 0.3118282028233624 0.7475414072528290	0.126540
H	0.0800850298765603 0.6350200493291887 0.1026978151583039	0.111583
H	0.0798176092913263 0.5362678957338024 0.1038847926066049	0.106428
H	0.4587589283486260 0.5890795570850780 0.7365105770422979	0.097671
H	0.4579793050218098 0.6881718161766427 0.7475414072528290	0.126533
H	0.9199149701234398 0.3649799886708076 0.1026978151583039	0.111583
H	0.9201823717086758 0.4637321042661977 0.1038847926066049	0.106428
H	0.4109204809149185 0.4587589283486260 0.7365105770422979	0.097670
H	0.3118282028233624 0.4579793050218098 0.7475414072528290	0.126540
H	0.6350200493291887 0.9199149701234398 0.1026978151583039	0.111583
H	0.5362678957338024 0.9201823717086758 0.1038847926066049	0.106428
H	0.5890795570850780 0.5412410716513745 0.7365105770422979	0.097671
H	0.6881718161766427 0.5420207329781861 0.7475414072528290	0.126533
H	0.3649799886708076 0.0800850298765603 0.1026978151583039	0.111583
H	0.4637321042661977 0.0798176092913263 0.1038847926066049	0.106428
H	0.5800849918765641 0.8649799506708113 0.6026978391583063	0.111582
H	0.5798175902913282 0.9637320662662016 0.6038848086066060	0.106428
H	0.0412410736513740 0.0890795190850817 0.2365105770422977	0.097669
H	0.0420206949781902 0.1881717971766375 0.2475414072528288	0.126533
H	0.4199149701234396 0.1350200203291897 0.6026978391583063	0.111582
H	0.4201824097086718 0.0362679127338001 0.6038848086066060	0.106428
H	0.9587589663486287 0.9109204809149181 0.2365105770422977	0.097669
H	0.9579793050218099 0.8118282218233605 0.2475414072528288	0.126533
H	0.1350200203291897 0.5800849918765641 0.6026978391583063	0.111582
H	0.0362679127338001 0.5798175902913282 0.6038848086066060	0.106428
H	0.9109204809149181 0.0412410736513740 0.2365105770422977	0.097669
H	0.8118282218233605 0.0420206949781902 0.2475414072528288	0.126533
H	0.8649799506708113 0.4199149701234396 0.6026978391583063	0.111582
H	0.9637320662662016 0.4201824097086718 0.6038848086066060	0.106428
H	0.0890795190850817 0.9587589663486287 0.2365105770422977	0.097669
H	0.1881717971766375 0.9579793050218099 0.2475414072528288	0.126533
H	0.4199193929189843 0.8649746075566904 0.3972088985549172	0.111723
H	0.4201802500708380 0.9637290280122363 0.3960476735911070	0.106500
H	0.9595144566005785 0.0885650391516235 0.7634633063494780	0.103985
H	0.9580592092019660 0.1876799473626776 0.7521903833770563	0.125773
H	0.5800805690810192 0.1350253634433107 0.3972088985549172	0.111723
H	0.5798197499291619 0.0362709509877658 0.3960476735911070	0.106500
H	0.0404855833994248 0.9114349608483766 0.7634633063494780	0.103985
H	0.0419407907980339 0.8123200716373205 0.7521903833770563	0.125773
H	0.8649746075566904 0.5800805690810192 0.3972088985549172	0.111723
H	0.9637290280122363 0.5798197499291619 0.3960476735911070	0.106500
H	0.0885650391516235 0.0404855833994248 0.7634633063494780	0.103985
H	0.1876799473626776 0.0419407907980339 0.7521903833770563	0.125773
H	0.1350253634433107 0.4199193929189843 0.3972088985549172	0.111723
H	0.0362709509877658 0.4201802500708380 0.3960476735911070	0.106500
H	0.9114349608483766 0.9595144566005785 0.7634633063494780	0.103985
H	0.8123200716373205 0.9580592092019660 0.7521903833770563	0.125773
Co	0.5000000000000000 0.5000000000000000 0.5033474998685433	0.702399
Co	-0.0000000000000000 0.0000000000000000 0.0033474998685437	0.702404
Nb	0.5000000000000000 0.5000000000000000 -0.0208194049205717	2.398752
Nb	-0.0000000000000000 0.0000000000000000 0.4791805950794282	2.398755
F	0.5000000000000000 0.5000000000000000 0.2540409710511319	-0.610425
F	-0.0000000000000000 0.0000000000000000 0.7540409230511284	-0.610433
F	0.5556126828490908 0.5541191156932909 0.0059882951045244	-0.586781
F	0.0541190876932959 0.0556126548490958 0.5059882951045247	-0.586782
F	0.4443873551509049 0.4458809223067051 0.0059882951045244	-0.586776
F	0.9458808843067091 0.9443873171509092 0.5059882951045247	-0.586782
F	0.4458809223067051 0.5556126828490908 0.0059882951045244	-0.586781
F	0.9443873171509092 0.0541190876932959 0.5059882951045247	-0.586782
F	0.5541191156932909 0.4443873551509049 0.0059882951045244	-0.586775
F	0.0556126548490958 0.9458808843067091 0.5059882951045247	-0.586782
O	0.5000000000000000 0.5000000000000000 0.7442421963829505	-0.952484
O	-0.0000000000000000 0.0000000000000000 0.2442421643829478	-0.952486
N	0.5002320456562123 0.4153862324031130 0.5004822102277650	-0.185389
N	-0.0002320456562124 0.9153862704031164 0.0004822102277649	-0.185435
N	0.4997679543437877 0.5846137675968868 0.5004822102277650	-0.185426
N	0.0002320456562124 0.0846137395968846 0.0004822102277649	-0.185435
N	0.5846137675968868 0.5002320456562123 0.5004822102277650	-0.185387
N	0.0846137395968846 -0.0002320456562124 0.0004822102277649	-0.185435
N	0.4153862324031130 0.4997679543437877 0.5004822102277650	-0.185429
N	0.9153862704031164 0.0002320456562124 0.0004822102277649	-0.185435
	  	
