#======================================================================

# CRYSTAL DATA

#----------------------------------------------------------------------

data_VESTA_phase_1


_pd_phase_name                         NbOFFIVE_2_Zn_i
_cell_length_a                         14.01032
_cell_length_b                         14.01032
_cell_length_c                         8.16749
_cell_angle_alpha                      90
_cell_angle_beta                       90
_cell_angle_gamma                      90
_symmetry_space_group_name_H-M         P 1
_symmetry_Int_Tables_number            1

loop_
_symmetry_equiv_pos_as_xyz
   x, y, z

loop_
   _atom_site_label
   _atom_site_fract_x
   _atom_site_fract_y
   _atom_site_fract_z
   _atom_site_charge
C	-0.0000000000000000 0.3035573814721820 0.3516717467562431	-0.159676
C	-0.0000000000000000 0.2045316928796257 0.3575658333923364	0.109741
C	0.5000000000000000 0.8035573814721820 0.8516717167562474	-0.159676
C	0.5000000000000000 0.7045316928796256 0.8575657743923353	0.109741
C	-0.0000000000000000 0.6964426185278180 0.3516717467562431	-0.159678
C	-0.0000000000000000 0.7954683071203744 0.3575658333923364	0.109743
C	0.5000000000000000 0.1964426185278179 0.8516717167562474	-0.159678
C	0.5000000000000000 0.2954683071203741 0.8575657743923353	0.109743
C	0.6964426185278180 -0.0000000000000000 0.3516717467562431	-0.159675
C	0.7954683071203744 -0.0000000000000000 0.3575658333923364	0.109744
C	0.1964426185278179 0.5000000000000000 0.8516717167562474	-0.159675
C	0.2954683071203741 0.5000000000000000 0.8575657743923353	0.109744
C	0.3035573814721820 -0.0000000000000000 0.3516717467562431	-0.159678
C	0.2045316928796257 -0.0000000000000000 0.3575658333923364	0.109746
C	0.8035573814721820 0.5000000000000000 0.8516717167562474	-0.159678
C	0.7045316928796256 0.5000000000000000 0.8575657743923353	0.109746
C	-0.0000000000000000 0.3039283684027296 0.6469869211484439	-0.162067
C	-0.0000000000000000 0.2050300732068309 0.6411037275193553	0.110259
C	0.5000000000000000 0.8039283684027293 0.1469868911484485	-0.162067
C	0.5000000000000000 0.7050300732068310 0.1411036835193588	0.110259
C	-0.0000000000000000 0.6960716315972707 0.6469869211484439	-0.162069
C	-0.0000000000000000 0.7949699267931690 0.6411037275193553	0.110261
C	0.5000000000000000 0.1960716315972706 0.1469868911484485	-0.162069
C	0.5000000000000000 0.2949699267931690 0.1411036835193588	0.110261
C	0.3039283684027296 -0.0000000000000000 0.6469869211484439	-0.162069
C	0.2050300732068309 -0.0000000000000000 0.6411037275193553	0.110264
C	0.8039283684027293 0.5000000000000000 0.1469868911484485	-0.162069
C	0.7050300732068310 0.5000000000000000 0.1411036835193588	0.110264
C	0.6960716315972708 -0.0000000000000000 0.6469869211484439	-0.162067
C	0.7949699267931690 -0.0000000000000000 0.6411037275193553	0.110262
C	0.1960716315972706 0.5000000000000000 0.1469868911484485	-0.162067
C	0.2949699267931690 0.5000000000000000 0.1411036835193588	0.110262
C	-0.0000000000000000 0.4564748970227008 0.4989694454895054	-0.096260
C	-0.0000000000000000 0.3554981724803942 0.4991779483255940	0.162040
C	0.5000000000000000 0.9564748620227015 -0.0010305545104944	-0.096260
C	0.5000000000000000 0.8554981374803948 -0.0008220516744060	0.162040
C	-0.0000000000000000 0.5435251029772992 0.4989694454895054	-0.096001
C	-0.0000000000000000 0.6445018625196052 0.4991779483255940	0.162009
C	0.5000000000000000 0.0435251159773038 -0.0010305545104944	-0.096001
C	0.5000000000000000 0.1445018455196072 -0.0008220516744060	0.162009
C	0.5435251029772991 -0.0000000000000000 0.4989694454895054	-0.096260
C	0.6445018625196052 -0.0000000000000000 0.4991779483255940	0.162040
C	0.0435251159773038 0.5000000000000000 -0.0010305545104944	-0.096260
C	0.1445018455196072 0.5000000000000000 -0.0008220516744060	0.162040
C	0.4564748970227008 -0.0000000000000000 0.4989694454895054	-0.096002
C	0.3554981724803942 -0.0000000000000000 0.4991779483255940	0.162009
C	0.9564748620227015 0.5000000000000000 -0.0010305545104944	-0.096001
C	0.8554981374803948 0.5000000000000000 -0.0008220516744060	0.162009
H	-0.0000000000000000 0.3403136171917024 0.2343537986041477	0.119823
H	-0.0000000000000000 0.1624079078246064 0.2457915200357204	0.093090
H	0.5000000000000000 0.8403136511917052 0.7343538136041454	0.119823
H	0.5000000000000000 0.6624079428246058 0.7457915050357226	0.093090
H	-0.0000000000000000 0.6596863488082948 0.2343537986041477	0.119822
H	-0.0000000000000000 0.8375920571753942 0.2457915200357204	0.093090
H	0.5000000000000000 0.1596863658082998 0.7343538136041454	0.119822
H	0.5000000000000000 0.3375920921753936 0.7457915050357226	0.093090
H	0.6596863488082948 -0.0000000000000000 0.2343537986041477	0.119823
H	0.8375920571753942 -0.0000000000000000 0.2457915200357204	0.093090
H	0.1596863658082998 0.5000000000000000 0.7343538136041454	0.119823
H	0.3375920921753936 0.5000000000000000 0.7457915050357226	0.093090
H	0.3403136171917024 -0.0000000000000000 0.2343537986041477	0.119822
H	0.1624079078246064 -0.0000000000000000 0.2457915200357204	0.093090
H	0.8403136511917052 0.5000000000000000 0.7343538136041454	0.119822
H	0.6624079428246058 0.5000000000000000 0.7457915050357226	0.093090
H	-0.0000000000000000 0.3405586696889628 0.7643975753658003	0.120405
H	-0.0000000000000000 0.1630321409527783 0.7529698034564091	0.085338
H	0.5000000000000000 0.8405587036889657 0.2643976043657991	0.120405
H	0.5000000000000000 0.6630321759527775 0.2529697744564103	0.085338
H	-0.0000000000000000 0.6594412963110343 0.7643975753658003	0.120403
H	-0.0000000000000000 0.8369678240472225 0.7529698034564091	0.085338
H	0.5000000000000000 0.1594413133110393 0.2643976043657991	0.120403
H	0.5000000000000000 0.3369678590472218 0.2529697744564103	0.085338
H	0.3405586696889628 -0.0000000000000000 0.7643975753658003	0.120403
H	0.1630321409527783 -0.0000000000000000 0.7529698034564091	0.085338
H	0.8405587036889657 0.5000000000000000 0.2643976043657991	0.120403
H	0.6630321759527775 0.5000000000000000 0.2529697744564103	0.085338
H	0.6594412963110343 -0.0000000000000000 0.7643975753658003	0.120405
H	0.8369678240472225 -0.0000000000000000 0.7529698034564091	0.085337
H	0.1594413133110393 0.5000000000000000 0.2643976043657991	0.120405
H	0.3369678590472218 0.5000000000000000 0.2529697744564103	0.085338
Zn	-0.0000000000000000 -0.0000000000000000 0.5079318566170918	0.762887
Zn	0.5000000000000000 0.5000000000000000 0.0079318566170917	0.762887
Nb	-0.0000000000000000 -0.0000000000000000 -0.0173937169564566	2.426133
Nb	0.5000000000000000 0.5000000000000000 0.4826062830435436	2.426133
N	-0.0000000000000000 0.1556041295662979 0.4996064669145316	-0.218974
N	0.5000000000000000 0.6556041295662979 -0.0003935330854685	-0.218974
N	-0.0000000000000000 0.8443958704337021 0.4996064669145315	-0.218973
N	0.5000000000000000 0.3443958704337021 -0.0003935330854684	-0.218973
N	0.8443958704337021 -0.0000000000000000 0.4996064669145316	-0.218974
N	0.3443958704337022 0.5000000000000000 -0.0003935330854684	-0.218974
N	0.1556041295662979 -0.0000000000000000 0.4996064669145316	-0.218974
N	0.6556041295662979 0.5000000000000000 -0.0003935330854684	-0.218974
O	-0.0000000000000000 -0.0000000000000000 0.7619452704349439	-0.915281
O	0.5000000000000000 0.5000000000000000 0.2619452414349454	-0.915281
F	-0.0000000000000000 -0.0000000000000000 0.2430729689607001	-0.607745
F	0.5000000000000000 0.5000000000000000 0.7430729249607037	-0.607745
F	0.5978396303190007 0.5978396303190007 0.5085162182278389	-0.580333
F	0.5978396303190007 0.4021603346809997 0.5085162182278389	-0.580333
F	0.4021603346809997 0.5978396303190007 0.5085162182278389	-0.580333
F	0.4021603346809997 0.4021603346809997 0.5085162182278389	-0.580333
F	0.0978396383190015 0.0978396383190015 0.0085162182278389	-0.580333
F	0.9021603696809993 0.9021603696809993 0.0085162182278389	-0.580333
F	0.9021603696809993 0.0978396383190015 0.0085162182278389	-0.580333
F	0.0978396383190015 0.9021603696809992 0.0085162182278389	-0.580333
	  	
