#======================================================================

# CRYSTAL DATA

#----------------------------------------------------------------------

data_VESTA_phase_1


_pd_phase_name                         NbOFFIVE_13_Zn_i
_cell_length_a                         15.44544
_cell_length_b                         15.44171
_cell_length_c                         7.93219
_cell_angle_alpha                      89.89622
_cell_angle_beta                       90.08576
_cell_angle_gamma                      89.73450
_symmetry_space_group_name_H-M         P 1
_symmetry_Int_Tables_number            1

loop_
_symmetry_equiv_pos_as_xyz
   x, y, z

loop_
   _atom_site_label
   _atom_site_fract_x
   _atom_site_fract_y
   _atom_site_fract_z
   _atom_site_charge
C	0.5404188633475817 0.6868776159812883 0.8715308996591186	0.105998
C	0.5442043434902215 0.7770405931749805 0.8700464995252569	-0.150144
C	0.4628370187146073 0.3161811873980068 0.8784383475438846	0.107111
C	0.4592280880035738 0.2260651315906986 0.8783300383749233	-0.142007
C	0.8154234809024103 0.9731114835193525 0.3657529846437858	0.108676
C	0.7254318419955490 0.9701049157455613 0.3608235465975602	-0.136191
C	0.3150313159408772 0.5419627606490981 0.8698127797690312	0.103917
C	0.2248952817470713 0.5461892891761223 0.8674091231158639	-0.149572
C	0.1868192427623950 0.9709690268397920 0.3571750814168840	0.104974
C	0.2768548352976409 0.9698161536726732 0.3539609506503062	-0.139503
C	0.6858369472283203 0.4626913431518387 0.8837458051151161	0.106969
C	0.7759037700664079 0.4594428021599322 0.8824765126837699	-0.141566
C	0.4539786976990257 0.6872622383393838 0.1108992609884127	0.108783
C	0.4513622640018433 0.7772675736709040 0.1144678909854650	-0.142170
C	0.5414571095306246 0.3170987019969911 0.1283666561296384	0.106366
C	0.5438353374341736 0.2269838348517828 0.1342091322011217	-0.151959
C	0.1850097440105059 0.0217272646179400 0.6324774812507544	0.111449
C	0.2748466882629959 0.0234638916519260 0.6400989657236519	-0.140847
C	0.6847193740649760 0.5449174914710699 0.1287838715855652	0.106331
C	0.7748134580093871 0.5479102468882445 0.1329537566727274	-0.151812
C	0.8143906184786155 0.0305303585571320 0.6360541467586903	0.103706
C	0.7244760301999366 0.0309977561840823 0.6414823613321852	-0.140228
C	0.3143502707803879 0.4573133088028760 0.1121157096917651	0.107187
C	0.2243172509826549 0.4551399041162031 0.1149062070997112	-0.142740
C	0.9645376567906730 0.8127772466385479 0.6305280037565686	0.111242
C	0.9637642022386148 0.7227767383928486 0.6374456230823011	-0.138884
C	0.9817832778878726 0.1838139159328671 0.6391985837013306	0.106660
C	0.9790084194656368 0.2736501819730732 0.6429051412082394	-0.141452
C	0.0216938773443149 0.8120887999288586 0.3600461732409796	0.105890
C	0.0244690510512630 0.7221536896032885 0.3566402979138168	-0.140299
C	0.0309052813718490 0.1826701795572463 0.3626514897369938	0.109031
C	0.0312069197895737 0.2727551649114878 0.3556140122439606	-0.138884
C	0.0039968452735599 0.3191059549928861 0.4980275780266551	0.042553
C	0.0015343069907855 0.4139868123233484 0.4974903354862561	0.256333
C	0.4983381800368776 0.8230630072809577 0.9929372176254568	0.055976
C	0.4993668803457782 0.9185664039971251 0.9980258474531344	0.249183
C	0.9951748617598122 0.6764830528852528 0.4981716094986526	0.038416
C	0.9974610529175800 0.5814973208831732 0.4988343708755935	0.246072
C	0.5011289148359738 0.1806270142062689 0.0078641603800717	0.055373
C	0.5004675846377951 0.0850200741618006 0.0089826829450177	0.252073
C	0.6790103463103887 -0.0003213167652219 0.5013293740229888	0.036843
C	0.5840976985196141 0.9973735489682173 0.5027251996117380	0.248822
C	0.1787046216510876 0.5013654434073411 0.9911764779455362	0.053669
C	0.0831849808344791 0.5023629336858266 0.9939726400171690	0.250104
C	0.3217770273262578 0.9964472302892370 0.4983350921322994	0.042650
C	0.4166333006206596 0.9959223666572913 0.5014512530288238	0.255508
C	0.8212355758414530 0.5036026781796391 0.0084505504475684	0.053580
C	0.9168035637578125 0.5033354161308827 0.0063885425754096	0.250653
H	0.5721231848177323 0.6482906982282871 0.7740935421467834	0.104710
H	0.5813288176933094 0.8103900882332093 0.7730551572863560	0.123345
H	0.4342652372139443 0.3543423875172142 0.7762752505329921	0.104843
H	0.4267868836814469 0.1914797797416606 0.7768787817549323	0.117885
H	0.8541357108132851 0.9513803969924385 0.2589024262450310	0.100642
H	0.6924010725992977 0.9458408082655166 0.2491246149839938	0.119780
H	0.3536748093376887 0.5728257538704069 0.7716183677958176	0.104563
H	0.1917290387083171 0.5827237795232136 0.7687383596972626	0.124306
H	0.1496249264363697 0.9520602287602783 0.2464510101981017	0.096142
H	0.3107842292158668 0.9498433498452858 0.2399752193594608	0.116416
H	0.6475908569341035 0.4327755495862778 0.7838452920045298	0.105177
H	0.8105979843106508 0.4257592308488405 0.7825277014466762	0.117585
H	0.4219943522657765 0.6485350931998778 0.2076002002396014	0.099937
H	0.4165109386734482 0.8114948259532575 0.2133967138848754	0.115779
H	0.5707653590560240 0.3559610920109655 0.2279940158335892	0.098103
H	0.5772208876350857 0.1940293940443093 0.2372419302185340	0.123151
H	0.1458562479486121 0.0412725911308342 0.7402772703977210	0.093624
H	0.3072442949204596 0.0440736531250179 0.7551975595156826	0.119174
H	0.6457665081123085 0.5755014777764124 0.2270681228875033	0.099433
H	0.8077175915547419 0.5830772700379582 0.2331928551443565	0.123889
H	0.8520231511296554 0.0522507329901288 0.7442321214847557	0.089815
H	0.6909250413579708 0.0539441303567612 0.7536383067944813	0.121067
H	0.3528141062254357 0.4257946753943680 0.2104398192874256	0.099739
H	0.1898690118496293 0.4208988496822105 0.2142561387544749	0.116421
H	0.9422768231855960 0.8515296033901522 0.7369761765687008	0.094852
H	0.9404389521481334 0.6898276885974354 0.7500490300551612	0.119842
H	0.9642499821583993 0.1460929469561258 0.7500920123369430	0.086563
H	0.9588483532175087 0.3072147577894360 0.7570176119376731	0.120029
H	0.0425343006735836 0.8497291383311271 0.2512653351238981	0.094750
H	0.0482507227448194 0.6886737266969308 0.2450966806617799	0.119874
H	0.0503535694467569 0.1438782115214657 0.2541612478199579	0.101368
H	0.0506868376821769 0.3057507394842715 0.2402104408484723	0.119354
N	0.9471693657374792 0.5390517632343224 0.6110762282258388	-0.133732
N	0.4226429116081765 0.0454604106053400 0.0084941720885665	-0.150149
N	0.5421631366158293 0.0472265404526743 0.6168191697520535	-0.136301
N	0.9571142358708252 0.4255358427731220 0.0023063970954072	-0.148618
N	0.0497550387776104 0.5416398424366474 0.3859886162499668	-0.133261
N	0.5776882183396234 0.0436528846390195 0.0112018074939322	-0.148791
N	0.9573409351033949 0.5806434106301231 0.0047944658077594	-0.147920
N	0.5438442774468237 0.9441725919822684 0.3925712927178125	-0.133712
N	0.0522707743105146 0.4564469854147382 0.3862964496552524	-0.132918
N	0.5771782131505256 0.9581623765537574 0.0010728340126305	-0.148230
N	0.4586104185935987 0.9433268396621869 0.3923716250252390	-0.130974
N	0.0427911783324968 0.5801376451268453 0.9941790307864053	-0.147771
N	0.9487461694179775 0.4538185426279407 0.6093056346293612	-0.133402
N	0.4221975551628173 0.9598444617594651 0.0064689548311999	-0.145552
N	0.0427015824537451 0.4250434208228339 0.9992857272261664	-0.147943
N	0.4569838832699621 0.0466371496199576 0.6157197984095205	-0.135446
N	0.0062500641302488 0.1390697022986171 0.5016519632646946	-0.209878
N	0.4970397315627000 0.6430578437601421 0.9911494273391294	-0.216775
N	0.9932948868933354 0.8566663738279985 0.4949187495552514	-0.210561
N	0.5023984692388066 0.3606607270184714 0.0021146652563142	-0.218789
N	0.8590916549749384 0.0024480768748270 0.5010132406784112	-0.209025
N	0.3587181716240241 0.4991790431226950 0.9911833346873546	-0.216521
N	0.1417054348402425 0.9957437400562171 0.4941458995013359	-0.210654
N	0.6412862197177099 0.5038334909284968 0.0056131249163114	-0.217094
Zn	0.0004670789705271 0.9977137542220067 0.5063199534357078	0.768879
Zn	0.5000039740489741 0.5019668005713223 0.0066161184604010	0.772001
Nb	-0.0000222589653511 0.9962438357600083 0.9837698627988458	2.432045
Nb	0.4996131186724248 0.5036602294734303 0.4842132560640354	2.455801
F	0.9993642491563608 -0.0011801045729094 0.2464955810780670	-0.604850
F	0.5047834033124413 0.5003850579961135 0.7472033079928062	-0.611595
F	0.0899837881332654 0.0842772260130257 0.0082744796040021	-0.577608
F	0.5881802687351985 0.5934407300102577 0.5074219479007278	-0.592306
F	0.9106514831384805 0.9081018666534305 0.0127759536826917	-0.576579
F	0.4121558607714306 0.4134685852891264 0.5137450866585433	-0.594151
F	0.9116247576706175 0.0868261877555569 0.0016551256790725	-0.576693
F	0.4102060655084450 0.5922124562698132 0.5191381270070797	-0.592506
F	0.0886932721053722 0.9067601201400692 0.0177540394782426	-0.574113
F	0.5905293193587775 0.4151559401112240 0.5023028552472988	-0.593583
O	0.0008986860405411 0.9950306781424371 0.7579129196551339	-0.931776
O	0.4958082968694274 0.5050853496246204 0.2582392973321601	-0.944948
	  	
