#======================================================================

# CRYSTAL DATA

#----------------------------------------------------------------------

data_VESTA_phase_1


_pd_phase_name                         NbOFFIVE_3_Zn
_cell_length_a                         14.41685
_cell_length_b                         14.41685
_cell_length_c                         7.97684
_cell_angle_alpha                      90
_cell_angle_beta                       90
_cell_angle_gamma                      90
_symmetry_space_group_name_H-M         P 1
_symmetry_Int_Tables_number            1

loop_
_symmetry_equiv_pos_as_xyz
   x, y, z

loop_
   _atom_site_label
   _atom_site_fract_x
   _atom_site_fract_y
   _atom_site_fract_z
   _atom_site_charge
C	0.2710712994995135 0.4517436740150894 0.6372576604973347	0.064139
C	0.2289286835004885 0.0482563309849144 0.6372576604973347	0.064139
C	0.2294678758284519 0.4516273684015001 0.3591368494463327	0.063653
C	0.2705321071715500 0.0483726365985038 0.3591368494463327	0.063653
C	0.0483726365985038 0.2705321071715500 0.3591368494463327	0.063655
C	0.4516273684015001 0.2294678758284519 0.3591368494463327	0.063655
C	0.4517436740150894 0.2710712994995135 0.6372576604973347	0.064144
C	0.0482563309849144 0.2289286835004885 0.6372576604973347	0.064143
C	0.9517437080150857 0.2289286835004885 0.6372576604973347	0.064164
C	0.5482562919849143 0.2710712994995135 0.6372576604973347	0.064164
C	0.5483725975985043 0.2294678758284519 0.3591368494463327	0.063727
C	0.9516274024014957 0.2705321071715500 0.3591368494463327	0.063727
C	0.7294678588284474 0.0483726365985038 0.3591368494463327	0.063655
C	0.7705321411715527 0.4516273684015001 0.3591368494463327	0.063655
C	0.7710713334995164 0.0482563309849144 0.6372576604973347	0.064144
C	0.7289286665004836 0.4517436740150894 0.6372576604973347	0.064144
C	0.4517436740150894 0.7289286665004836 0.6372576604973347	0.064140
C	0.0482563309849144 0.7710713334995164 0.6372576604973347	0.064140
C	0.0483726365985038 0.7294678588284473 0.3591368494463327	0.063654
C	0.4516273684015001 0.7705321411715527 0.3591368494463327	0.063654
C	0.2294678758284519 0.5483725975985043 0.3591368494463327	0.063729
C	0.2705321071715500 0.9516274024014957 0.3591368494463327	0.063729
C	0.2710712994995135 0.5482562919849143 0.6372576604973347	0.064168
C	0.2289286835004885 0.9517437080150857 0.6372576604973347	0.064168
C	0.7710713334995164 0.9517437080150857 0.6372576604973347	0.064164
C	0.7289286665004836 0.5482562919849143 0.6372576604973347	0.064164
C	0.7294678588284474 0.9516274024014957 0.3591368494463327	0.063727
C	0.7705321411715526 0.5483725975985043 0.3591368494463327	0.063727
C	0.5483725975985043 0.7705321411715527 0.3591368494463327	0.063729
C	0.9516274024014957 0.7294678588284473 0.3591368494463327	0.063729
C	0.9517437080150857 0.7710713334995164 0.6372576604973347	0.064168
C	0.5482562919849143 0.7289286665004836 0.6372576604973347	0.064168
H	0.2876876323475785 0.4131384946966895 0.7506723430132112	0.100764
H	0.2123123846524264 0.0868615143033079 0.7506723430132112	0.100764
H	0.2126736248316821 0.4130012053007451 0.2457494286744886	0.109453
H	0.2873263921683230 0.0869988036992520 0.2457494286744886	0.109453
H	0.0869988036992520 0.2873263921683230 0.2457494286744886	0.109452
H	0.4130012053007451 0.2126736248316821 0.2457494286744886	0.109452
H	0.4131384946966895 0.2876876323475785 0.7506723430132112	0.100763
H	0.0868615143033079 0.2123123846524264 0.7506723430132111	0.100763
H	0.9131384606966939 0.2123123846524264 0.7506723430132112	0.100759
H	0.5868615393033061 0.2876876323475785 0.7506723430132112	0.100759
H	0.5869988286992504 0.2126736248316821 0.2457494286744886	0.109439
H	0.9130011713007496 0.2873263921683230 0.2457494286744886	0.109439
H	0.7126735738316816 0.0869988036992520 0.2457494286744886	0.109452
H	0.7873264261683184 0.4130012053007451 0.2457494286744886	0.109452
H	0.7876876663475739 0.0868615143033079 0.7506723430132112	0.100763
H	0.7123123336524261 0.4131384946966895 0.7506723430132111	0.100763
H	0.4131384946966895 0.7123123336524261 0.7506723430132112	0.100764
H	0.0868615143033079 0.7876876663475739 0.7506723430132111	0.100764
H	0.0869988036992520 0.7126735738316816 0.2457494286744886	0.109452
H	0.4130012053007451 0.7873264261683184 0.2457494286744886	0.109452
H	0.2126736248316821 0.5869988286992504 0.2457494286744886	0.109438
H	0.2873263921683230 0.9130011713007496 0.2457494286744886	0.109438
H	0.2876876323475785 0.5868615393033061 0.7506723430132112	0.100757
H	0.2123123846524264 0.9131384606966939 0.7506723430132112	0.100757
H	0.7876876663475739 0.9131384606966939 0.7506723430132111	0.100759
H	0.7123123336524261 0.5868615393033061 0.7506723430132112	0.100759
H	0.7126735738316816 0.9130011713007496 0.2457494286744886	0.109439
H	0.7873264261683184 0.5869988286992504 0.2457494286744886	0.109439
H	0.5869988286992504 0.7873264261683184 0.2457494286744886	0.109438
H	0.9130011713007496 0.7126735738316816 0.2457494286744886	0.109438
H	0.9131384606966939 0.7876876663475739 0.7506723430132112	0.100757
H	0.5868615393033061 0.7123123336524261 0.7506723430132111	0.100757
Zn	0.2500000000000000 0.2500000000000000 0.5065663180710401	0.773468
Zn	0.7500000340000028 0.2500000000000000 0.5065663180710401	0.773459
Zn	0.2500000000000000 0.7500000340000028 0.5065663180710401	0.773459
Zn	0.7500000340000028 0.7500000340000028 0.5065663180710401	0.773449
Nb	0.2500000000000000 0.2500000000000000 -0.0171396315652620	2.430585
Nb	0.7500000340000028 0.2500000000000000 -0.0171396315652620	2.430584
Nb	0.2500000000000000 0.7500000340000028 -0.0171396315652620	2.430584
Nb	0.7500000340000028 0.7500000340000028 -0.0171396315652620	2.430583
O	0.2500000000000000 0.2500000000000000 0.7571692316272662	-0.940542
O	0.7500000340000028 0.2500000000000000 0.7571692316272662	-0.940541
O	0.2500000000000000 0.7500000340000028 0.7571692316272662	-0.940541
O	0.7500000340000028 0.7500000340000028 0.7571692316272662	-0.940540
F	0.2500000000000000 0.2500000000000000 0.2480409076543604	-0.612568
F	0.3451396716564430 0.3451396716564430 0.0052243426043233	-0.570511
F	0.1548603283435568 0.1548603283435568 0.0052243426043233	-0.570512
F	0.1551871825529172 0.3448128174470828 0.0152457496116670	-0.567064
F	0.3448128174470828 0.1551871825529172 0.0152457496116670	-0.567064
F	0.7500000340000028 0.2500000000000000 0.2480409076543604	-0.612566
F	0.8448127834470869 0.3448128174470828 0.0152457496116670	-0.567063
F	0.6551872165529131 0.1551871825529172 0.0152457496116670	-0.567063
F	0.6548603623435525 0.3451396716564430 0.0052243426043233	-0.570512
F	0.8451396376564475 0.1548603283435568 0.0052243426043233	-0.570512
F	0.2500000000000000 0.7500000340000028 0.2480409076543604	-0.612566
F	0.3448128174470828 0.8448127834470869 0.0152457496116670	-0.567063
F	0.1551871825529172 0.6551872165529131 0.0152457496116670	-0.567063
F	0.1548603283435568 0.8451396376564475 0.0052243426043233	-0.570512
F	0.3451396716564430 0.6548603623435525 0.0052243426043233	-0.570512
F	0.7500000340000028 0.7500000340000028 0.2480409076543604	-0.612563
F	0.8451396376564475 0.8451396376564475 0.0052243426043233	-0.570513
F	0.6548603623435525 0.6548603623435525 0.0052243426043233	-0.570513
F	0.6551872165529131 0.8448127834470869 0.0152457496116670	-0.567062
F	0.8448127834470869 0.6551872165529131 0.0152457496116670	-0.567062
N	0.4033584880483999 0.2501655875097528 0.4982894698137926	-0.181971
N	0.0966415039515994 0.2498344124902471 0.4982894698137926	-0.181971
N	0.2501655875097528 0.4033584880483999 0.4982894698137926	-0.181971
N	0.2498344124902471 0.0966415039515994 0.4982894698137926	-0.181971
N	0.9033585220484029 0.2498344124902471 0.4982894698137926	-0.182024
N	0.5966414779515971 0.2501655875097528 0.4982894698137926	-0.182024
N	0.7498344464902499 0.4033584880483999 0.4982894698137926	-0.181970
N	0.7501656215097557 0.0966415039515994 0.4982894698137926	-0.181970
N	0.4033584880483999 0.7498344464902499 0.4982894698137926	-0.181969
N	0.0966415039515994 0.7501656215097557 0.4982894698137926	-0.181969
N	0.2498344124902471 0.9033585220484029 0.4982894698137926	-0.182025
N	0.2501655875097528 0.5966414779515971 0.4982894698137926	-0.182025
N	0.9033585220484029 0.7501656215097557 0.4982894698137926	-0.182024
N	0.5966414779515971 0.7498344464902499 0.4982894698137926	-0.182023
N	0.7501656215097557 0.9033585220484029 0.4982894698137926	-0.182024
N	0.7498344464902499 0.5966414779515971 0.4982894698137926	-0.182023
	  	
