#======================================================================

# CRYSTAL DATA

#----------------------------------------------------------------------

data_VESTA_phase_1


_pd_phase_name                         NbOFFIVE_7_Cd
_cell_length_a                         19.82927
_cell_length_b                         19.82927
_cell_length_c                         8.38947
_cell_angle_alpha                      90
_cell_angle_beta                       90
_cell_angle_gamma                      90
_symmetry_space_group_name_H-M         P 1
_symmetry_Int_Tables_number            1

loop_
_symmetry_equiv_pos_as_xyz
   x, y, z

loop_
   _atom_site_label
   _atom_site_fract_x
   _atom_site_fract_y
   _atom_site_fract_z
   _atom_site_charge
C	0.6590974036647314 0.8758759437822096 0.6906944825107543	0.101265
C	0.6099685281015819 0.9258030371589331 0.6943927325620990	-0.177532
C	0.5771198397485097 0.8920990254940099 0.4305721534097156	-0.173131
C	0.6272562223217456 0.8433185103174896 0.4360211583211179	0.099066
C	0.8409025963352686 0.6241240562177904 0.6906944825107543	0.101265
C	0.8900314718984181 0.5741969628410669 0.6943927325620990	-0.177532
C	0.9228801102514933 0.6079010255059908 0.4305721534097156	-0.173131
C	0.8727437276782574 0.6566814896825104 0.4360211583211179	0.099066
C	0.6241240562177904 0.6590974036647314 0.6906944825107543	0.101265
C	0.5741969628410669 0.6099685281015819 0.6943927325620990	-0.177532
C	0.6079010255059908 0.5771198397485097 0.4305721534097156	-0.173131
C	0.6566814896825104 0.6272562223217456 0.4360211583211179	0.099066
C	0.8758759437822096 0.8409025963352686 0.6906944825107543	0.101265
C	0.9258030371589331 0.8900314718984181 0.6943927325620990	-0.177531
C	0.8920990254940099 0.9228801102514933 0.4305721534097156	-0.173130
C	0.8433185103174896 0.8727437276782574 0.4360211583211179	0.099066
C	0.3410641385641570 0.3758977931259743 0.3073792264204387	0.101632
C	0.3900332766911661 0.4260335360186409 0.3048146912012220	-0.176203
C	0.4226355218898864 0.3921107058199750 0.5686656651927957	-0.174820
C	0.3727118789457573 0.3431869391723358 0.5621027058639979	0.098975
C	0.1589358484358454 0.1241022068740257 0.3073792264204387	0.101632
C	0.1099667233088339 0.0739664639813593 0.3048146912012220	-0.176203
C	0.0773644781101135 0.1078892941800248 0.5686656651927957	-0.174820
C	0.1272881080542453 0.1568130608276643 0.5621027058639979	0.098975
C	0.3758977931259743 0.1589358484358454 0.3073792264204387	0.101632
C	0.4260335360186409 0.1099667233088339 0.3048146912012220	-0.176203
C	0.3921107058199750 0.0773644781101135 0.5686656651927957	-0.174820
C	0.3431869391723358 0.1272881080542453 0.5621027058639979	0.098975
C	0.1241022068740257 0.3410641385641570 0.3073792264204387	0.101632
C	0.0739664639813593 0.3900332766911661 0.3048146912012220	-0.176203
C	0.1078892941800248 0.4226355218898864 0.5686656651927957	-0.174820
C	0.1568130608276643 0.3727118789457573 0.5621027058639979	0.098975
C	0.4355306937368769 0.0679017313936647 0.4378687764500343	0.141102
C	0.4879018985096247 0.0163455829982146 0.4350270859406569	-0.121265
C	0.0644692872631180 0.4320982376063363 0.4378687764500343	0.141102
C	0.0120980754903734 0.4836544030017844 0.4350270859406569	-0.121265
C	0.4320982376063363 0.4355306937368769 0.4378687764500343	0.141102
C	0.4836544030017844 0.4879018985096247 0.4350270859406569	-0.121265
C	0.0679017313936647 0.0644692872631180 0.4378687764500343	0.141103
C	0.0163455829982146 0.0120980754903734 0.4350270859406569	-0.121265
C	0.5646013285225105 0.5677653551058008 0.5616401744582863	0.140471
C	0.5121474401237588 0.5162812532328301 0.5648696545463281	-0.121660
C	0.9353987214774936 0.9322346948942033 0.5616401744582863	0.140471
C	0.9878525088762405 0.9837187467671699 0.5648696545463281	-0.121660
C	0.5677653551058008 0.9353987214774936 0.5616401744582863	0.140471
C	0.5162812532328301 0.9878525088762405 0.5648696545463281	-0.121660
C	0.9322346948942033 0.5646013285225105 0.5616401744582863	0.140471
C	0.9837187467671699 0.5121474401237588 0.5648696545463281	-0.121660
H	0.6920530098761887 0.8666681383949624 0.7924530414144023	0.097575
H	0.6048104096507946 0.9572283723533856 0.8002996489768607	0.116488
H	0.5449131152084113 0.8951022332083093 0.3256703131869430	0.117887
H	0.6362835660838675 0.8096402728542959 0.3354800499768852	0.103491
H	0.8079469901238113 0.6333318106050370 0.7924530414144023	0.097575
H	0.8951895903492054 0.5427715776466173 0.8002996489768607	0.116488
H	0.9550868337915880 0.6048977157916900 0.3256703131869430	0.117887
H	0.8637164339161325 0.6903597271457041 0.3354800499768852	0.103491
H	0.6333318106050370 0.6920530098761887 0.7924530414144023	0.097575
H	0.5427715776466173 0.6048104096507946 0.8002996489768607	0.116488
H	0.6048977157916900 0.5449131152084113 0.3256703131869430	0.117887
H	0.6903597271457041 0.6362835660838675 0.3354800499768852	0.103491
H	0.8666681383949624 0.8079469901238113 0.7924530414144023	0.097575
H	0.9572283723533856 0.8951895903492054 0.8002996489768607	0.116488
H	0.8951022332083093 0.9550868337915880 0.3256703131869430	0.117887
H	0.8096402728542959 0.8637164339161325 0.3354800499768852	0.103491
H	0.3084820922091767 0.3666744500988815 0.2049396217992470	0.102982
H	0.3952725598872377 0.4576897220872420 0.1993090475362269	0.116688
H	0.4546307252562041 0.3950526449591671 0.6739543674218557	0.118336
H	0.3636795044548472 0.3091289312715798 0.6619318401763857	0.097209
H	0.1915179207908279 0.1333255629011232 0.2049396217992470	0.102982
H	0.1047274141127600 0.0423102969127559 0.1993090475362269	0.116688
H	0.0453693057437951 0.1049473420408282 0.6739543674218557	0.118336
H	0.1363204955451530 0.1908710557284224 0.6619318401763857	0.097209
H	0.3666744500988815 0.1915179207908279 0.2049396217992470	0.102982
H	0.4576897220872420 0.1047274141127600 0.1993090475362269	0.116688
H	0.3950526449591671 0.0453693057437951 0.6739543674218557	0.118336
H	0.3091289312715798 0.1363204955451530 0.6619318401763857	0.097209
H	0.1333255629011232 0.3084820922091767 0.2049396217992470	0.102982
H	0.0423102969127559 0.3952725598872377 0.1993090475362269	0.116688
H	0.1049473420408282 0.4546307252562041 0.6739543674218557	0.118336
H	0.1908710557284224 0.3636795044548472 0.6619318401763857	0.097209
H	0.5060892548261104 0.0020360982476907 0.3167035883538412	0.102832
H	0.9939106951738925 0.4979638997523090 0.3167035883538412	0.102832
H	0.4979638997523090 0.5060892548261104 0.3167035883538412	0.102832
H	0.0020360982476907 0.9939106951738925 0.3167035883538412	0.102832
H	0.4939938622479990 0.5020437207408923 0.6832843261598001	0.103141
H	0.0060061187520030 0.9979563292591047 0.6832843261598001	0.103141
H	0.5020437207408923 0.0060061187520030 0.6832843261598001	0.103141
H	0.9979563292591047 0.4939938622479990 0.6832843261598001	0.103141
Cd	0.2500000000000000 0.2500000000000000 0.4398214490977326	0.852787
Cd	0.7500000000000000 0.7500000000000000 0.5709796851589484	0.853342
Nb	0.2500000000000000 0.2500000000000000 0.9191307060453451	2.469317
Nb	0.7500000000000000 0.7500000000000000 0.0495270065895759	2.463940
F	0.2500000000000000 0.2500000000000000 0.1691998246999720	-0.627636
F	0.7500000000000000 0.7500000000000000 0.3001058585623054	-0.627569
F	0.3204823634523587 0.3185516904851545 0.9432211189880495	-0.606602
F	0.1795176365476412 0.1814482965148481 0.9432211189880495	-0.606602
F	0.1814482965148481 0.3204823634523587 0.9432211189880495	-0.606602
F	0.3185516904851545 0.1795176365476412 0.9432211189880495	-0.606602
F	0.6799746580880378 0.8190266387889396 0.0736983549920579	-0.605634
F	0.8200253419119622 0.6809733612110604 0.0736983549920579	-0.605634
F	0.8190266387889396 0.8200253419119622 0.0736983549920579	-0.605634
F	0.6809733612110604 0.6799746580880378 0.0736983549920579	-0.605634
O	0.2500000000000000 0.2500000000000000 0.7051724503901249	-0.947344
O	0.7500000000000000 0.7500000000000000 0.8358244975862852	-0.945667
N	0.3352134786987216 0.1674336918211817 0.4339648238441989	-0.237396
N	0.1647865213012783 0.3325663081788181 0.4339648238441989	-0.237396
N	0.3325663081788181 0.3352134786987216 0.4339648238441989	-0.237396
N	0.1674336918211817 0.1647865213012783 0.4339648238441989	-0.237396
N	0.6645580347448066 0.6676758509940602 0.5636009075132252	-0.237689
N	0.8354419652551934 0.8323241490059398 0.5636009075132252	-0.237689
N	0.6676758509940602 0.8354419652551934 0.5636009075132252	-0.237689
N	0.8323241490059398 0.6645580347448066 0.5636009075132252	-0.237689
	  	
