#======================================================================

# CRYSTAL DATA

#----------------------------------------------------------------------

data_VESTA_phase_1


_pd_phase_name                         NbOFFIVE_3_Cd
_cell_length_a                         15.06128
_cell_length_b                         15.06128
_cell_length_c                         8.28710
_cell_angle_alpha                      90
_cell_angle_beta                       90
_cell_angle_gamma                      90
_symmetry_space_group_name_H-M         P 1
_symmetry_Int_Tables_number            1

loop_
_symmetry_equiv_pos_as_xyz
   x, y, z

loop_
   _atom_site_label
   _atom_site_fract_x
   _atom_site_fract_y
   _atom_site_fract_z
   _atom_site_charge
C	0.2696269915318095 0.4537827169819856 0.6322179728516020	0.063575
C	0.2303729914681928 0.0462172880180182 0.6322179728516020	0.063575
C	0.2306382308154389 0.4536916771812583 0.3627757098377001	0.065881
C	0.2693617521845632 0.0463083278187455 0.3627757098377001	0.065881
C	0.0463083278187455 0.2693617521845632 0.3627757098377001	0.065884
C	0.4536916771812583 0.2306382308154389 0.3627757098377001	0.065884
C	0.4537827169819856 0.2696269915318095 0.6322179728516020	0.063583
C	0.0462172880180182 0.2303729914681928 0.6322179728516020	0.063583
C	0.9537827509819814 0.2303729914681928 0.6322179728516020	0.063592
C	0.5462172490180186 0.2696269915318095 0.6322179728516020	0.063592
C	0.5463082888187458 0.2306382308154389 0.3627757098377001	0.065895
C	0.9536917111812542 0.2693617521845632 0.3627757098377001	0.065895
C	0.7306382138154336 0.0463083278187455 0.3627757098377001	0.065884
C	0.7693617861845664 0.4536916771812583 0.3627757098377001	0.065884
C	0.7696270255318115 0.0462172880180182 0.6322179728516020	0.063583
C	0.7303729744681885 0.4537827169819856 0.6322179728516020	0.063583
C	0.4537827169819856 0.7303729744681885 0.6322179728516020	0.063576
C	0.0462172880180182 0.7696270255318115 0.6322179728516020	0.063576
C	0.0463083278187455 0.7306382138154336 0.3627757098377001	0.065882
C	0.4536916771812583 0.7693617861845664 0.3627757098377001	0.065882
C	0.2306382308154389 0.5463082888187458 0.3627757098377001	0.065897
C	0.2693617521845632 0.9536917111812542 0.3627757098377001	0.065897
C	0.2696269915318095 0.5462172490180186 0.6322179728516020	0.063599
C	0.2303729914681928 0.9537827509819814 0.6322179728516020	0.063599
C	0.7696270255318115 0.9537827509819814 0.6322179728516020	0.063592
C	0.7303729744681885 0.5462172490180186 0.6322179728516020	0.063592
C	0.7306382138154336 0.9536917111812542 0.3627757098377001	0.065895
C	0.7693617861845664 0.5463082888187458 0.3627757098377001	0.065895
C	0.5463082888187458 0.7693617861845664 0.3627757098377001	0.065897
C	0.9536917111812542 0.7306382138154336 0.3627757098377001	0.065897
C	0.9537827509819814 0.7696270255318115 0.6322179728516020	0.063599
C	0.5462172490180186 0.7303729744681885 0.6322179728516020	0.063599
H	0.2848387685367434 0.4160159623273721 0.7410980999223522	0.108336
H	0.2151612484632615 0.0839840466726250 0.7410980999223523	0.108336
H	0.2153415777689219 0.4158142282508356 0.2539427919288407	0.114863
H	0.2846584392310830 0.0841857807491617 0.2539427919288407	0.114863
H	0.0841857807491617 0.2846584392310830 0.2539427919288407	0.114862
H	0.4158142282508356 0.2153415777689219 0.2539427919288407	0.114862
H	0.4160159623273721 0.2848387685367434 0.7410980999223523	0.108334
H	0.0839840466726250 0.2151612484632615 0.7410980999223523	0.108334
H	0.9160159283273763 0.2151612484632615 0.7410980999223523	0.108330
H	0.5839840716726237 0.2848387685367434 0.7410980999223523	0.108330
H	0.5841858057491602 0.2153415777689219 0.2539427919288407	0.114859
H	0.9158141942508398 0.2846584392310830 0.2539427919288407	0.114859
H	0.7153415267689212 0.0841857807491617 0.2539427919288407	0.114862
H	0.7846584732310788 0.4158142282508356 0.2539427919288407	0.114862
H	0.7848388025367394 0.0839840466726250 0.7410980999223523	0.108334
H	0.7151611974632606 0.4160159623273721 0.7410980999223523	0.108334
H	0.4160159623273721 0.7151611974632606 0.7410980999223523	0.108336
H	0.0839840466726250 0.7848388025367394 0.7410980999223522	0.108336
H	0.0841857807491617 0.7153415267689212 0.2539427919288407	0.114863
H	0.4158142282508356 0.7846584732310788 0.2539427919288407	0.114863
H	0.2153415777689219 0.5841858057491602 0.2539427919288407	0.114858
H	0.2846584392310830 0.9158141942508398 0.2539427919288407	0.114858
H	0.2848387685367434 0.5839840716726237 0.7410980999223523	0.108327
H	0.2151612484632615 0.9160159283273763 0.7410980999223523	0.108327
H	0.7848388025367394 0.9160159283273763 0.7410980999223522	0.108330
H	0.7151611974632606 0.5839840716726237 0.7410980999223523	0.108330
H	0.7153415267689212 0.9158141942508398 0.2539427919288407	0.114859
H	0.7846584732310788 0.5841858057491602 0.2539427919288407	0.114859
H	0.5841858057491602 0.7846584732310788 0.2539427919288407	0.114858
H	0.9158141942508398 0.7153415267689212 0.2539427919288407	0.114858
H	0.9160159283273763 0.7848388025367394 0.7410980999223523	0.108327
H	0.5839840716726237 0.7151611974632606 0.7410980999223523	0.108327
Cd	0.2500000000000000 0.2500000000000000 0.5060099373353054	0.863286
Cd	0.7500000340000028 0.2500000000000000 0.5060099373353054	0.863286
Cd	0.2500000000000000 0.7500000340000028 0.5060099373353054	0.863286
Cd	0.7500000340000028 0.7500000340000028 0.5060099373353054	0.863287
Nb	0.2500000000000000 0.2500000000000000 -0.0139520039240312	2.457342
Nb	0.7500000340000028 0.2500000000000000 -0.0139520039240312	2.457340
Nb	0.2500000000000000 0.7500000340000028 -0.0139520039240312	2.457340
Nb	0.7500000340000028 0.7500000340000028 -0.0139520039240312	2.457339
O	0.2500000000000000 0.2500000000000000 0.7690321707593678	-0.962781
O	0.7500000340000028 0.2500000000000000 0.7690321707593678	-0.962781
O	0.2500000000000000 0.7500000340000028 0.7690321707593678	-0.962781
O	0.7500000340000028 0.7500000340000028 0.7690321707593678	-0.962780
F	0.2500000000000000 0.2500000000000000 0.2393049250619183	-0.626296
F	0.3413658753796086 0.3413658753796086 0.0032778732185489	-0.589574
F	0.1586341246203915 0.1586341246203915 0.0032778732185489	-0.589574
F	0.1593784239709496 0.3406215760290504 0.0213517465781809	-0.584259
F	0.3406215760290504 0.1593784239709496 0.0213517465781809	-0.584259
F	0.7500000340000028 0.2500000000000000 0.2393049250619183	-0.626295
F	0.8406215420290546 0.3406215760290504 0.0213517465781809	-0.584258
F	0.6593784579709454 0.1593784239709496 0.0213517465781809	-0.584258
F	0.6586341586203870 0.3413658753796086 0.0032778732185489	-0.589575
F	0.8413658413796130 0.1586341246203915 0.0032778732185489	-0.589575
F	0.2500000000000000 0.7500000340000028 0.2393049250619183	-0.626295
F	0.3406215760290504 0.8406215420290546 0.0213517465781809	-0.584258
F	0.1593784239709496 0.6593784579709454 0.0213517465781809	-0.584258
F	0.1586341246203915 0.8413658413796130 0.0032778732185489	-0.589575
F	0.3413658753796086 0.6586341586203870 0.0032778732185489	-0.589575
F	0.7500000340000028 0.7500000340000028 0.2393049250619183	-0.626295
F	0.8413658413796130 0.8413658413796130 0.0032778732185489	-0.589576
F	0.6586341586203870 0.6586341586203870 0.0032778732185489	-0.589576
F	0.6593784579709454 0.8406215420290546 0.0213517465781809	-0.584258
F	0.8406215420290546 0.6593784579709454 0.0213517465781809	-0.584258
N	0.4081332717246282 0.2500568582085320 0.4975518622530055	-0.198638
N	0.0918667202753712 0.2499431417914681 0.4975518622530055	-0.198638
N	0.2500568582085320 0.4081332717246282 0.4975518622530055	-0.198638
N	0.2499431417914681 0.0918667202753712 0.4975518622530055	-0.198638
N	0.9081333057246312 0.2499431417914681 0.4975518622530055	-0.198641
N	0.5918666942753688 0.2500568582085320 0.4975518622530055	-0.198641
N	0.7499431757914711 0.4081332717246282 0.4975518622530055	-0.198639
N	0.7500568922085346 0.0918667202753712 0.4975518622530055	-0.198639
N	0.4081332717246282 0.7499431757914711 0.4975518622530055	-0.198637
N	0.0918667202753712 0.7500568922085346 0.4975518622530055	-0.198637
N	0.2499431417914681 0.9081333057246312 0.4975518622530055	-0.198643
N	0.2500568582085320 0.5918666942753688 0.4975518622530055	-0.198642
N	0.9081333057246312 0.7500568922085346 0.4975518622530055	-0.198642
N	0.5918666942753688 0.7499431757914711 0.4975518622530055	-0.198642
N	0.7500568922085346 0.9081333057246312 0.4975518622530055	-0.198641
N	0.7499431757914711 0.5918666942753688 0.4975518622530055	-0.198641
	  	
