#======================================================================

# CRYSTAL DATA

#----------------------------------------------------------------------

data_VESTA_phase_1


_pd_phase_name                         NbOFFIVE_5_Cd_i
_cell_length_a                         20.38864
_cell_length_b                         20.38864
_cell_length_c                         16.41676
_cell_angle_alpha                      90
_cell_angle_beta                       90
_cell_angle_gamma                      90
_symmetry_space_group_name_H-M         P 1
_symmetry_Int_Tables_number            1

loop_
_symmetry_equiv_pos_as_xyz
   x, y, z

loop_
   _atom_site_label
   _atom_site_fract_x
   _atom_site_fract_y
   _atom_site_fract_z
   _atom_site_charge
F	0.3144941954735367 0.1792356330130365 0.3419716582818170	-0.604942
F	0.1855057925264626 0.3207643789869573 0.3419716582818170	-0.604940
F	0.3207643789869573 0.3144941954735367 0.3419716582818170	-0.604940
F	0.1792356330130365 0.1855057925264626 0.3419716582818170	-0.604942
F	0.6861966541964953 0.6786316745429899 0.1412609494240868	-0.605637
F	0.8138033458035047 0.8213683254570101 0.1412609494240868	-0.605635
F	0.6786316745429899 0.8138033458035047 0.1412609494240868	-0.605635
F	0.8213683254570101 0.6861966541964953 0.1412609494240868	-0.605636
F	0.6861966541964953 0.8213683254570101 0.6412609644240844	-0.605636
F	0.8138033458035047 0.6786316745429899 0.6412609644240844	-0.605638
F	0.6786316745429899 0.6861966541964953 0.6412609644240844	-0.605637
F	0.8213683254570101 0.8138033458035047 0.6412609644240844	-0.605636
F	0.3144941954735367 0.3207643789869573 0.8419716272818178	-0.604940
F	0.1855057925264626 0.1792356330130365 0.8419716272818178	-0.604942
F	0.3207643789869573 0.1855057925264626 0.8419716272818178	-0.604941
F	0.1792356330130365 0.3144941954735367 0.8419716272818178	-0.604941
F	0.2500000000000000 0.2500000000000000 0.2293329126377125	-0.611889
F	0.7500000000000000 0.7500000000000000 0.0286959156226711	-0.612073
F	0.7500000000000000 0.7500000000000000 0.5286959116226710	-0.612072
F	0.2500000000000000 0.2500000000000000 0.7293329586377095	-0.611888
O	0.2500000000000000 0.2500000000000000 0.4633821237741160	-0.944974
O	0.7500000000000000 0.7500000000000000 0.2628057183436571	-0.946824
O	0.7500000000000000 0.7500000000000000 0.7628056873436581	-0.946832
O	0.2500000000000000 0.2500000000000000 0.9633821237741163	-0.944975
N	0.3661450082047795 0.2472781646611025 0.6018183203855767	-0.240866
N	0.1338549677952256 0.2527218593388991 0.6018183203855767	-0.240865
N	0.2527218593388991 0.3661450082047795 0.6018183203855767	-0.240866
N	0.2472781646611025 0.1338549677952256 0.6018183203855767	-0.240866
N	0.6338915807705015 0.7457901274045555 0.8993833206826428	-0.241121
N	0.8661083712295017 0.7542098725954445 0.8993833206826428	-0.241121
N	0.7457901274045555 0.8661083712295017 0.8993833206826428	-0.241121
N	0.7542098725954445 0.6338915807705015 0.8993833206826428	-0.241121
N	0.6338915807705015 0.7542098725954445 0.3993833206826425	-0.241057
N	0.8661083712295017 0.7457901274045555 0.3993833206826425	-0.241057
N	0.7457901274045555 0.6338915807705015 0.3993833206826425	-0.241057
N	0.7542098725954445 0.8661083712295017 0.3993833206826425	-0.241057
N	0.3661450082047795 0.2527218593388991 0.1018183283855775	-0.240867
N	0.1338549677952256 0.2472781646611025 0.1018183283855775	-0.240867
N	0.2527218593388991 0.1338549677952256 0.1018183283855775	-0.240868
N	0.2472781646611025 0.3661450082047795 0.1018183283855775	-0.240867
C	0.3980971034653198 0.2206889860099273 0.6654278445328524	0.102224
C	0.4662117370204199 0.2194067714951010 0.6696400193286892	-0.178434
C	0.5033362434908630 0.2475566518330508 0.6066475824091836	0.104312
C	0.4690208380961313 0.2755033719528830 0.5410695757730872	-0.181594
C	0.4009332527963123 0.2739213249829095 0.5405813577297039	0.099338
C	0.5756035855350279 0.2481824887293382 0.6089874535658705	0.054684
C	0.6108884879740654 0.1935185354111513 0.6373903097043524	-0.129208
C	0.6790535030975886 0.1941506852169644 0.6382826900646216	-0.125503
C	0.7139203458864427 0.2497819534944703 0.6124134315182143	0.068378
C	0.6786725178711132 0.3046742513808733 0.5850354173461868	-0.123444
C	0.6105631694253424 0.3036692588346424 0.5825642826384443	-0.124983
C	0.1019029085346812 0.2793109899900706 0.6654278445328524	0.102224
C	0.0337882779795776 0.2805932525048939 0.6696400193286892	-0.178435
C	0.9966637645091376 0.2524433481669492 0.6066475824091836	0.104323
C	0.0309791829038669 0.2244966280471170 0.5410695757730872	-0.181594
C	0.0990667712036896 0.2260786750170903 0.5405813577297039	0.099338
C	0.9243963664649752 0.2518175352706566 0.6089874535658705	0.054622
C	0.8891114640259378 0.3064814645888487 0.6373903097043524	-0.129195
C	0.8209464969024114 0.3058493267830367 0.6382826900646216	-0.125466
C	0.7860796541135573 0.2502180705055250 0.6124134315182143	0.068370
C	0.8213274821288868 0.1953257606191278 0.5850354173461868	-0.123445
C	0.8894368305746576 0.1963307171653558 0.5825642826384443	-0.124964
C	0.2793109899900706 0.3980971034653198 0.6654278445328524	0.102224
C	0.2805932525048939 0.4662117370204199 0.6696400193286892	-0.178433
C	0.2524433481669492 0.5033362434908630 0.6066475824091836	0.104312
C	0.2244966280471170 0.4690208380961313 0.5410695757730872	-0.181594
C	0.2260786750170903 0.4009332527963123 0.5405813577297039	0.099338
C	0.2518175352706566 0.5756035855350279 0.6089874535658705	0.054684
C	0.3064814645888487 0.6108884879740654 0.6373903097043524	-0.129208
C	0.3058493267830367 0.6790535030975886 0.6382826900646216	-0.125502
C	0.2502180705055250 0.7139203458864427 0.6124134315182143	0.068379
C	0.1953257606191278 0.6786725178711132 0.5850354173461868	-0.123445
C	0.1963307171653558 0.6105631694253424 0.5825642826384443	-0.124982
C	0.2206889860099273 0.1019029085346812 0.6654278445328524	0.102225
C	0.2194067714951010 0.0337882779795776 0.6696400193286892	-0.178435
C	0.2475566518330508 0.9966637645091376 0.6066475824091836	0.104322
C	0.2755033719528830 0.0309791829038669 0.5410695757730872	-0.181593
C	0.2739213249829095 0.0990667712036896 0.5405813577297039	0.099339
C	0.2481824887293382 0.9243963664649752 0.6089874535658705	0.054621
C	0.1935185354111513 0.8891114640259378 0.6373903097043524	-0.129195
C	0.1941506852169644 0.8209464969024114 0.6382826900646216	-0.125466
C	0.2497819534944703 0.7860796541135573 0.6124134315182143	0.068370
C	0.3046742513808733 0.8213274821288868 0.5850354173461868	-0.123445
C	0.3036692588346424 0.8894368305746576 0.5825642826384443	-0.124964
C	0.6014028283941670 0.7194867048294050 0.8359944721695417	0.101315
C	0.5333587327183753 0.7188043019444741 0.8319609662759813	-0.180826
C	0.4966694866581235 0.7473853382304738 0.8950713811653279	0.104871
C	0.5314272954930566 0.7749516570366326 0.9605109257419502	-0.181388
C	0.5995888205200174 0.7727521445421276 0.9608651890620551	0.101918
C	0.4244235677975797 0.7483652134565351 0.8924105423629936	0.054393
C	0.3892638618925019 0.6937406412992346 0.8635571882232744	-0.129766
C	0.3211211180777376 0.6943180911064952 0.8619343235212304	-0.125775
C	0.2860764671241979 0.7498779814503227 0.8875921432367209	0.068445
C	0.3211797843450478 0.8048195925865008 0.9151795317033256	-0.122676
C	0.3893017588121839 0.8038747354625962 0.9183613871426437	-0.125462
C	0.8985971246058326 0.7805132951705950 0.8359944721695417	0.101314
C	0.9666412672816247 0.7811956980555259 0.8319609662759813	-0.180823
C	0.0033305133418767 0.7526146617695262 0.8950713811653279	0.104870
C	0.9685727045069434 0.7250483429633674 0.9605109257419502	-0.181389
C	0.9004111794799826 0.7272478554578724 0.9608651890620551	0.101918
C	0.0755764322024200 0.7516347865434649 0.8924105423629936	0.054394
C	0.1107361141075031 0.8062594067007622 0.8635571882232744	-0.129766
C	0.1788788819222622 0.8056819568935087 0.8619343235212304	-0.125774
C	0.2139235328758020 0.7501220185496774 0.8875921432367209	0.068445
C	0.1788202396549540 0.6951804554135032 0.9151795317033256	-0.122676
C	0.1106982411878160 0.6961253125374006 0.9183613871426437	-0.125461
C	0.7194867048294050 0.8985971246058326 0.8359944721695417	0.101314
C	0.7188043019444741 0.9666412672816247 0.8319609662759813	-0.180825
C	0.7473853382304738 0.0033305133418767 0.8950713811653279	0.104871
C	0.7749516570366326 0.9685727045069434 0.9605109257419502	-0.181387
C	0.7727521445421276 0.9004111794799826 0.9608651890620551	0.101919
C	0.7483652134565351 0.0755764322024200 0.8924105423629936	0.054394
C	0.6937406412992346 0.1107361141075031 0.8635571882232744	-0.129766
C	0.6943180911064952 0.1788788819222622 0.8619343235212304	-0.125775
C	0.7498779814503226 0.2139235328758020 0.8875921432367209	0.068445
C	0.8048195925865008 0.1788202396549540 0.9151795317033256	-0.122677
C	0.8038747354625962 0.1106982411878160 0.9183613871426437	-0.125461
C	0.7805132951705950 0.6014028283941670 0.8359944721695417	0.101316
C	0.7811956980555259 0.5333587327183753 0.8319609662759813	-0.180824
C	0.7526146617695262 0.4966694866581235 0.8950713811653279	0.104870
C	0.7250483429633674 0.5314272954930566 0.9605109257419502	-0.181389
C	0.7272478554578724 0.5995888205200174 0.9608651890620551	0.101919
C	0.7516347865434649 0.4244235677975797 0.8924105423629936	0.054393
C	0.8062594067007622 0.3892638618925019 0.8635571882232744	-0.129767
C	0.8056819568935087 0.3211211180777376 0.8619343235212304	-0.125774
C	0.7501220185496774 0.2860764671241979 0.8875921432367209	0.068445
C	0.6951804554135032 0.3211797843450478 0.9151795317033256	-0.122676
C	0.6961253125374006 0.3893017588121839 0.9183613871426437	-0.125462
C	0.6014028283941670 0.7805132951705950 0.3359945041695445	0.101312
C	0.5333587327183753 0.7811956980555259 0.3319609352759819	-0.180812
C	0.4966694866581235 0.7526146617695262 0.3950714431653261	0.104868
C	0.5314272954930566 0.7250483429633674 0.4605108947419513	-0.181386
C	0.5995888205200174 0.7272478554578724 0.4608651890620554	0.101901
C	0.4244235677975797 0.7516347865434649 0.3924105733629931	0.054393
C	0.3892638618925019 0.8062594067007622 0.3635572512232762	-0.129766
C	0.3211211180777376 0.8056819568935087 0.3619343235212303	-0.125767
C	0.2860764671241979 0.7501220185496774 0.3875921432367211	0.068445
C	0.3211797843450478 0.6951804554135032 0.4151795317033253	-0.122677
C	0.3893017588121839 0.6961253125374006 0.4183614181426498	-0.125462
C	0.8985971246058326 0.7194867048294050 0.3359945041695445	0.101312
C	0.9666412672816247 0.7188043019444741 0.3319609352759819	-0.180812
C	0.0033305133418767 0.7473853382304738 0.3950714431653261	0.104867
C	0.9685727045069434 0.7749516570366326 0.4605108947419513	-0.181385
C	0.9004111794799826 0.7727521445421276 0.4608651890620554	0.101900
C	0.0755764322024200 0.7483652134565351 0.3924105733629931	0.054394
C	0.1107361141075031 0.6937406412992346 0.3635572512232762	-0.129766
C	0.1788788819222622 0.6943180911064952 0.3619343235212303	-0.125767
C	0.2139235328758020 0.7498779814503226 0.3875921432367211	0.068445
C	0.1788202396549540 0.8048195925865008 0.4151795317033253	-0.122675
C	0.1106982411878160 0.8038747354625962 0.4183614181426498	-0.125462
C	0.7194867048294050 0.6014028283941670 0.3359945041695445	0.101313
C	0.7188043019444741 0.5333587327183753 0.3319609352759819	-0.180813
C	0.7473853382304738 0.4966694866581235 0.3950714431653261	0.104867
C	0.7749516570366326 0.5314272954930566 0.4605108947419513	-0.181385
C	0.7727521445421276 0.5995888205200174 0.4608651890620554	0.101902
C	0.7483652134565351 0.4244235677975797 0.3924105733629931	0.054393
C	0.6937406412992346 0.3892638618925019 0.3635572512232762	-0.129767
C	0.6943180911064952 0.3211211180777376 0.3619343235212303	-0.125767
C	0.7498779814503226 0.2860764671241979 0.3875921432367211	0.068444
C	0.8048195925865008 0.3211797843450478 0.4151795317033253	-0.122676
C	0.8038747354625962 0.3893017588121839 0.4183614181426498	-0.125463
C	0.7805132951705950 0.8985971246058326 0.3359945041695445	0.101312
C	0.7811956980555259 0.9666412672816247 0.3319609352759819	-0.180811
C	0.7526146617695262 0.0033305133418767 0.3950714431653261	0.104867
C	0.7250483429633674 0.9685727045069434 0.4605108947419513	-0.181385
C	0.7272478554578724 0.9004111794799826 0.4608651890620554	0.101901
C	0.7516347865434649 0.0755764322024200 0.3924105733629931	0.054394
C	0.8062594067007622 0.1107361141075031 0.3635572512232762	-0.129765
C	0.8056819568935087 0.1788788819222622 0.3619343235212303	-0.125767
C	0.7501220185496773 0.2139235328758020 0.3875921432367211	0.068445
C	0.6951804554135032 0.1788202396549540 0.4151795317033253	-0.122676
C	0.6961253125374006 0.1106982411878160 0.4183614181426498	-0.125462
C	0.3980971034653198 0.2793109899900706 0.1654278445328529	0.102223
C	0.4662117370204199 0.2805932525048939 0.1696400503286883	-0.178433
C	0.5033362434908630 0.2524433481669492 0.1066475284091865	0.104312
C	0.4690208380961313 0.2244966280471170 0.0410695997730895	-0.181595
C	0.4009332527963123 0.2260786750170903 0.0405813807297022	0.099337
C	0.5756035855350279 0.2518175352706566 0.1089874225658713	0.054684
C	0.6108884879740654 0.3064814645888487 0.1373902627043520	-0.129209
C	0.6790535030975886 0.3058493267830367 0.1382827060646230	-0.125502
C	0.7139203458864427 0.2502180705055250 0.1124134395182151	0.068378
C	0.6786725178711132 0.1953257606191278 0.0850354403461849	-0.123445
C	0.6105631694253424 0.1963307171653558 0.0825642586384421	-0.124984
C	0.1019029085346812 0.2206889860099273 0.1654278445328529	0.102225
C	0.0337882779795776 0.2194067714951010 0.1696400503286883	-0.178436
C	0.9966637645091376 0.2475566518330508 0.1066475284091865	0.104322
C	0.0309791829038669 0.2755033719528830 0.0410695997730895	-0.181593
C	0.0990667712036896 0.2739213249829095 0.0405813807297022	0.099338
C	0.9243963664649752 0.2481824887293382 0.1089874225658713	0.054621
C	0.8891114640259378 0.1935185354111513 0.1373902627043520	-0.129195
C	0.8209464969024114 0.1941506852169644 0.1382827060646230	-0.125465
C	0.7860796541135573 0.2497819534944703 0.1124134395182151	0.068370
C	0.8213274821288868 0.3046742513808733 0.0850354403461849	-0.123445
C	0.8894368305746576 0.3036692588346424 0.0825642586384421	-0.124966
C	0.2793109899900706 0.1019029085346812 0.1654278445328529	0.102226
C	0.2805932525048939 0.0337882779795776 0.1696400503286883	-0.178435
C	0.2524433481669492 0.9966637645091376 0.1066475284091865	0.104322
C	0.2244966280471170 0.0309791829038669 0.0410695997730895	-0.181594
C	0.2260786750170903 0.0990667712036896 0.0405813807297022	0.099338
C	0.2518175352706566 0.9243963664649752 0.1089874225658713	0.054622
C	0.3064814645888487 0.8891114640259378 0.1373902627043520	-0.129196
C	0.3058493267830367 0.8209464969024114 0.1382827060646230	-0.125465
C	0.2502180705055250 0.7860796541135573 0.1124134395182151	0.068369
C	0.1953257606191278 0.8213274821288868 0.0850354403461849	-0.123444
C	0.1963307171653558 0.8894368305746576 0.0825642586384421	-0.124965
C	0.2206889860099273 0.3980971034653198 0.1654278445328529	0.102223
C	0.2194067714951010 0.4662117370204199 0.1696400503286883	-0.178435
C	0.2475566518330508 0.5033362434908630 0.1066475284091865	0.104312
C	0.2755033719528830 0.4690208380961313 0.0410695997730895	-0.181594
C	0.2739213249829095 0.4009332527963123 0.0405813807297022	0.099338
C	0.2481824887293382 0.5756035855350279 0.1089874225658713	0.054684
C	0.1935185354111513 0.6108884879740654 0.1373902627043520	-0.129209
C	0.1941506852169644 0.6790535030975886 0.1382827060646230	-0.125503
C	0.2497819534944703 0.7139203458864427 0.1124134395182151	0.068378
C	0.3046742513808733 0.6786725178711132 0.0850354403461849	-0.123445
C	0.3036692588346424 0.6105631694253424 0.0825642586384421	-0.124984
H	0.3679685735063027 0.2009710551357802 0.7147305974177776	0.102230
H	0.4900798231127547 0.1981899410191518 0.7228949732971435	0.114095
H	0.4953492138022580 0.2970813127805255 0.4898340647699774	0.113179
H	0.3728539767277866 0.2937719750621439 0.4895404946624189	0.096269
H	0.5844487825876289 0.1498848027373824 0.6574656880346538	0.100297
H	0.7061573497933171 0.1516385239351611 0.6603776507314519	0.101995
H	0.7053282903958088 0.3476233164219366 0.5634067868116835	0.102972
H	0.5838792061912768 0.3466897060137933 0.5610465506963721	0.104081
H	0.1320314384936983 0.2990289448642196 0.7147305974177776	0.102231
H	0.0099202068872478 0.3018100349808459 0.7228949732971435	0.114093
H	0.0046507891977388 0.2029186872194750 0.4898340647699774	0.113180
H	0.1271460112722127 0.2062280249378561 0.4895404946624189	0.096269
H	0.9155511694123742 0.3501152092626186 0.6574656880346538	0.100292
H	0.7938426502066829 0.3483614640648381 0.6603776507314519	0.101990
H	0.7946717096041912 0.1523766835780632 0.5634067868116835	0.102970
H	0.9161207938087232 0.1533102939862065 0.5610465506963721	0.104079
H	0.2990289448642196 0.3679685735063027 0.7147305974177776	0.102230
H	0.3018100349808459 0.4900798231127547 0.7228949732971435	0.114093
H	0.2029186872194750 0.4953492138022580 0.4898340647699774	0.113179
H	0.2062280249378561 0.3728539767277866 0.4895404946624189	0.096269
H	0.3501152092626186 0.5844487825876289 0.6574656880346538	0.100297
H	0.3483614640648381 0.7061573497933171 0.6603776507314519	0.101996
H	0.1523766835780632 0.7053282903958088 0.5634067868116835	0.102971
H	0.1533102939862065 0.5838792061912768 0.5610465506963721	0.104080
H	0.2009710551357802 0.1320314384936983 0.7147305974177776	0.102231
H	0.1981899410191518 0.0099202068872478 0.7228949732971435	0.114094
H	0.2970813127805255 0.0046507891977388 0.4898340647699774	0.113180
H	0.2937719750621439 0.1271460112722127 0.4895404946624189	0.096269
H	0.1498848027373824 0.9155511694123742 0.6574656880346538	0.100291
H	0.1516385239351611 0.7938426502066829 0.6603776507314519	0.101989
H	0.3476233164219366 0.7946717096041912 0.5634067868116835	0.102971
H	0.3466897060137933 0.9161207938087232 0.5610465506963721	0.104080
H	0.6312838060961425 0.6994608435988158 0.7866664536728288	0.095933
H	0.5091038702942710 0.6977200750874307 0.7788707057324779	0.114111
H	0.5055083923971933 0.7967531125382513 0.0119044490941783	0.114273
H	0.6279673300756420 0.7923269816259324 0.0118799654585820	0.101946
H	0.4158606637404993 0.6501249261656800 0.8436979223358003	0.100462
H	0.2942297193858361 0.6518111203541962 0.8394394917101060	0.102157
H	0.2943450167249325 0.8477859124522344 0.9364534162543832	0.102851
H	0.4158123672452630 0.8469598435656743 0.9400607526738025	0.104439
H	0.8687162409038577 0.8005392044011882 0.7866664536728288	0.095933
H	0.9908961297057290 0.8022799249125693 0.7788707057324779	0.114110
H	0.9944915606028064 0.7032468874617487 0.0119044490941783	0.114273
H	0.8720326219243612 0.7076730183740676 0.0118799654585820	0.101945
H	0.0841393602594954 0.8498750738343200 0.8436979223358003	0.100463
H	0.2057702806141638 0.8481888796458038 0.8394394917101060	0.102158
H	0.2056549832750672 0.6522140395477616 0.9364534162543832	0.102851
H	0.0841876447547379 0.6530401084343217 0.9400607526738025	0.104440
H	0.6994608435988158 0.8687162409038578 0.7866664536728288	0.095933
H	0.6977200750874307 0.9908961297057290 0.7788707057324779	0.114111
H	0.7967531125382513 0.9944915606028064 0.0119044490941783	0.114272
H	0.7923269816259324 0.8720326219243612 0.0118799654585820	0.101945
H	0.6501249261656800 0.0841393602594954 0.8436979223358003	0.100462
H	0.6518111203541962 0.2057702806141638 0.8394394917101060	0.102158
H	0.8477859124522344 0.2056549832750672 0.9364534162543832	0.102852
H	0.8469598435656743 0.0841876447547379 0.9400607526738025	0.104439
H	0.8005392044011882 0.6312838060961425 0.7866664536728288	0.095933
H	0.8022799249125693 0.5091038702942710 0.7788707057324779	0.114111
H	0.7032468874617487 0.5055083923971933 0.0119044490941783	0.114274
H	0.7076730183740676 0.6279673300756420 0.0118799654585820	0.101946
H	0.8498750738343200 0.4158606637404993 0.8436979223358003	0.100463
H	0.8481888796458038 0.2942297193858361 0.8394394917101060	0.102157
H	0.6522140395477616 0.2943450167249325 0.9364534162543832	0.102850
H	0.6530401084343217 0.4158123672452630 0.9400607526738025	0.104439
H	0.6312838060961427 0.8005392044011882 0.2866664226728297	0.095882
H	0.5091038702942710 0.8022799249125693 0.2788707057324774	0.114109
H	0.5055083923971933 0.7032468874617487 0.5119044680941832	0.114274
H	0.6279673300756420 0.7076730183740676 0.5118799364585832	0.101947
H	0.4158606637404993 0.8498750738343200 0.3436979223357999	0.100463
H	0.2942297193858361 0.8481888796458038 0.3394395227101121	0.102149
H	0.2943450167249325 0.6522140395477616 0.4364534162543833	0.102851
H	0.4158123672452630 0.6530401084343217 0.4400608146738009	0.104440
H	0.8687162409038578 0.6994608435988158 0.2866664226728297	0.095881
H	0.9908961297057290 0.6977200750874307 0.2788707057324774	0.114110
H	0.9944915606028064 0.7967531125382513 0.5119044680941832	0.114274
H	0.8720326219243612 0.7923269816259324 0.5118799364585832	0.101947
H	0.0841393602594954 0.6501249261656800 0.3436979223357999	0.100464
H	0.2057702806141638 0.6518111203541962 0.3394395227101121	0.102149
H	0.2056549832750672 0.8477859124522344 0.4364534162543833	0.102852
H	0.0841876447547379 0.8469598435656743 0.4400608146738009	0.104441
H	0.6994608435988158 0.6312838060961427 0.2866664226728297	0.095882
H	0.6977200750874307 0.5091038702942710 0.2788707057324774	0.114110
H	0.7967531125382513 0.5055083923971933 0.5119044680941832	0.114274
H	0.7923269816259324 0.6279673300756420 0.5118799364585832	0.101947
H	0.6501249261656800 0.4158606637404993 0.3436979223357999	0.100463
H	0.6518111203541962 0.2942297193858361 0.3394395227101121	0.102149
H	0.8477859124522344 0.2943450167249325 0.4364534162543833	0.102851
H	0.8469598435656743 0.4158123672452630 0.4400608146738009	0.104441
H	0.8005392044011882 0.8687162409038577 0.2866664226728297	0.095881
H	0.8022799249125693 0.9908961297057290 0.2788707057324774	0.114109
H	0.7032468874617487 0.9944915606028064 0.5119044680941832	0.114274
H	0.7076730183740676 0.8720326219243612 0.5118799364585832	0.101947
H	0.8498750738343200 0.0841393602594954 0.3436979223357999	0.100464
H	0.8481888796458038 0.2057702806141638 0.3394395227101121	0.102149
H	0.6522140395477616 0.2056549832750672 0.4364534162543833	0.102851
H	0.6530401084343217 0.0841876447547379 0.4400608146738009	0.104440
H	0.3679685735063027 0.2990289448642196 0.2147306284177768	0.102231
H	0.4900798231127547 0.3018100349808459 0.2228949582971457	0.114095
H	0.4953492138022580 0.2029186872194750 0.9898340337699716	0.113180
H	0.3728539767277866 0.2062280249378561 0.9895404946624187	0.096269
H	0.5844487825876289 0.3501152092626186 0.1574656880346535	0.100297
H	0.7061573497933171 0.3483614640648381 0.1603776347314508	0.101996
H	0.7053282903958088 0.1523766835780632 0.0634067948116839	0.102971
H	0.5838792061912768 0.1533102939862065 0.0610465036963719	0.104082
H	0.1320314384936983 0.2009710551357802 0.2147306284177768	0.102231
H	0.0099202068872478 0.1981899410191518 0.2228949582971457	0.114095
H	0.0046507891977388 0.2970813127805255 0.9898340337699716	0.113181
H	0.1271460112722127 0.2937719750621439 0.9895404946624187	0.096270
H	0.9155511694123742 0.1498848027373824 0.1574656880346535	0.100292
H	0.7938426502066829 0.1516385239351611 0.1603776347314508	0.101989
H	0.7946717096041912 0.3476233164219366 0.0634067948116839	0.102971
H	0.9161207938087232 0.3466897060137933 0.0610465036963719	0.104081
H	0.2990289448642196 0.1320314384936983 0.2147306284177768	0.102231
H	0.3018100349808459 0.0099202068872478 0.2228949582971457	0.114095
H	0.2029186872194750 0.0046507891977388 0.9898340337699716	0.113181
H	0.2062280249378561 0.1271460112722127 0.9895404946624187	0.096270
H	0.3501152092626186 0.9155511694123742 0.1574656880346535	0.100293
H	0.3483614640648381 0.7938426502066829 0.1603776347314508	0.101989
H	0.1523766835780632 0.7946717096041912 0.0634067948116839	0.102971
H	0.1533102939862065 0.9161207938087232 0.0610465036963719	0.104081
H	0.2009710551357802 0.3679685735063027 0.2147306284177768	0.102231
H	0.1981899410191518 0.4900798231127547 0.2228949582971457	0.114095
H	0.2970813127805255 0.4953492138022580 0.9898340337699716	0.113179
H	0.2937719750621439 0.3728539767277866 0.9895404946624187	0.096269
H	0.1498848027373824 0.5844487825876289 0.1574656880346535	0.100296
H	0.1516385239351611 0.7061573497933171 0.1603776347314508	0.101995
H	0.3476233164219366 0.7053282903958088 0.0634067948116839	0.102971
H	0.3466897060137933 0.5838792061912768 0.0610465036963719	0.104082
Cd	0.2500000000000000 0.2500000000000000 0.5952736715365105	0.860890
Cd	0.7500000000000000 0.7500000000000000 0.8950300145403436	0.863823
Cd	0.7500000000000000 0.7500000000000000 0.3950300145403438	0.863789
Cd	0.2500000000000000 0.2500000000000000 0.0952736795365110	0.860893
Nb	0.2500000000000000 0.2500000000000000 0.3547053729368465	2.475645
Nb	0.7500000000000000 0.7500000000000000 0.1540454232320393	2.477229
Nb	0.7500000000000000 0.7500000000000000 0.6540454232320394	2.477231
Nb	0.2500000000000000 0.2500000000000000 0.8547054039368456	2.475645
	  	
