#======================================================================

# CRYSTAL DATA

#----------------------------------------------------------------------

data_VESTA_phase_1


_pd_phase_name                         NbOFFIVE_7_Zn
_cell_length_a                         19.29808
_cell_length_b                         19.29808
_cell_length_c                         8.14749
_cell_angle_alpha                      90
_cell_angle_beta                       90
_cell_angle_gamma                      90
_symmetry_space_group_name_H-M         P 1
_symmetry_Int_Tables_number            1

loop_
_symmetry_equiv_pos_as_xyz
   x, y, z

loop_
   _atom_site_label
   _atom_site_fract_x
   _atom_site_fract_y
   _atom_site_fract_z
   _atom_site_charge
C	0.6640893823552486 0.8728011523834203 0.6946611821749754	0.103954
C	0.6133254470054889 0.9238013339777301 0.6991941564174154	-0.179325
C	0.5789935180194108 0.8887690557456954 0.4286661909212208	-0.173389
C	0.6301833676264238 0.8383164203218518 0.4345341819494485	0.100222
C	0.8359106176447514 0.6271988476165797 0.6946611821749754	0.103952
C	0.8866745529945111 0.5761986660222699 0.6991941564174154	-0.179310
C	0.9210064319805922 0.6112309952543052 0.4286661909212208	-0.173378
C	0.8698165823735792 0.6616835796781482 0.4345341819494485	0.100221
C	0.6271988476165797 0.6640893823552486 0.6946611821749754	0.103952
C	0.5761986660222699 0.6133254470054889 0.6991941564174154	-0.179310
C	0.6112309952543052 0.5789935180194108 0.4286661909212208	-0.173378
C	0.6616835796781482 0.6301833676264238 0.4345341819494485	0.100221
C	0.8728011523834203 0.8359106176447514 0.6946611821749754	0.103954
C	0.9238013339777301 0.8866745529945111 0.6991941564174154	-0.179324
C	0.8887690557456954 0.9210064319805922 0.4286661909212208	-0.173388
C	0.8383164203218518 0.8698165823735792 0.4345341819494485	0.100222
C	0.3359057036660195 0.3725411122060161 0.3044828315648045	0.104103
C	0.3865394478310862 0.4237768192290920 0.3002340571698368	-0.178323
C	0.4210366450688703 0.3889210668170618 0.5707796523215192	-0.174866
C	0.3700752634604419 0.3383464520763061 0.5646395885704334	0.100876
C	0.1640942833339830 0.1274588877939838 0.3044828315648045	0.104103
C	0.1134605521689138 0.0762231807709079 0.3002340571698368	-0.178324
C	0.0789633549311296 0.1110789331829380 0.5707796523215192	-0.174865
C	0.1299247235395604 0.1616535479236940 0.5646395885704334	0.100876
C	0.3725411122060161 0.1640942833339830 0.3044828315648045	0.104104
C	0.4237768192290920 0.1134605521689138 0.3002340571698368	-0.178323
C	0.3889210668170618 0.0789633549311296 0.5707796523215192	-0.174865
C	0.3383464520763061 0.1299247235395604 0.5646395885704334	0.100876
C	0.1274588877939838 0.3359057036660195 0.3044828315648045	0.104103
C	0.0762231807709079 0.3865394478310862 0.3002340571698368	-0.178323
C	0.1110789331829380 0.4210366450688703 0.5707796523215192	-0.174865
C	0.1616535479236940 0.3700752634604419 0.5646395885704333	0.100876
C	0.4335942395260611 0.0696642591773101 0.4361480929626629	0.140867
C	0.4874493177709405 0.0166908058019494 0.4328307362110205	-0.121640
C	0.0664057414739336 0.4303357098226910 0.4361480929626629	0.140868
C	0.0125506562290573 0.4833091801980494 0.4328307362110205	-0.121640
C	0.4303357098226910 0.4335942395260611 0.4361480929626629	0.140868
C	0.4833091801980494 0.4874493177709405 0.4328307362110205	-0.121640
C	0.0696642591773101 0.0664057414739336 0.4361480929626629	0.140867
C	0.0166908058019494 0.0125506562290573 0.4328307362110205	-0.121640
C	0.5665270691838080 0.5695625829002292 0.5631655547194543	0.140518
C	0.5126364660669904 0.5166337638099509 0.5664758919091911	-0.121421
C	0.9334729808161961 0.9304374670997749 0.5631655547194543	0.140578
C	0.9873634829330089 0.9833662361900491 0.5664758919091911	-0.121458
C	0.5695625829002292 0.9334729808161961 0.5631655547194543	0.140578
C	0.5166337638099509 0.9873634829330089 0.5664758919091911	-0.121458
C	0.9304374670997749 0.5665270691838080 0.5631655547194543	0.140518
C	0.9833662361900491 0.5126364660669904 0.5664758919091911	-0.121421
H	0.6984715510212098 0.8641277756534639 0.7986088795579864	0.093821
H	0.6082513875047216 0.9560624404048239 0.8083790433088949	0.117183
H	0.5459142643851000 0.8918855518820602 0.3205497030969016	0.117113
H	0.6387095327165170 0.8033839306885735 0.3316293804251712	0.100546
H	0.8015284489787902 0.6358721733465355 0.7986088795579864	0.093821
H	0.8917486124952784 0.5439375095951791 0.8083790433088949	0.117180
H	0.9540856846148993 0.6081143971179391 0.3205497030969016	0.117111
H	0.8612904672834830 0.6966160693114265 0.3316293804251712	0.100547
H	0.6358721733465355 0.6984715510212098 0.7986088795579864	0.093821
H	0.5439375095951791 0.6082513875047216 0.8083790433088949	0.117180
H	0.6081143971179391 0.5459142643851000 0.3205497030969016	0.117111
H	0.6966160693114265 0.6387095327165170 0.3316293804251712	0.100547
H	0.8641277756534639 0.8015284489787902 0.7986088795579864	0.093821
H	0.9560624404048239 0.8917486124952784 0.8083790433088949	0.117182
H	0.8918855518820602 0.9540856846148993 0.3205497030969016	0.117113
H	0.8033839306885735 0.8612904672834830 0.3316293804251712	0.100546
H	0.3017397460343788 0.3636734755895428 0.2002822471507878	0.100339
H	0.3915316762143182 0.4560813039992903 0.1911064210463754	0.116932
H	0.4540577421868952 0.3921211358478515 0.6789835984608890	0.117345
H	0.3617256155416184 0.3031940376923709 0.6672506349976461	0.093802
H	0.1982602669656258 0.1363265374104618 0.2002822471507878	0.100339
H	0.1084682977856798 0.0439187150007079 0.1911064210463754	0.116932
H	0.0459422888131038 0.1078788511521440 0.6789835984608890	0.117346
H	0.1382743844583816 0.1968059493076316 0.6672506349976461	0.093802
H	0.3636734755895429 0.1982602669656258 0.2002822471507878	0.100339
H	0.4560813039992903 0.1084682977856798 0.1911064210463754	0.116932
H	0.3921211358478515 0.0459422888131038 0.6789835984608890	0.117346
H	0.3031940376923709 0.1382743844583816 0.6672506349976461	0.093802
H	0.1363265374104618 0.3017397460343788 0.2002822471507878	0.100339
H	0.0439187150007079 0.3915316762143182 0.1911064210463754	0.116932
H	0.1078788511521440 0.4540577421868952 0.6789835984608890	0.117345
H	0.1968059493076316 0.3617256155416184 0.6672506349976461	0.093802
H	0.5061333108536555 0.0019958225717462 0.3108974806438186	0.102605
H	0.9938666391463474 0.4980041754282536 0.3108974806438186	0.102604
H	0.4980041754282536 0.5061333108536555 0.3108974806438186	0.102604
H	0.0019958225717462 0.9938666391463474 0.3108974806438186	0.102605
H	0.4939816080081837 0.5019676867710569 0.6884723681305041	0.102490
H	0.0060183729918183 0.9980323632289402 0.6884723681305041	0.102486
H	0.5019676867710569 0.0060183729918183 0.6884723681305041	0.102486
H	0.9980323632289402 0.4939816080081837 0.6884723681305041	0.102490
Zn	0.2500000000000000 0.2500000000000000 0.4417081896664803	0.758493
Zn	0.7500000000000000 0.7500000000000000 0.5738838749423990	0.759563
Nb	0.2500000000000000 0.2500000000000000 0.9166616040206874	2.437248
Nb	0.7500000000000000 0.7500000000000000 0.0471883164683943	2.437618
F	0.2500000000000000 0.2500000000000000 0.1758216281113482	-0.616635
F	0.7500000000000000 0.7500000000000000 0.3062497322059307	-0.615790
F	0.3226982631706150 0.3199126504727450 0.9412447000379304	-0.592026
F	0.1773017368293852 0.1800873365272576 0.9412447000379304	-0.592026
F	0.1800873365272576 0.3226982631706150 0.9412447000379304	-0.592026
F	0.3199126504727450 0.1773017368293852 0.9412447000379304	-0.592026
F	0.6783012105932770 0.8209697599708358 0.0716908072218065	-0.592258
F	0.8216987894067230 0.6790302400291642 0.0716908072218065	-0.592258
F	0.8209697599708358 0.8216987894067230 0.0716908072218065	-0.592258
F	0.6790302400291642 0.6783012105932770 0.0716908072218065	-0.592258
O	0.2500000000000000 0.2500000000000000 0.6958420734315901	-0.925906
O	0.7500000000000000 0.7500000000000000 0.8265011225918780	-0.927253
N	0.3302506877451483 0.1721485333841114 0.4343107040951265	-0.223295
N	0.1697493122548518 0.3278514666158885 0.4343107040951265	-0.223295
N	0.3278514666158885 0.3302506877451483 0.4343107040951265	-0.223295
N	0.1721485333841114 0.1697493122548518 0.4343107040951265	-0.223295
N	0.6694612989496418 0.6724478774776921 0.5648177063245005	-0.223029
N	0.8305387010503582 0.8275521225223079 0.5648177063245005	-0.223030
N	0.6724478774776921 0.8305387010503582 0.5648177063245005	-0.223030
N	0.8275521225223079 0.6694612989496418 0.5648177063245005	-0.223029
	  	
