#======================================================================

# CRYSTAL DATA

#----------------------------------------------------------------------

data_VESTA_phase_1


_pd_phase_name                         NbOFFIVE_13_Ni_i
_cell_length_a                         15.29048
_cell_length_b                         15.29228
_cell_length_c                         7.87723
_cell_angle_alpha                      89.90767
_cell_angle_beta                       90.35027
_cell_angle_gamma                      89.06066
_symmetry_space_group_name_H-M         P 1
_symmetry_Int_Tables_number            1

loop_
_symmetry_equiv_pos_as_xyz
   x, y, z

loop_
   _atom_site_label
   _atom_site_fract_x
   _atom_site_fract_y
   _atom_site_fract_z
   _atom_site_charge
C	0.5433510637921710 0.6826631387450155 0.8763839996960151	0.106784
C	0.5472131144717249 0.7735922598947936 0.8742507263754988	-0.148672
C	0.4600436375186959 0.3200686394571603 0.8822532531523631	0.106429
C	0.4563335142893489 0.2291694073282225 0.8824836153610018	-0.141568
C	0.8180983513755249 0.9691447107797411 0.3654214467195147	0.108494
C	0.7272527932382498 0.9666963357621524 0.3593096984897539	-0.135739
C	0.3182373045942088 0.5457083780917323 0.8742004093596345	0.105313
C	0.2271570924732705 0.5494850715367779 0.8698250765247023	-0.147359
C	0.1827473891230288 0.9702284283789806 0.3640890532144322	0.102983
C	0.2735384031613666 0.9683235837900038 0.3597156751271160	-0.134314
C	0.6823761708655656 0.4594268921513587 0.8846615999193449	0.106455
C	0.7733897629573080 0.4561924011572973 0.8831802394392522	-0.138977
C	0.4518050679543820 0.6847743809506038 0.1102539531166193	0.108102
C	0.4487915483850132 0.7756871488105406 0.1118931103388639	-0.138757
C	0.5466109147048741 0.3198637732027195 0.1254312251771290	0.107151
C	0.5496003717386750 0.2288552764927989 0.1301473567488297	-0.150695
C	0.1819995915291247 0.0271664079932965 0.6368038210037713	0.112833
C	0.2727689972357029 0.0284453269346437 0.6429204025307237	-0.139741
C	0.6811895590942864 0.5486091904509927 0.1228215000819219	0.106532
C	0.7721289950390617 0.5521609789719792 0.1254233108513214	-0.150959
C	0.8163030737927771 0.0315627977101702 0.6336337274248489	0.105568
C	0.7255693435373755 0.0330053824109657 0.6373533262948452	-0.139802
C	0.3181996476327406 0.4554501275555019 0.1114265082966086	0.107166
C	0.2273614634994977 0.4522226335370649 0.1108758564390051	-0.141335
C	0.9622669765601735 0.8152883630856724 0.6290154710699444	0.114469
C	0.9604467743575879 0.7244926793690313 0.6332452858648637	-0.140300
C	0.9771661720661698 0.1815892931948223 0.6403780792982955	0.107248
C	0.9758114057971746 0.2723125944386312 0.6437142397584775	-0.140316
C	0.0254593170916474 0.8148506183682350 0.3621748901738729	0.102278
C	0.0275079994545260 0.7240652374369320 0.3564984757069966	-0.134776
C	0.0310332181633591 0.1788397047326779 0.3656387040430757	0.111026
C	0.0328763251998916 0.2696450919667732 0.3585486530337730	-0.137855
C	0.0039788645342216 0.3173189248570796 0.4996845961317539	0.043480
C	0.0023684191162554 0.4130469861437327 0.4981410910276910	0.255487
C	0.4984916132701053 0.8212049441464306 0.9932633543274771	0.054060
C	0.4998030330154020 0.9176319763541996 0.9980380936572566	0.249139
C	0.9948246778295429 0.6778418258751315 0.4951476865081079	0.039165
C	0.9974466842408852 0.5820129663880328 0.4961369038597583	0.245991
C	0.5026218333044097 0.1824776030679373 0.0078433013663635	0.055311
C	0.5017118723432632 0.0859132675614861 0.0092051921069374	0.248832
C	0.6799890149103752 -0.0006867582038643 0.4978975652241388	0.039500
C	0.5842357111714180 0.9971483163645011 0.5004116100006948	0.246161
C	0.1807052677481958 0.5011592765785605 0.9891509159115172	0.055137
C	0.0841637568303499 0.5020797116741774 0.9911905659075478	0.247849
C	0.3195638242506894 0.9976436407640202 0.5021951062392168	0.041264
C	0.4153065617600337 0.9961591285275128 0.5037027172650298	0.254382
C	0.8192994102835928 0.5040718243770724 0.0048246949772567	0.054494
C	0.9158348327808389 0.5035330470723103 0.0031931412081187	0.249138
H	0.5768838927762306 0.6430950399475804 0.7810606790079603	0.103875
H	0.5867707433657907 0.8063861289840347 0.7797065374730144	0.122929
H	0.4285064848534708 0.3589617339689593 0.7822942322723302	0.104617
H	0.4202555915355029 0.1948938145563874 0.7841143734034174	0.118776
H	0.8572361925006564 0.9451673260438047 0.2597200106835535	0.100915
H	0.6942087358265553 0.9402584044023269 0.2483016915789698	0.119710
H	0.3570955729672678 0.5788763530388745 0.7787157240836633	0.104157
H	0.1934109965046255 0.5886343783208506 0.7733003623916782	0.124098
H	0.1449834885353772 0.9497627393629423 0.2541225458112333	0.092182
H	0.3072671481058390 0.9455924512301426 0.2463575266726180	0.117011
H	0.6439456040317554 0.4268993470414833 0.7869751604509383	0.105104
H	0.8082723119116049 0.4194328246294538 0.7859178953457872	0.117645
H	0.4180107820561013 0.6465767536762910 0.2059686293556341	0.102402
H	0.4116478979573841 0.8109096159038277 0.2080467136080116	0.115147
H	0.5786357978907372 0.3586344639071218 0.2231460655698234	0.100340
H	0.5865443104985339 0.1949598445982867 0.2296830309295308	0.124486
H	0.1432431616128339 0.0498236984213559 0.7441081635870265	0.094742
H	0.3062983032160281 0.0514198659088079 0.7562372368159287	0.118315
H	0.6418535326476221 0.5815587934337174 0.2192070843758898	0.101048
H	0.8053830754622556 0.5904912794935414 0.2219045713950438	0.123773
H	0.8537952478454227 0.0545801001291769 0.7421043228082689	0.088467
H	0.6910280712224603 0.0581468088498059 0.7478412855278606	0.120771
H	0.3570652711479095 0.4222642910638004 0.2094336844823184	0.102183
H	0.1929320032325631 0.4152429532968639 0.2070942177283476	0.116131
H	0.9377758063145222 0.8540625902329052 0.7349121134296880	0.095685
H	0.9343928120097690 0.6906560351189042 0.7430921590510032	0.119531
H	0.9573177252977806 0.1444182757993452 0.7511825476047850	0.086633
H	0.9542857985915321 0.3070981151682859 0.7568015732266963	0.118430
H	0.0485068855540153 0.8526354615722944 0.2548299066573487	0.091614
H	0.0536308516735884 0.6905120216351721 0.2456435912330217	0.119509
H	0.0517814715177973 0.1392806308667584 0.2579095290031174	0.101007
H	0.0547261286135229 0.3024557000987200 0.2439929966153521	0.120148
N	0.9462376343568514 0.5402086574529202 0.6087075375819597	-0.134350
N	0.4229418336786464 0.0470692053997235 0.0102878282733218	-0.149431
N	0.5424793081717901 0.0482247306888534 0.6155066363058851	-0.132820
N	0.9573834918172658 0.4248540550258108 0.0007992729328827	-0.147764
N	0.0517758552394727 0.5408901981502259 0.3858848870257280	-0.133125
N	0.5795566018393976 0.0427872153496530 0.0103750752532800	-0.147665
N	0.9562101546141887 0.5814866691468213 0.0016584294497529	-0.148594
N	0.5432399997067067 0.9422167843562689 0.3927608459579568	-0.134212
N	0.0547949338383567 0.4547802512025376 0.3879715613921505	-0.133061
N	0.5785876454316851 0.9564655852884116 0.0006034856135287	-0.148319
N	0.4571064277543902 0.9415821689666116 0.3951203523390985	-0.130998
N	0.0425213886066535 0.5807584700327275 0.9915704216338105	-0.145450
N	0.9482497132193493 0.4542105623377082 0.6085330814319835	-0.131782
N	0.4220678496115428 0.9606264927388271 0.0075599495244619	-0.144916
N	0.0438752045751242 0.4241366168953222 0.9974942860887900	-0.149292
N	0.4565273915672188 0.0479101404288523 0.6167951475521143	-0.133786
N	0.0032464269034004 0.1355260765017875 0.5037443502447734	-0.218155
N	0.4975385216374870 0.6391273177403285 0.9938767138476655	-0.225192
N	0.9948532053084869 0.8598388260973654 0.4965746545076312	-0.216245
N	0.5033323949017525 0.3645661064461932 0.0028569588482407	-0.225286
N	0.8619418955702469 0.0006303413351790 0.5003810827121381	-0.215795
N	0.3628245172163431 0.5005838507822455 0.9943596581080004	-0.224315
N	0.1376335867945356 0.9979463988306994 0.5005110139973579	-0.214348
N	0.6372164613663681 0.5037370469439219 0.0037821382177206	-0.224000
Ni	-0.0001698782920709 0.9977535409707119 0.5050831898837390	0.794803
Ni	0.5000953914627763 0.5020274749141673 0.0039452352786030	0.802162
Nb	0.0003487745101818 0.9950011256122783 0.9828192370206653	2.425046
Nb	0.4999508883145082 0.5028962242116942 0.4817022940714624	2.454674
F	0.9990748806391776 -0.0010258581920790 0.2495329380668085	-0.615439
F	0.5013078378435550 0.5014257605662982 0.7486787493632775	-0.623837
F	0.0919275292279830 0.0822143540910911 0.0089821941584886	-0.572232
F	0.5925881893228186 0.5891537582401652 0.5082262949638369	-0.591641
F	0.9104097211323342 0.9066992569986239 0.0109938229173533	-0.571503
F	0.4075239935162581 0.4167190885707959 0.5086048966414817	-0.592480
F	0.9113767464295937 0.0878915616904581 0.0002246352794541	-0.571355
F	0.4130006195896818 0.5971237063312512 0.5098568639868446	-0.590737
F	0.0899988580011016 0.9035956358845458 0.0175885739635357	-0.568612
F	0.5882221869726948 0.4091954756325042 0.5080025159788470	-0.591879
O	0.0007969136207003 0.9941911781739357 0.7559199790123501	-0.945012
O	0.4987724436202760 0.5031829732271674 0.2543779230418821	-0.961490
	  	
