#======================================================================

# CRYSTAL DATA

#----------------------------------------------------------------------

data_VESTA_phase_1


_pd_phase_name                         NbOFFIVE_1_Co
_cell_length_a                         11.02842
_cell_length_b                         11.02842
_cell_length_c                         8.15028
_cell_angle_alpha                      90
_cell_angle_beta                       90
_cell_angle_gamma                      90
_symmetry_space_group_name_H-M         P 1
_symmetry_Int_Tables_number            1

loop_
_symmetry_equiv_pos_as_xyz
   x, y, z

loop_
   _atom_site_label
   _atom_site_fract_x
   _atom_site_fract_y
   _atom_site_fract_z
   _atom_site_charge
C	0.2592260961625918 0.4573398423724398 0.3697302878054665	0.095771
C	0.1331470737485556 0.4568087786154616 0.3648734048810779	-0.169656
C	0.7407739468374079 0.5426602006275603 0.3697302878054665	0.095770
C	0.8668528722514400 0.5431912213845385 0.3648734048810779	-0.169656
C	0.5426602006275603 0.2592260961625918 0.3697302878054665	0.095771
C	0.5431912213845385 0.1331470737485556 0.3648734048810779	-0.169656
C	0.4573398423724398 0.7407739468374079 0.3697302878054665	0.095770
C	0.4568087786154616 0.8668528722514400 0.3648734048810779	-0.169656
C	0.7415427293749475 0.4566960358201078 0.6300473719928308	0.097915
C	0.8674486623097559 0.4564508998380264 0.6344291724284740	-0.171542
C	0.2584573136250524 0.5433040071798920 0.6300473719928308	0.097915
C	0.1325512836902399 0.5435491001619738 0.6344291724284740	-0.171541
C	0.4566960358201078 0.2584573136250524 0.6300473719928308	0.097916
C	0.4564508998380264 0.1325512836902399 0.6344291724284740	-0.171542
C	0.5433040071798920 0.7415427293749475 0.6300473719928308	0.097916
C	0.5435491001619738 0.8674486623097559 0.6344291724284740	-0.171541
C	0.0670160780340719 0.5000538070438197 0.4994667928355252	0.098180
C	0.9329839429659333 0.4999461929561800 0.4994667928355252	0.098183
C	0.4999461929561800 0.0670160780340719 0.4994667928355252	0.098181
C	0.5000538070438197 0.9329839429659333 0.4994667928355252	0.098183
H	0.3128961932213268 0.4243910504594820 0.2667148918936639	0.103021
H	0.0872791788549885 0.4208784354694055 0.2569878678157311	0.124855
H	0.6871037857786677 0.5756089495405177 0.2667148918936639	0.103022
H	0.9127208051450103 0.5791215645305948 0.2569878678157311	0.124854
H	0.5756089495405177 0.3128961932213268 0.2667148918936639	0.103021
H	0.5791215645305948 0.0872791788549885 0.2569878678157311	0.124858
H	0.4243910504594820 0.6871037857786677 0.2667148918936639	0.103022
H	0.4208784354694055 0.9127208051450103 0.2569878678157311	0.124856
H	0.6880985722383585 0.4234579819623508 0.7329073067817744	0.099408
H	0.9134438965343431 0.4206321477589126 0.7422532552471069	0.124901
H	0.3119014067616360 0.5765420180376493 0.7329073067817744	0.099408
H	0.0865560874656557 0.5793678522410878 0.7422532552471069	0.124899
H	0.4234579819623508 0.3119014067616360 0.7329073067817744	0.099408
H	0.4206321477589126 0.0865560874656557 0.7422532552471069	0.124904
H	0.5765420180376493 0.6880985722383585 0.7329073067817744	0.099408
H	0.5793678522410878 0.9134438965343431 0.7422532552471069	0.124902
Co	0.5000000000000000 0.5000000000000000 0.5040383113892055	0.606593
Nb	0.5000000000000000 0.5000000000000000 -0.0179720346619687	2.411515
O	0.5000000000000000 0.5000000000000000 0.7626571329333485	-0.928062
F	0.5000000000000000 0.5000000000000000 0.2376880655769222	-0.614205
F	0.3749795154035733 0.3740380646277382 0.0057282032135054	-0.592714
F	0.6250205275964267 0.6259619783722619 0.0057282032135054	-0.592707
F	0.6259619783722619 0.3749795154035733 0.0057282032135054	-0.592711
F	0.3740380646277382 0.6250205275964267 0.0057282032135054	-0.592709
N	0.3210771564987598 0.5001923525532650 0.5002586052954664	-0.179107
N	0.6789228865012403 0.4998076474467349 0.5002586052954664	-0.179107
N	0.4998076474467349 0.3210771564987598 0.5002586052954664	-0.179107
N	0.5001923525532650 0.6789228865012403 0.5002586052954664	-0.179107
	  	
