#======================================================================

# CRYSTAL DATA

#----------------------------------------------------------------------

data_VESTA_phase_1


_pd_phase_name                         NbOFFIVE_6_Fe_i
_cell_length_a                         17.53034
_cell_length_b                         17.53034
_cell_length_c                         15.47774
_cell_angle_alpha                      90
_cell_angle_beta                       90
_cell_angle_gamma                      90
_symmetry_space_group_name_H-M         P 1
_symmetry_Int_Tables_number            1

loop_
_symmetry_equiv_pos_as_xyz
   x, y, z

loop_
   _atom_site_label
   _atom_site_fract_x
   _atom_site_fract_y
   _atom_site_fract_z
   _atom_site_charge
N	0.2439175800514116 0.1362114513655245 0.1281457165665366	-0.250676
N	0.2560824199485882 0.3637885616344804 0.1281457165665366	-0.250676
N	0.3637885616344804 0.2439175800514116 0.1281457165665366	-0.250677
N	0.1362114513655245 0.2560824199485882 0.1281457165665366	-0.250677
N	0.7558532751982774 0.6360056980813165 0.3718171365336024	-0.218147
N	0.7441467248017226 0.8639943019186835 0.3718171365336024	-0.218147
N	0.6360056980813165 0.7441467248017226 0.3718171365336024	-0.218148
N	0.8639943019186835 0.7558532751982774 0.3718171365336024	-0.218148
N	0.7558532751982774 0.8639943019186835 0.8718171365336019	-0.218148
N	0.7441467248017226 0.6360056980813165 0.8718171365336019	-0.218148
N	0.6360056980813165 0.7558532751982774 0.8718171365336019	-0.218149
N	0.8639943019186835 0.7441467248017226 0.8718171365336019	-0.218149
N	0.2439175800514116 0.3637885616344804 0.6281457165665363	-0.250677
N	0.2560824199485882 0.1362114513655245 0.6281457165665363	-0.250677
N	0.3637885616344804 0.2560824199485882 0.6281457165665363	-0.250678
N	0.1362114513655245 0.2439175800514116 0.6281457165665363	-0.250678
C	0.1998106952136399 0.0990283245134803 0.1859545418605593	0.098070
C	0.1918231405452566 0.0202946377311045 0.1855043247235627	-0.182032
C	0.2322195772801135 0.9766539072985969 0.1248782407723760	0.107406
C	0.2788615427426704 0.0158300283179933 0.0661460734709380	-0.178136
C	0.2824503829176718 0.0949111887501300 0.0688399544194445	0.099216
C	0.2262011771603081 0.8928744867878776 0.1236488907643018	0.060757
C	0.2913802965695110 0.8482720999697173 0.1207844689887448	-0.173387
C	0.2868609764682837 0.7677691417014950 0.1219730348062424	0.087545
C	0.1470204317295661 0.7789799519965040 0.1246286383120417	-0.124789
C	0.1533917638314679 0.8571559797099463 0.1267414828831380	-0.134936
C	0.3001893177863647 0.4009716554865181 0.1859545418605593	0.098070
C	0.3081768724547480 0.4797053722688892 0.1855043247235627	-0.182032
C	0.2677804227198863 0.5233460927014031 0.1248782407723760	0.107406
C	0.2211384572573295 0.4841699866820044 0.0661460734709380	-0.178136
C	0.2175496170823281 0.4050888042498658 0.0688399544194445	0.099216
C	0.2737988228396919 0.6071255132121224 0.1236488907643018	0.060758
C	0.2086196904304914 0.6517279000302827 0.1207844689887448	-0.173388
C	0.2131390235317164 0.7322308582985050 0.1219730348062424	0.087552
C	0.3529795682704340 0.7210200480034960 0.1246286383120417	-0.124784
C	0.3466082361685319 0.6428440202900537 0.1267414828831380	-0.134937
C	0.4009716554865181 0.1998106952136399 0.1859545418605593	0.098072
C	0.4797053722688892 0.1918231405452566 0.1855043247235627	-0.182031
C	0.5233460927014031 0.2322195772801135 0.1248782407723760	0.107406
C	0.4841699866820044 0.2788615427426704 0.0661460734709380	-0.178136
C	0.4050888042498658 0.2824503829176718 0.0688399544194445	0.099218
C	0.6071255132121224 0.2262011771603081 0.1236488907643018	0.060757
C	0.6517279000302827 0.2913802965695110 0.1207844689887448	-0.173388
C	0.7322308582985050 0.2868609764682837 0.1219730348062424	0.087545
C	0.7210200480034960 0.1470204317295661 0.1246286383120417	-0.124789
C	0.6428440202900537 0.1533917638314679 0.1267414828831380	-0.134936
C	0.0990283245134803 0.3001893177863647 0.1859545418605593	0.098072
C	0.0202946377311045 0.3081768724547480 0.1855043247235627	-0.182032
C	0.9766539072985969 0.2677804227198863 0.1248782407723760	0.107406
C	0.0158300283179933 0.2211384572573295 0.0661460734709380	-0.178135
C	0.0949111887501300 0.2175496170823281 0.0688399544194445	0.099218
C	0.8928744867878776 0.2737988228396919 0.1236488907643018	0.060758
C	0.8482720999697173 0.2086196904304914 0.1207844689887448	-0.173388
C	0.7677691417014950 0.2131390235317164 0.1219730348062424	0.087552
C	0.7789799519965040 0.3529795682704340 0.1246286383120417	-0.124784
C	0.8571559797099463 0.3466082361685319 0.1267414828831380	-0.134937
C	0.8003014886749017 0.5991243410877460 0.3139077412830669	0.086058
C	0.8084070606250437 0.5204394817117945 0.3144579191006079	-0.177600
C	0.7677690149957975 0.4764835220076904 0.3747366856976556	0.107120
C	0.7203955708263063 0.5154793300102125 0.4330501945660320	-0.178890
C	0.7166239798764913 0.5943912807229552 0.4304242566051495	0.092393
C	0.7739297440327154 0.3928674614358041 0.3761936570956650	0.053193
C	0.7087017177774226 0.3482327064870878 0.3794672747532881	-0.177016
C	0.7131244763828726 0.2678094085374529 0.3782466226103855	0.084679
C	0.8530421085988307 0.2788999095225732 0.3753263063401532	-0.124592
C	0.8467327608012942 0.3570614871771186 0.3728739798555848	-0.136133
C	0.6996985113250983 0.9008756589122540 0.3139077412830669	0.086058
C	0.6915929393749563 0.9795605182882055 0.3144579191006079	-0.177598
C	0.7322309850042025 0.0235164999923115 0.3747366856976556	0.107123
C	0.7796044291736937 0.9845207229897883 0.4330501945660320	-0.178891
C	0.7833760201235087 0.9056087192770448 0.4304242566051495	0.092393
C	0.7260702559672846 0.1071325385641959 0.3761936570956650	0.053206
C	0.7912982822225774 0.1517672805129147 0.3794672747532881	-0.177022
C	0.7868755236171274 0.2321905914625471 0.3782466226103855	0.084694
C	0.6469578914011693 0.2211000904774268 0.3753263063401532	-0.124609
C	0.6532672391987058 0.1429384868228793 0.3728739798555848	-0.136150
C	0.5991243410877460 0.6996985113250983 0.3139077412830669	0.086061
C	0.5204394817117945 0.6915929393749563 0.3144579191006079	-0.177600
C	0.4764835220076904 0.7322309850042025 0.3747366856976556	0.107120
C	0.5154793300102125 0.7796044291736937 0.4330501945660320	-0.178890
C	0.5943912807229552 0.7833760201235087 0.4304242566051495	0.092395
C	0.3928674614358041 0.7260702559672846 0.3761936570956650	0.053193
C	0.3482327064870878 0.7912982822225774 0.3794672747532881	-0.177016
C	0.2678094085374529 0.7868755236171274 0.3782466226103855	0.084679
C	0.2788999095225732 0.6469578914011693 0.3753263063401532	-0.124592
C	0.3570614871771186 0.6532672391987058 0.3728739798555848	-0.136133
C	0.9008756589122540 0.8003014886749017 0.3139077412830669	0.086060
C	0.9795605182882055 0.8084070606250437 0.3144579191006079	-0.177599
C	0.0235164999923115 0.7677690149957975 0.3747366856976556	0.107123
C	0.9845207229897883 0.7203955708263063 0.4330501945660320	-0.178891
C	0.9056087192770448 0.7166239798764913 0.4304242566051495	0.092396
C	0.1071325385641959 0.7739297440327154 0.3761936570956650	0.053205
C	0.1517672805129147 0.7087017177774226 0.3794672747532881	-0.177022
C	0.2321905914625471 0.7131244763828726 0.3782466226103855	0.084694
C	0.2211000904774268 0.8530421085988307 0.3753263063401532	-0.124609
C	0.1429384868228793 0.8467327608012942 0.3728739798555848	-0.136150
C	0.8003014886749017 0.9008756589122540 0.8139077092830641	0.086058
C	0.8084070606250437 0.9795605182882055 0.8144579511006036	-0.177599
C	0.7677690149957975 0.0235164999923115 0.8747366856976557	0.107122
C	0.7203955708263063 0.9845207229897883 0.9330502265660278	-0.178890
C	0.7166239798764913 0.9056087192770448 0.9304242246051471	0.092393
C	0.7739297440327154 0.1071325385641959 0.8761935930956669	0.053205
C	0.7087017177774226 0.1517672805129147 0.8794673067532905	-0.177020
C	0.7131244763828726 0.2321905914625471 0.8782465596103912	0.084674
C	0.8530421085988307 0.2211000904774268 0.8753263063401533	-0.124619
C	0.8467327608012942 0.1429384868228793 0.8728739798555848	-0.136148
C	0.6996985113250983 0.5991243410877460 0.8139077092830641	0.086058
C	0.6915929393749563 0.5204394817117945 0.8144579511006036	-0.177600
C	0.7322309850042025 0.4764835220076904 0.8747366856976557	0.107120
C	0.7796044291736937 0.5154793300102125 0.9330502265660278	-0.178889
C	0.7833760201235087 0.5943912807229552 0.9304242246051471	0.092392
C	0.7260702559672846 0.3928674614358041 0.8761935930956669	0.053194
C	0.7912982822225774 0.3482327064870878 0.8794673067532905	-0.177018
C	0.7868755236171274 0.2678094085374529 0.8782465596103912	0.084700
C	0.6469578914011693 0.2788999095225732 0.8753263063401533	-0.124582
C	0.6532672391987058 0.3570614871771186 0.8728739798555848	-0.136134
C	0.5991243410877460 0.8003014886749017 0.8139077092830641	0.086061
C	0.5204394817117945 0.8084070606250437 0.8144579511006036	-0.177601
C	0.4764835220076904 0.7677690149957975 0.8747366856976557	0.107120
C	0.5154793300102125 0.7203955708263063 0.9330502265660278	-0.178889
C	0.5943912807229552 0.7166239798764913 0.9304242246051471	0.092395
C	0.3928674614358041 0.7739297440327154 0.8761935930956669	0.053193
C	0.3482327064870878 0.7087017177774226 0.8794673067532905	-0.177016
C	0.2678094085374529 0.7131244763828726 0.8782465596103912	0.084679
C	0.2788999095225732 0.8530421085988307 0.8753263063401533	-0.124592
C	0.3570614871771186 0.8467327608012942 0.8728739798555848	-0.136132
C	0.9008756589122540 0.6996985113250983 0.8139077092830641	0.086060
C	0.9795605182882055 0.6915929393749563 0.8144579511006036	-0.177599
C	0.0235164999923115 0.7322309850042025 0.8747366856976557	0.107122
C	0.9845207229897883 0.7796044291736937 0.9330502265660278	-0.178891
C	0.9056087192770448 0.7833760201235087 0.9304242246051471	0.092395
C	0.1071325385641959 0.7260702559672846 0.8761935930956669	0.053206
C	0.1517672805129147 0.7912982822225774 0.8794673067532905	-0.177022
C	0.2321905914625471 0.7868755236171274 0.8782465596103912	0.084694
C	0.2211000904774268 0.6469578914011693 0.8753263063401533	-0.124609
C	0.1429384868228793 0.6532672391987058 0.8728739798555848	-0.136149
C	0.1998106952136399 0.4009716554865181 0.6859545418605592	0.098070
C	0.1918231405452566 0.4797053722688892 0.6855042927235675	-0.182032
C	0.2322195772801135 0.5233460927014031 0.6248782327723752	0.107406
C	0.2788615427426704 0.4841699866820044 0.5661460374709424	-0.178136
C	0.2824503829176718 0.4050888042498658 0.5688399864194473	0.099216
C	0.2262011771603081 0.6071255132121224 0.6236489467642994	0.060756
C	0.2913802965695110 0.6517279000302827 0.6207844529887436	-0.173389
C	0.2868609764682837 0.7322308582985050 0.6219730818062430	0.087545
C	0.1470204317295661 0.7210200480034960 0.6246286463120423	-0.124791
C	0.1533917638314679 0.6428440202900537 0.6267414978831432	-0.134936
C	0.3001893177863647 0.0990283245134803 0.6859545418605592	0.098069
C	0.3081768724547480 0.0202946377311045 0.6855042927235675	-0.182032
C	0.2677804227198863 0.9766539072985969 0.6248782327723752	0.107406
C	0.2211384572573295 0.0158300283179933 0.5661460374709424	-0.178136
C	0.2175496170823281 0.0949111887501300 0.5688399864194473	0.099216
C	0.2737988228396919 0.8928744867878776 0.6236489467642994	0.060757
C	0.2086196904304914 0.8482720999697173 0.6207844529887436	-0.173390
C	0.2131390235317164 0.7677691417014950 0.6219730818062430	0.087551
C	0.3529795682704340 0.7789799519965040 0.6246286463120423	-0.124786
C	0.3466082361685319 0.8571559797099463 0.6267414978831432	-0.134937
C	0.4009716554865181 0.3001893177863647 0.6859545418605592	0.098072
C	0.4797053722688892 0.3081768724547480 0.6855042927235675	-0.182032
C	0.5233460927014031 0.2677804227198863 0.6248782327723752	0.107406
C	0.4841699866820044 0.2211384572573295 0.5661460374709424	-0.178135
C	0.4050888042498658 0.2175496170823281 0.5688399864194473	0.099218
C	0.6071255132121224 0.2737988228396919 0.6236489467642994	0.060756
C	0.6517279000302827 0.2086196904304914 0.6207844529887436	-0.173389
C	0.7322308582985050 0.2131390235317164 0.6219730818062430	0.087544
C	0.7210200480034960 0.3529795682704340 0.6246286463120423	-0.124791
C	0.6428440202900537 0.3466082361685319 0.6267414978831432	-0.134936
C	0.0990283245134803 0.1998106952136399 0.6859545418605592	0.098072
C	0.0202946377311045 0.1918231405452566 0.6855042927235675	-0.182031
C	0.9766539072985969 0.2322195772801135 0.6248782327723752	0.107406
C	0.0158300283179933 0.2788615427426704 0.5661460374709424	-0.178135
C	0.0949111887501300 0.2824503829176718 0.5688399864194473	0.099218
C	0.8928744867878776 0.2262011771603081 0.6236489467642994	0.060757
C	0.8482720999697173 0.2913802965695110 0.6207844529887436	-0.173389
C	0.7677691417014950 0.2868609764682837 0.6219730818062430	0.087551
C	0.7789799519965040 0.1470204317295661 0.6246286463120423	-0.124786
C	0.8571559797099463 0.1533917638314679 0.6267414978831432	-0.134936
H	0.1713331948493854 0.1344022281717108 0.2340790150368975	0.091888
H	0.1560782882950390 0.9927534196332093 0.2339688452005994	0.112033
H	0.3109019017821972 0.9847284073147085 0.0171618820413810	0.112379
H	0.3156373046577449 0.1271667717023212 0.0217926767724268	0.095635
H	0.3474850341168378 0.8753769597475823 0.1202146440028995	0.107036
H	0.0910332583301913 0.7517655890336787 0.1253981965397867	0.106613
H	0.1024311484537846 0.8928888315151410 0.1289319652485331	0.097409
H	0.3286667921506170 0.3655977988282877 0.2340790150368975	0.091888
H	0.3439217247049586 0.5072466333667915 0.2339688452005994	0.112033
H	0.1890980852178052 0.5152715386852871 0.0171618820413810	0.112379
H	0.1843626953422551 0.3728332142976777 0.0217926767724268	0.095635
H	0.1525149658831623 0.6246230402524177 0.1202146440028995	0.107035
H	0.4089667216698143 0.7482344109663213 0.1253981965397867	0.106611
H	0.3975688515462154 0.6071111684848590 0.1289319652485331	0.097409
H	0.3655977988282877 0.1713331948493854 0.2340790150368975	0.091888
H	0.5072466333667915 0.1560782882950390 0.2339688452005994	0.112033
H	0.5152715386852871 0.3109019017821972 0.0171618820413810	0.112379
H	0.3728332142976777 0.3156373046577449 0.0217926767724268	0.095635
H	0.6246230402524177 0.3474850341168378 0.1202146440028995	0.107035
H	0.7482344109663213 0.0910332583301913 0.1253981965397867	0.106613
H	0.6071111684848590 0.1024311484537846 0.1289319652485331	0.097409
H	0.1344022281717108 0.3286667921506170 0.2340790150368975	0.091888
H	0.9927534196332093 0.3439217247049586 0.2339688452005994	0.112033
H	0.9847284073147085 0.1890980852178052 0.0171618820413810	0.112379
H	0.1271667717023212 0.1843626953422551 0.0217926767724268	0.095634
H	0.8753769597475823 0.1525149658831623 0.1202146440028995	0.107035
H	0.7517655890336787 0.4089667216698143 0.1253981965397867	0.106611
H	0.8928888315151410 0.3975688515462154 0.1289319652485331	0.097409
H	0.8284198362273291 0.6344049870611791 0.2654059092151250	0.102221
H	0.8444715456380502 0.4930123192333491 0.2662077095994133	0.115653
H	0.6885195722957962 0.4842794278843973 0.4821234032982271	0.117176
H	0.6829916492627586 0.6265438472161301 0.4770779664134402	0.096863
H	0.6526087822158673 0.3753726141571500 0.3800459696408802	0.105805
H	0.9090406971770538 0.2516623930719014 0.3746493448384704	0.106402
H	0.8977023231302267 0.3927719443254544 0.3705394597993852	0.097152
H	0.6715801637726709 0.8655950129388209 0.2654059092151250	0.102221
H	0.6555284543619498 0.0069876457666445 0.2662077095994133	0.115654
H	0.8114804277042038 0.0157205991156085 0.4821234032982271	0.117176
H	0.8170083507372414 0.8734561527838699 0.4770779664134402	0.096864
H	0.8473912177841327 0.1246273858428500 0.3800459696408802	0.105804
H	0.5909593028229462 0.2483376069280986 0.3746493448384704	0.106403
H	0.6022976768697733 0.1072280556745457 0.3705394597993852	0.097175
H	0.6344049870611791 0.6715801637726709 0.2654059092151250	0.102221
H	0.4930123192333492 0.6555284543619498 0.2662077095994133	0.115653
H	0.4842794278843973 0.8114804277042038 0.4821234032982271	0.117176
H	0.6265438472161301 0.8170083507372414 0.4770779664134402	0.096863
H	0.3753726141571500 0.8473912177841327 0.3800459696408802	0.105804
H	0.2516623930719014 0.5909593028229462 0.3746493448384704	0.106402
H	0.3927719443254544 0.6022976768697733 0.3705394597993852	0.097152
H	0.8655950129388209 0.8284198362273291 0.2654059092151250	0.102221
H	0.0069876457666445 0.8444715456380502 0.2662077095994133	0.115654
H	0.0157205991156085 0.6885195722957962 0.4821234032982271	0.117176
H	0.8734561527838699 0.6829916492627586 0.4770779664134402	0.096863
H	0.1246273858428500 0.6526087822158673 0.3800459696408802	0.105803
H	0.2483376069280986 0.9090406971770538 0.3746493448384704	0.106402
H	0.1072280556745457 0.8977023231302267 0.3705394597993852	0.097173
H	0.8284198362273291 0.8655950129388209 0.7654058942151202	0.102221
H	0.8444715456380502 0.0069876457666445 0.7662077255994145	0.115656
H	0.6885195722957962 0.0157205991156085 0.9821234032982271	0.117174
H	0.6829916492627586 0.8734561527838699 0.9770779664134400	0.096864
H	0.6526087822158673 0.1246273858428500 0.8800459386408739	0.105806
H	0.9090406971770538 0.2483376069280986 0.8746493448384701	0.106405
H	0.8977023231302267 0.1072280556745457 0.8705394917993805	0.097173
H	0.6715801637726709 0.6344049870611791 0.7654058942151202	0.102221
H	0.6555284543619498 0.4930123192333491 0.7662077255994145	0.115656
H	0.8114804277042038 0.4842794278843973 0.9821234032982271	0.117175
H	0.8170083507372414 0.6265438472161301 0.9770779664134400	0.096864
H	0.8473912177841327 0.3753726141571500 0.8800459386408739	0.105805
H	0.5909593028229462 0.2516623930719014 0.8746493448384701	0.106400
H	0.6022976768697733 0.3927719443254544 0.8705394917993805	0.097152
H	0.6344049870611791 0.8284198362273291 0.7654058942151202	0.102221
H	0.4930123192333492 0.8444715456380502 0.7662077255994145	0.115656
H	0.4842794278843973 0.6885195722957962 0.9821234032982271	0.117174
H	0.6265438472161301 0.6829916492627586 0.9770779664134400	0.096863
H	0.3753726141571500 0.6526087822158673 0.8800459386408739	0.105805
H	0.2516623930719014 0.9090406971770538 0.8746493448384701	0.106402
H	0.3927719443254544 0.8977023231302267 0.8705394917993805	0.097151
H	0.8655950129388209 0.6715801637726709 0.7654058942151202	0.102221
H	0.0069876457666445 0.6555284543619498 0.7662077255994145	0.115656
H	0.0157205991156085 0.8114804277042038 0.9821234032982271	0.117174
H	0.8734561527838699 0.8170083507372414 0.9770779664134400	0.096863
H	0.1246273858428500 0.8473912177841327 0.8800459386408739	0.105804
H	0.2483376069280986 0.5909593028229462 0.8746493448384701	0.106403
H	0.1072280556745457 0.6022976768697733 0.8705394917993805	0.097173
H	0.1713331948493854 0.3655977988282877 0.7340790300369022	0.091889
H	0.1560782882950390 0.5072466333667915 0.7339688292005980	0.112033
H	0.3109019017821972 0.5152715386852871 0.5171619190413805	0.112380
H	0.3156373046577449 0.3728332142976777 0.5217926627724256	0.095635
H	0.3474850341168378 0.6246230402524177 0.6202146680029013	0.107034
H	0.0910332583301913 0.7482344109663213 0.6253981885397858	0.106613
H	0.1024311484537846 0.6071111684848590 0.6289319492485392	0.097407
H	0.3286667921506170 0.1344022281717108 0.7340790300369022	0.091888
H	0.3439217247049586 0.9927534196332093 0.7339688292005980	0.112033
H	0.1890980852178052 0.9847284073147085 0.5171619190413805	0.112380
H	0.1843626953422551 0.1271667717023212 0.5217926627724256	0.095635
H	0.1525149658831623 0.8753769597475823 0.6202146680029013	0.107034
H	0.4089667216698143 0.7517655890336787 0.6253981885397858	0.106611
H	0.3975688515462154 0.8928888315151410 0.6289319492485392	0.097406
H	0.3655977988282877 0.3286667921506170 0.7340790300369022	0.091888
H	0.5072466333667915 0.3439217247049586 0.7339688292005980	0.112033
H	0.5152715386852871 0.1890980852178052 0.5171619190413805	0.112380
H	0.3728332142976777 0.1843626953422551 0.5217926627724256	0.095635
H	0.6246230402524177 0.1525149658831623 0.6202146680029013	0.107034
H	0.7482344109663213 0.4089667216698143 0.6253981885397858	0.106612
H	0.6071111684848590 0.3975688515462154 0.6289319492485392	0.097406
H	0.1344022281717108 0.1713331948493854 0.7340790300369022	0.091888
H	0.9927534196332093 0.1560782882950390 0.7339688292005980	0.112033
H	0.9847284073147085 0.3109019017821972 0.5171619190413805	0.112380
H	0.1271667717023212 0.3156373046577449 0.5217926627724256	0.095635
H	0.8753769597475823 0.3474850341168378 0.6202146680029013	0.107033
H	0.7517655890336787 0.0910332583301913 0.6253981885397858	0.106611
H	0.8928888315151410 0.1024311484537846 0.6289319492485392	0.097406
F	0.3131767186189968 0.1583496570949664 0.3824146781412244	-0.589166
F	0.1868232813810031 0.3416503429050335 0.3824146781412244	-0.589166
F	0.3416503429050336 0.3131767186189968 0.3824146781412244	-0.589166
F	0.1583496570949664 0.1868232813810031 0.3824146781412244	-0.589166
F	0.6869338434138480 0.6581976245684094 0.1258798495843053	-0.590189
F	0.8130661565861520 0.8418023754315906 0.1258798495843053	-0.590189
F	0.6581976245684094 0.8130661565861520 0.1258798495843053	-0.590189
F	0.8418023754315906 0.6869338434138480 0.1258798495843053	-0.590188
F	0.6869338434138480 0.8418023754315906 0.6258798415843049	-0.590189
F	0.8130661565861520 0.6581976245684094 0.6258798415843049	-0.590188
F	0.6581976245684094 0.6869338434138480 0.6258798415843049	-0.590188
F	0.8418023754315906 0.8130661565861520 0.6258798415843049	-0.590189
F	0.3131767186189968 0.3416503429050336 0.8824146781412247	-0.589167
F	0.1868232813810031 0.1583496570949664 0.8824146781412247	-0.589166
F	0.3416503429050336 0.1868232813810031 0.8824146781412247	-0.589166
F	0.1583496570949664 0.3131767186189968 0.8824146781412247	-0.589167
F	0.2500000000000000 0.2500000000000000 0.5032001147044224	-0.587124
F	0.7500000000000000 0.7500000000000000 0.2457159790216301	-0.583471
F	0.7500000000000000 0.7500000000000000 0.7457160100216292	-0.583472
F	0.2500000000000000 0.2500000000000000 0.0032001467044180	-0.587124
O	0.2500000000000000 0.2500000000000000 0.2534213821261727	-0.923590
O	0.7500000000000000 0.7500000000000000 -0.0026132738468018	-0.933194
O	0.7500000000000000 0.7500000000000000 0.4973867311531949	-0.933194
O	0.2500000000000000 0.2500000000000000 0.7534213671261677	-0.923592
Fe	0.2500000000000000 0.2500000000000000 0.1298795815473054	0.879334
Fe	0.7500000000000000 0.7500000000000000 0.3739256793817058	0.838384
Fe	0.7500000000000000 0.7500000000000000 0.8739256153817008	0.838386
Fe	0.2500000000000000 0.2500000000000000 0.6298796295473094	0.879337
Nb	0.2500000000000000 0.2500000000000000 0.3688008984081347	2.447296
Nb	0.7500000000000000 0.7500000000000000 0.1131151681291594	2.442272
Nb	0.7500000000000000 0.7500000000000000 0.6131151841291540	2.442272
Nb	0.2500000000000000 0.2500000000000000 0.8688008984081350	2.447297
	  	
