#======================================================================

# CRYSTAL DATA

#----------------------------------------------------------------------

data_VESTA_phase_1


_pd_phase_name                         NbOFFIVE_4_Fe_i
_cell_length_a                         23.59317
_cell_length_b                         20.91177
_cell_length_c                         10.93402
_cell_angle_alpha                      90
_cell_angle_beta                       90
_cell_angle_gamma                      90
_symmetry_space_group_name_H-M         P 1
_symmetry_Int_Tables_number            1

loop_
_symmetry_equiv_pos_as_xyz
   x, y, z

loop_
   _atom_site_label
   _atom_site_fract_x
   _atom_site_fract_y
   _atom_site_fract_z
   _atom_site_charge
C	0.4142303749619425 0.5908754436618581 0.6445786947576713	0.096766
C	0.3713380205764190 0.5457167524839533 0.6434807522069639	-0.165158
C	0.2776243294600100 0.4509454653133106 0.6441844559793972	-0.108946
C	0.2326067400212700 0.4083760049115076 0.6435327658189656	-0.112927
C	0.1346883199160931 0.3206522948148359 0.6420380566183266	-0.174861
C	0.0888269192338210 0.2792528949005074 0.6439186615031240	0.092754
C	0.9142304169619391 0.0908754436618581 0.6445786947576713	0.096765
C	0.8713380625764228 0.0457167464839530 0.6434807522069639	-0.165156
C	0.7776243504600084 0.9509455113133146 0.6441844559793972	-0.108929
C	0.7326067600212719 0.9083760509115042 0.6435327658189656	-0.112982
C	0.6346883199160933 0.8206522948148358 0.6420380566183266	-0.174860
C	0.5888269142338168 0.7792529419005079 0.6439186615031240	0.092754
C	0.5857696250380573 0.4091245563381349 0.1445786557576718	0.096766
C	0.6286619794235807 0.4542832475160465 0.1434807362069622	-0.165158
C	0.7223756495399916 0.5490545346866892 0.1441844869793965	-0.108946
C	0.7673932399787281 0.5916239950884925 0.1435328118189620	-0.112927
C	0.8653117210839065 0.6793476581851638 0.1420380716183315	-0.174869
C	0.9111731277661795 0.7207470580994921 0.1439186775031255	0.092763
C	0.0857696300380613 0.9091245103381452 0.1445786557576718	0.096766
C	0.1286619584235758 0.9542832015160500 0.1434807362069622	-0.165158
C	0.2223756495399916 0.0490545296866852 0.1441844869793965	-0.108946
C	0.2673932599787299 0.0916239830884988 0.1435328118189620	-0.112927
C	0.3653116800839069 0.1793477051851642 0.1420380716183315	-0.174866
C	0.4111730857661830 0.2207470820994942 0.1439186775031255	0.092756
C	0.5855582038806196 0.5929093118752212 0.8550883141149870	0.097612
C	0.6287657284000090 0.5479089464195106 0.8596888142031210	-0.165959
C	0.7219923765842426 0.4502823617987720 0.8620394905393767	-0.108832
C	0.7671231111180311 0.4077006891173421 0.8624072167924808	-0.112131
C	0.8657960072373848 0.3191278399125287 0.8603405500462171	-0.176037
C	0.9117403552293076 0.2776205628694042 0.8551717747479297	0.094600
C	0.0855582088806233 0.0929093118752215 0.8550883141149870	0.097612
C	0.1287657074000037 0.0479089404195100 0.8596888142031210	-0.165959
C	0.2219923765842428 0.9502824077987760 0.8620394905393767	-0.108833
C	0.2671231311180333 0.9077007351173385 0.8624072167924808	-0.112133
C	0.3657959662373848 0.8191278399125289 0.8603405500462171	-0.176037
C	0.4117403132293116 0.7776206098694047 0.8551717747479297	0.094600
C	0.4144417961193808 0.4070906881247784 0.3550883451149858	0.097613
C	0.3712342715999911 0.4520910535804893 0.3596888762031193	-0.165960
C	0.2780076024157591 0.5497176382012278 0.3620394905393763	-0.108832
C	0.2328768688819668 0.5922993108826582 0.3624071857924892	-0.112132
C	0.1342040337626153 0.6808721130874708 0.3603404880462190	-0.176028
C	0.0882596917706925 0.7223793901305953 0.3551717127479251	0.094608
C	0.9144418381193767 0.9070906421247821 0.3550883451149858	0.097613
C	0.8712343135999945 0.9520910075804927 0.3596888762031193	-0.165959
C	0.7780076234157574 0.0497176332012241 0.3620394905393763	-0.108832
C	0.7328768888819689 0.0922992988826641 0.3624071857924892	-0.112132
C	0.6342040337626150 0.1808721600874712 0.3603404880462190	-0.176028
C	0.5882596867706887 0.2223794141305973 0.3551717127479251	0.094608
C	0.5855582038806196 0.4070906881247784 0.3550883451149858	0.097613
C	0.6287657284000090 0.4520910535804893 0.3596888762031193	-0.165960
C	0.7219923765842426 0.5497176382012278 0.3620394905393763	-0.108832
C	0.7671231111180311 0.5922993108826582 0.3624071857924892	-0.112132
C	0.8657960072373848 0.6808721130874708 0.3603404880462190	-0.176028
C	0.9117403552293076 0.7223793901305953 0.3551717127479251	0.094607
C	0.0855582088806233 0.9070906421247821 0.3550883451149858	0.097613
C	0.1287657074000037 0.9520910075804927 0.3596888762031193	-0.165959
C	0.2219923765842428 0.0497176332012241 0.3620394905393763	-0.108832
C	0.2671231311180333 0.0922992988826641 0.3624071857924892	-0.112132
C	0.3657959662373848 0.1808721600874712 0.3603404880462190	-0.176028
C	0.4117403132293116 0.2223794141305973 0.3551717127479251	0.094608
C	0.4144417961193808 0.5929093118752212 0.8550883141149870	0.097612
C	0.3712342715999911 0.5479089464195106 0.8596888142031210	-0.165959
C	0.2780076024157591 0.4502823617987720 0.8620394905393767	-0.108832
C	0.2328768688819668 0.4077006891173421 0.8624072167924808	-0.112131
C	0.1342040337626153 0.3191278399125287 0.8603405500462171	-0.176037
C	0.0882596917706925 0.2776205628694042 0.8551717747479297	0.094600
C	0.9144418381193767 0.0929093118752215 0.8550883141149870	0.097612
C	0.8712343135999945 0.0479089404195100 0.8596888142031210	-0.165959
C	0.7780076234157574 0.9502824077987760 0.8620394905393767	-0.108833
C	0.7328768888819689 0.9077007351173385 0.8624072167924808	-0.112133
C	0.6342040337626150 0.8191278399125289 0.8603405500462171	-0.176038
C	0.5882596867706887 0.7776206098694047 0.8551717747479297	0.094600
C	0.4142303749619425 0.4091245563381349 0.1445786557576718	0.096766
C	0.3713380205764190 0.4542832475160465 0.1434807362069622	-0.165158
C	0.2776243294600100 0.5490545346866892 0.1441844869793965	-0.108946
C	0.2326067400212700 0.5916239950884925 0.1435328118189620	-0.112927
C	0.1346883199160931 0.6793476581851638 0.1420380716183315	-0.174866
C	0.0888269192338210 0.7207470580994921 0.1439186775031255	0.092755
C	0.9142304169619391 0.9091245103381452 0.1445786557576718	0.096766
C	0.8713380625764228 0.9542832015160500 0.1434807362069622	-0.165158
C	0.7776243504600084 0.0490545296866852 0.1441844869793965	-0.108946
C	0.7326067600212719 0.0916239830884988 0.1435328118189620	-0.112927
C	0.6346883199160933 0.1793477051851642 0.1420380716183315	-0.174866
C	0.5888269142338168 0.2207470820994942 0.1439186775031255	0.092755
C	0.5857696250380573 0.5908754436618581 0.6445786947576713	0.096766
C	0.6286619794235807 0.5457167524839533 0.6434807522069639	-0.165158
C	0.7223756495399916 0.4509454653133106 0.6441844559793972	-0.108946
C	0.7673932399787281 0.4083760049115076 0.6435327658189656	-0.112927
C	0.8653117210839065 0.3206522948148359 0.6420380566183266	-0.174864
C	0.9111731277661795 0.2792528949005074 0.6439186615031240	0.092761
C	0.0857696300380613 0.0908754436618581 0.6445786947576713	0.096765
C	0.1286619584235758 0.0457167464839530 0.6434807522069639	-0.165156
C	0.2223756495399916 0.9509455113133146 0.6441844559793972	-0.108929
C	0.2673932599787299 0.9083760509115042 0.6435327658189656	-0.112982
C	0.3653116800839069 0.8206522948148358 0.6420380566183266	-0.174860
C	0.4111730857661830 0.7792529419005079 0.6439186615031240	0.092753
C	0.3479221662558751 0.5219287992947690 0.7524481307397010	0.116231
C	0.3014878793719342 0.4742927896958609 0.7531517341083211	0.072086
C	0.2082688331108558 0.3859455937903711 0.7528261597498831	0.062551
C	0.1592497891145522 0.3419368011845667 0.7520404570285645	0.103288
C	0.8479222072558679 0.0219287972947689 0.7524481307397010	0.116234
C	0.8014879423719357 0.9742928356958649 0.7531517341083211	0.072089
C	0.7082688331108556 0.8859455937903710 0.7528261597498831	0.062563
C	0.6592498101145504 0.8419368011845665 0.7520404570285645	0.103287
C	0.6520778337441320 0.4780712007052308 0.2524481157397034	0.116232
C	0.6985120576280643 0.5257071643041351 0.2531517191083236	0.072085
C	0.7917311668891444 0.6140544062096290 0.2528261447498850	0.062549
C	0.8407501898854496 0.6580631988154335 0.2520404420285740	0.103316
C	0.1520778237441313 0.9780711537052307 0.2524481157397034	0.116232
C	0.1985120996280603 0.0257072013041347 0.2531517191083236	0.072085
C	0.2917311668891443 0.1140544172096333 0.2528261447498850	0.062549
C	0.3407502108854479 0.1580632218154319 0.2520404420285740	0.103315
C	0.6520778337441320 0.5219287992947690 0.7524481307397010	0.116231
C	0.6985120576280643 0.4742927896958609 0.7531517341083211	0.072086
C	0.7917311668891444 0.3859455937903711 0.7528261597498831	0.062551
C	0.8407501898854496 0.3419368011845667 0.7520404570285645	0.103288
C	0.1520778237441313 0.0219287972947689 0.7524481307397010	0.116234
C	0.1985120996280603 0.9742928356958649 0.7531517341083211	0.072089
C	0.2917311668891443 0.8859455937903710 0.7528261597498831	0.062563
C	0.3407502108854479 0.8419368011845665 0.7520404570285645	0.103288
C	0.3479221662558751 0.4780712007052308 0.2524481157397034	0.116232
C	0.3014878793719342 0.5257071643041351 0.2531517191083236	0.072085
C	0.2082688331108558 0.6140544062096290 0.2528261447498850	0.062549
C	0.1592497891145522 0.6580631988154335 0.2520404420285740	0.103315
C	0.8479222072558679 0.9780711537052307 0.2524481157397034	0.116232
C	0.8014879423719357 0.0257072013041347 0.2531517191083236	0.072086
C	0.7082688331108556 0.1140544172096333 0.2528261447498850	0.062549
C	0.6592498101145504 0.1580632218154319 0.2520404420285740	0.103315
H	0.4324039052821864 0.6095661754210854 0.5600765738106064	0.110115
H	0.3567696496664660 0.5298766420601547 0.5547764058101042	0.095581
H	0.2940339288411038 0.4658029098344080 0.5561225353839225	0.082521
H	0.2163278582401097 0.3928409872025622 0.5552014238597063	0.104015
H	0.1507209161930200 0.3358107109742068 0.5534243905636271	0.118851
H	0.0693115229440246 0.2617590093047761 0.5598269727890346	0.111127
H	0.9324039052821863 0.1095661524210869 0.5600765738106064	0.110114
H	0.8567696496664590 0.0298766620601491 0.5547764058101042	0.095581
H	0.7940338668411052 0.9658029098344081 0.5561225353839225	0.082532
H	0.7163278372401113 0.8928410342025627 0.5552014238597063	0.104025
H	0.6507209161930196 0.8358107339742049 0.5534243905636271	0.118852
H	0.5693115079440269 0.7617590093047762 0.5598269727890346	0.111127
H	0.5675960947178137 0.3904338475789130 0.0600765438106039	0.110114
H	0.6432303503335410 0.4701233579398456 0.0547764058101039	0.095581
H	0.7059661331588948 0.5341970901655919 0.0561225973839278	0.082521
H	0.7836721627598887 0.6071590127974377 0.0552013928597005	0.104016
H	0.8492790418069769 0.6641893130257954 0.0534244215636260	0.118851
H	0.9306885340559695 0.7382409906952238 0.0598269417890354	0.111120
H	0.0675960797178087 0.8904338705789184 0.0600765438106039	0.110114
H	0.1432303813335402 0.9701233119398486 0.0547764058101039	0.095581
H	0.2059660921588946 0.0341970961655924 0.0561225973839278	0.082521
H	0.2836721627598886 0.1071590007974367 0.0552013928597005	0.104016
H	0.3492790838069800 0.1641893010257942 0.0534244215636260	0.118851
H	0.4306884510559733 0.2382409666952217 0.0598269417890354	0.111127
H	0.5671357334819724 0.6128703922332625 0.9383636135063983	0.099386
H	0.6435122266912890 0.5343247410884044 0.9497066182927073	0.097264
H	0.7050324565353320 0.4643962716555922 0.9501187209295492	0.083077
H	0.7832748391669387 0.3915701259586396 0.9505774765240789	0.104237
H	0.8502501147326008 0.3330208468916592 0.9502019741474561	0.119332
H	0.9315404379454202 0.2591011659426138 0.9382031311902878	0.100003
H	0.0671357184819676 0.1128703692332643 0.9383636135063983	0.099386
H	0.1435122576912879 0.0343247610883992 0.9497066182927073	0.097264
H	0.2050324155353321 0.9643962716555923 0.9501187209295492	0.083077
H	0.2832748391669386 0.8915701729586398 0.9505774765240789	0.104237
H	0.3502501567326040 0.8330208698916578 0.9502019741474561	0.119332
H	0.4315403549454244 0.7591011659426137 0.9382031311902878	0.100003
H	0.4328642665180275 0.3871296307667358 0.4383636345063961	0.099385
H	0.3564877733087111 0.4656752589115953 0.4497066432926983	0.097264
H	0.2949676054646663 0.5356037283444077 0.4501186979295506	0.083077
H	0.2167251818330596 0.6084298740413605 0.4505775205240755	0.104241
H	0.1497498432673959 0.6669791771083425 0.4502019241474517	0.119292
H	0.0684596190545735 0.7408988340573863 0.4382031151902935	0.100001
H	0.9328642665180276 0.8871296537667414 0.4383636345063961	0.099385
H	0.8564877733087110 0.9656752129115989 0.4497066432926983	0.097262
H	0.7949675434646680 0.0356037343444081 0.4501186979295506	0.083077
H	0.7167251608330613 0.1084298620413596 0.4505775205240755	0.104241
H	0.6497498432673957 0.1669791651083417 0.4502019241474517	0.119292
H	0.5684596040545762 0.2408988100573843 0.4382031151902935	0.100001
H	0.5671357334819724 0.3871296307667358 0.4383636345063961	0.099385
H	0.6435122266912890 0.4656752589115953 0.4497066432926983	0.097264
H	0.7050324565353320 0.5356037283444077 0.4501186979295506	0.083077
H	0.7832748391669387 0.6084298740413605 0.4505775205240755	0.104241
H	0.8502501147326008 0.6669791771083425 0.4502019241474517	0.119292
H	0.9315404379454202 0.7408988340573863 0.4382031151902935	0.100001
H	0.0671357184819676 0.8871296537667414 0.4383636345063961	0.099385
H	0.1435122576912879 0.9656752129115989 0.4497066432926983	0.097262
H	0.2050324155353321 0.0356037343444081 0.4501186979295506	0.083077
H	0.2832748391669386 0.1084298620413596 0.4505775205240755	0.104241
H	0.3502501567326040 0.1669791651083417 0.4502019241474517	0.119292
H	0.4315403549454244 0.2408988100573843 0.4382031151902935	0.100001
H	0.4328642665180275 0.6128703922332625 0.9383636135063983	0.099386
H	0.3564877733087111 0.5343247410884044 0.9497066182927073	0.097264
H	0.2949676054646663 0.4643962716555922 0.9501187209295492	0.083077
H	0.2167251818330596 0.3915701259586396 0.9505774765240789	0.104237
H	0.1497498432673959 0.3330208468916592 0.9502019741474561	0.119332
H	0.0684596190545735 0.2591011659426138 0.9382031311902878	0.100003
H	0.9328642665180276 0.1128703692332643 0.9383636135063983	0.099386
H	0.8564877733087110 0.0343247610883992 0.9497066182927073	0.097264
H	0.7949675434646680 0.9643962716555924 0.9501187209295492	0.083077
H	0.7167251608330613 0.8915701729586398 0.9505774765240789	0.104237
H	0.6497498432673957 0.8330208698916578 0.9502019741474561	0.119332
H	0.5684596040545762 0.7591011659426137 0.9382031311902878	0.100003
H	0.4324039052821864 0.3904338475789130 0.0600765438106039	0.110114
H	0.3567696496664660 0.4701233579398456 0.0547764058101039	0.095581
H	0.2940339288411038 0.5341970901655919 0.0561225973839278	0.082521
H	0.2163278582401097 0.6071590127974377 0.0552013928597005	0.104016
H	0.1507209161930200 0.6641893130257954 0.0534244215636260	0.118851
H	0.0693115229440246 0.7382409906952238 0.0598269417890354	0.111128
H	0.9324039052821863 0.8904338705789184 0.0600765438106039	0.110114
H	0.8567696496664590 0.9701233119398486 0.0547764058101039	0.095581
H	0.7940338668411052 0.0341970961655924 0.0561225973839278	0.082521
H	0.7163278372401113 0.1071590007974367 0.0552013928597005	0.104016
H	0.6507209161930196 0.1641893010257942 0.0534244215636260	0.118851
H	0.5693115079440269 0.2382409666952217 0.0598269417890354	0.111128
H	0.5675960947178137 0.6095661754210854 0.5600765738106064	0.110115
H	0.6432303503335410 0.5298766420601547 0.5547764058101042	0.095581
H	0.7059661331588948 0.4658029098344080 0.5561225353839225	0.082521
H	0.7836721627598887 0.3928409872025622 0.5552014238597063	0.104015
H	0.8492790418069769 0.3358107109742068 0.5534243905636271	0.118851
H	0.9306885340559695 0.2617590093047761 0.5598269727890346	0.111121
H	0.0675960797178087 0.1095661524210869 0.5600765738106064	0.110115
H	0.1432303813335402 0.0298766620601491 0.5547764058101042	0.095581
H	0.2059660921588946 0.9658029098344081 0.5561225353839225	0.082532
H	0.2836721627598886 0.8928410342025627 0.5552014238597063	0.104025
H	0.3492790838069800 0.8358107339742049 0.5534243905636271	0.118852
H	0.4306884510559733 0.7617590093047762 0.5598269727890346	0.111128
Fe	0.5000000000000000 0.6868948677175115 0.7261596995870447	0.576166
Fe	-0.0000000000000000 0.1868948677175042 0.7261596995870447	0.576166
Fe	0.5000000000000000 0.3131051322824956 0.2261596845870472	0.576166
Fe	-0.0000000000000000 0.8131050852824881 0.2261596845870472	0.576165
F	0.5000000000000000 0.6867463654979805 0.5522244699941045	-0.584658
F	-0.0000000000000000 0.1867463994979831 0.5522244699941045	-0.584653
F	0.5000000000000000 0.3132536115020214 0.0522244389941054	-0.584658
F	-0.0000000000000000 0.8132535885020228 0.0522244389941054	-0.584654
F	0.4437884890292866 0.7434059975530867 0.2339811132914215	-0.590761
F	0.5560408777924094 0.6168485907961962 0.2295547233102852	-0.587308
F	0.9437884890292864 0.2434060435530833 0.2339811132914215	-0.590759
F	0.0560408777924096 0.1168486027961971 0.2295547233102852	-0.587312
F	0.5562115109707136 0.2565939564469167 0.7339811282914194	-0.590763
F	0.4439591222075904 0.3831514092037968 0.7295547383102828	-0.587306
F	0.0562114899707152 0.7565940024469133 0.7339811282914194	-0.590776
F	0.9439591222075906 0.8831514552038076 0.7295547383102828	-0.587310
F	0.5562115109707136 0.7434059975530867 0.2339811132914215	-0.590761
F	0.4439591222075904 0.6168485907961962 0.2295547233102852	-0.587308
F	0.0562114899707152 0.2434060435530833 0.2339811132914215	-0.590775
F	0.9439591222075906 0.1168486027961971 0.2295547233102852	-0.587312
F	0.4437884890292866 0.2565939564469167 0.7339811282914194	-0.590763
F	0.5560408777924094 0.3831514092037968 0.7295547383102828	-0.587306
F	0.9437884890292864 0.7565940024469133 0.7339811282914194	-0.590760
F	0.0560408777924096 0.8831514552038076 0.7295547383102828	-0.587310
O	0.5000000000000000 0.6826250041755973 0.0250432603538093	-0.904931
O	-0.0000000000000000 0.1826250381756004 0.0250432603538093	-0.904936
O	0.5000000000000000 0.3173749728244041 0.5250432833538073	-0.904931
O	-0.0000000000000000 0.8173749498244059 0.5250432833538073	-0.904936
N	0.4359814187428390 0.6146063178265605 0.7491109408633881	-0.189951
N	0.5656558619404805 0.7575323402578794 0.7488443575164205	-0.198233
N	0.9359814597428388 0.1146063288265578 0.7491109408633881	-0.189951
N	0.0656558779404820 0.2575322932578786 0.7488443575164205	-0.198233
N	0.5640185812571611 0.3853936591734411 0.2491109258633907	-0.189953
N	0.4343441380595193 0.2424676827421193 0.2488443425164230	-0.198232
N	0.0640185812571612 0.8853936821734395 0.2491109258633907	-0.189952
N	0.9343441380595195 0.7424676597421206 0.2488443425164230	-0.198232
N	0.5640185812571611 0.6146063178265605 0.7491109408633881	-0.189951
N	0.4343441380595193 0.7575323402578794 0.7488443575164205	-0.198233
N	0.0640185812571612 0.1146063288265578 0.7491109408633881	-0.189951
N	0.9343441380595195 0.2575322932578786 0.7488443575164205	-0.198233
N	0.4359814187428390 0.3853936591734411 0.2491109258633907	-0.189953
N	0.5656558619404805 0.2424676827421193 0.2488443425164230	-0.198232
N	0.9359814597428388 0.8853936821734395 0.2491109258633907	-0.189953
N	0.0656558779404820 0.7424676597421206 0.2488443425164230	-0.198233
Nb	0.5000000000000000 0.6807445296759440 0.1865188275769617	2.372842
Nb	-0.0000000000000000 0.1807445756759406 0.1865188275769617	2.372865
Nb	0.5000000000000000 0.3192554243240595 0.6865188425769595	2.372842
Nb	-0.0000000000000000 0.8192554703240560 0.6865188425769595	2.372865
	  	
