#======================================================================

# CRYSTAL DATA

#----------------------------------------------------------------------

data_VESTA_phase_1


_pd_phase_name                         NbOFFIVE_3_Fe
_cell_length_a                         14.51846
_cell_length_b                         14.51846
_cell_length_c                         7.96394
_cell_angle_alpha                      90
_cell_angle_beta                       90
_cell_angle_gamma                      90
_symmetry_space_group_name_H-M         P 1
_symmetry_Int_Tables_number            1

loop_
_symmetry_equiv_pos_as_xyz
   x, y, z

loop_
   _atom_site_label
   _atom_site_fract_x
   _atom_site_fract_y
   _atom_site_fract_z
   _atom_site_charge
C	0.2712408693554911 0.4521119799769365 0.6376119027447970	0.063017
C	0.2287591136445110 0.0478880250230676 0.6376119027447970	0.063017
C	0.2293492396450167 0.4520053339736055 0.3597748024536352	0.061907
C	0.2706507433549856 0.0479946710263985 0.3597748024536352	0.061907
C	0.0479946710263985 0.2706507433549856 0.3597748024536352	0.061912
C	0.4520053339736055 0.2293492396450167 0.3597748024536352	0.061912
C	0.4521119799769365 0.2712408693554911 0.6376119027447970	0.063035
C	0.0478880250230676 0.2287591136445110 0.6376119027447970	0.063035
C	0.9521120139769320 0.2287591136445110 0.6376119027447970	0.063063
C	0.5478879860230680 0.2712408693554911 0.6376119027447970	0.063063
C	0.5479946320263989 0.2293492396450167 0.3597748024536352	0.061937
C	0.9520053679736011 0.2706507433549856 0.3597748024536352	0.061937
C	0.7293492226450121 0.0479946710263985 0.3597748024536352	0.061912
C	0.7706507773549879 0.4520053339736055 0.3597748024536352	0.061912
C	0.7712409033554939 0.0478880250230676 0.6376119027447970	0.063035
C	0.7287590966445061 0.4521119799769365 0.6376119027447970	0.063035
C	0.4521119799769365 0.7287590966445061 0.6376119027447970	0.063019
C	0.0478880250230676 0.7712409033554939 0.6376119027447970	0.063019
C	0.0479946710263985 0.7293492226450121 0.3597748024536352	0.061908
C	0.4520053339736055 0.7706507773549879 0.3597748024536352	0.061908
C	0.2293492396450167 0.5479946320263989 0.3597748024536352	0.061941
C	0.2706507433549856 0.9520053679736011 0.3597748024536352	0.061941
C	0.2712408693554911 0.5478879860230680 0.6376119027447970	0.063078
C	0.2287591136445110 0.9521120139769320 0.6376119027447970	0.063078
C	0.7712409033554939 0.9521120139769320 0.6376119027447970	0.063063
C	0.7287590966445061 0.5478879860230680 0.6376119027447970	0.063063
C	0.7293492226450121 0.9520053679736011 0.3597748024536352	0.061937
C	0.7706507773549879 0.5479946320263989 0.3597748024536352	0.061937
C	0.5479946320263989 0.7706507773549879 0.3597748024536352	0.061941
C	0.9520053679736011 0.7293492226450121 0.3597748024536352	0.061941
C	0.9521120139769320 0.7712409033554939 0.6376119027447970	0.063078
C	0.5478879860230680 0.7287590966445061 0.6376119027447970	0.063078
H	0.2881488881432048 0.4141386398064293 0.7515524976069745	0.096653
H	0.2118511288568002 0.0858613691935679 0.7515524976069745	0.096653
H	0.2123361184116397 0.4139411211849681 0.2459147289044645	0.105269
H	0.2876638985883654 0.0860588878150292 0.2459147289044645	0.105269
H	0.0860588878150292 0.2876638985883654 0.2459147289044645	0.105268
H	0.4139411211849681 0.2123361184116397 0.2459147289044645	0.105268
H	0.4141386398064293 0.2881488881432048 0.7515524976069745	0.096652
H	0.0858613691935679 0.2118511288568002 0.7515524976069745	0.096652
H	0.9141386058064335 0.2118511288568002 0.7515524976069745	0.096649
H	0.5858613941935665 0.2881488881432048 0.7515524976069745	0.096649
H	0.5860589128150279 0.2123361184116397 0.2459147289044645	0.105266
H	0.9139410871849721 0.2876638985883654 0.2459147289044645	0.105266
H	0.7123360674116389 0.0860588878150292 0.2459147289044645	0.105268
H	0.7876639325883611 0.4139411211849681 0.2459147289044645	0.105268
H	0.7881489221432005 0.0858613691935679 0.7515524976069745	0.096652
H	0.7118510778567995 0.4141386398064293 0.7515524976069745	0.096652
H	0.4141386398064293 0.7118510778567995 0.7515524976069745	0.096653
H	0.0858613691935679 0.7881489221432005 0.7515524976069745	0.096653
H	0.0860588878150292 0.7123360674116389 0.2459147289044645	0.105269
H	0.4139411211849681 0.7876639325883611 0.2459147289044645	0.105269
H	0.2123361184116397 0.5860589128150279 0.2459147289044645	0.105265
H	0.2876638985883654 0.9139410871849721 0.2459147289044645	0.105265
H	0.2881488881432048 0.5858613941935665 0.7515524976069745	0.096648
H	0.2118511288568002 0.9141386058064335 0.7515524976069745	0.096648
H	0.7881489221432005 0.9141386058064335 0.7515524976069745	0.096649
H	0.7118510778567995 0.5858613941935665 0.7515524976069745	0.096649
H	0.7123360674116389 0.9139410871849721 0.2459147289044645	0.105266
H	0.7876639325883611 0.5860589128150279 0.2459147289044645	0.105266
H	0.5860589128150279 0.7876639325883611 0.2459147289044645	0.105265
H	0.9139410871849721 0.7123360674116389 0.2459147289044645	0.105265
H	0.9141386058064335 0.7881489221432005 0.7515524976069745	0.096648
H	0.5858613941935665 0.7118510778567995 0.7515524976069745	0.096648
Fe	0.2500000000000000 0.2500000000000000 0.5026546736118066	0.841555
Fe	0.7500000340000028 0.2500000000000000 0.5026546736118066	0.841556
Fe	0.2500000000000000 0.7500000340000028 0.5026546736118066	0.841556
Fe	0.7500000340000028 0.7500000340000028 0.5026546736118066	0.841557
Nb	0.2500000000000000 0.2500000000000000 0.9800574640497046	2.428313
Nb	0.7500000340000028 0.2500000000000000 0.9800574640497046	2.428315
Nb	0.2500000000000000 0.7500000340000028 0.9800574640497046	2.428315
Nb	0.7500000340000028 0.7500000340000028 0.9800574640497046	2.428316
O	0.2500000000000000 0.2500000000000000 0.7537273271693425	-0.930252
O	0.7500000340000028 0.2500000000000000 0.7537273271693425	-0.930253
O	0.2500000000000000 0.7500000340000028 0.7537273271693425	-0.930253
O	0.7500000340000028 0.7500000340000028 0.7537273271693425	-0.930254
F	0.2500000000000000 0.2500000000000000 0.2502738508396493	-0.596227
F	0.3441029250357232 0.3441029250357232 0.0059729193378403	-0.563418
F	0.1558970749642770 0.1558970749642770 0.0059729193378403	-0.563418
F	0.1561717987345785 0.3438282012654216 0.0132623110230521	-0.560980
F	0.3438282012654216 0.1561717987345785 0.0132623110230521	-0.560980
F	0.7500000340000028 0.2500000000000000 0.2502738508396493	-0.596227
F	0.8438281672654259 0.3438282012654216 0.0132623110230521	-0.560979
F	0.6561718327345741 0.1561717987345785 0.0132623110230521	-0.560978
F	0.6558971089642727 0.3441029250357232 0.0059729193378403	-0.563416
F	0.8441028910357273 0.1558970749642770 0.0059729193378403	-0.563417
F	0.2500000000000000 0.7500000340000028 0.2502738508396493	-0.596227
F	0.3438282012654216 0.8438281672654259 0.0132623110230521	-0.560979
F	0.1561717987345785 0.6561718327345741 0.0132623110230521	-0.560978
F	0.1558970749642770 0.8441028910357273 0.0059729193378403	-0.563417
F	0.3441029250357232 0.6558971089642727 0.0059729193378403	-0.563416
F	0.7500000340000028 0.7500000340000028 0.2502738508396493	-0.596227
F	0.8441028910357273 0.8441028910357273 0.0059729193378403	-0.563416
F	0.6558971089642727 0.6558971089642727 0.0059729193378403	-0.563415
F	0.6561718327345741 0.8438281672654259 0.0132623110230521	-0.560977
F	0.8438281672654259 0.6561718327345741 0.0132623110230521	-0.560977
N	0.4036598039245540 0.2500970226479786 0.4988501281920655	-0.200537
N	0.0963401880754454 0.2499029773520215 0.4988501281920655	-0.200537
N	0.2500970226479786 0.4036598039245540 0.4988501281920655	-0.200535
N	0.2499029773520215 0.0963401880754454 0.4988501281920655	-0.200535
N	0.9036598379245567 0.2499029773520215 0.4988501281920655	-0.200543
N	0.5963401620754433 0.2500970226479786 0.4988501281920655	-0.200543
N	0.7499030113520242 0.4036598039245540 0.4988501281920655	-0.200537
N	0.7500970566479814 0.0963401880754454 0.4988501281920655	-0.200537
N	0.4036598039245540 0.7499030113520242 0.4988501281920655	-0.200535
N	0.0963401880754454 0.7500970566479814 0.4988501281920655	-0.200535
N	0.2499029773520215 0.9036598379245567 0.4988501281920655	-0.200546
N	0.2500970226479786 0.5963401620754433 0.4988501281920655	-0.200545
N	0.9036598379245567 0.7500970566479814 0.4988501281920655	-0.200546
N	0.5963401620754433 0.7499030113520242 0.4988501281920655	-0.200545
N	0.7500970566479814 0.9036598379245567 0.4988501281920655	-0.200543
N	0.7499030113520242 0.5963401620754433 0.4988501281920655	-0.200543
	  	
