#======================================================================

# CRYSTAL DATA

#----------------------------------------------------------------------

data_VESTA_phase_1


_pd_phase_name                         NbOFFIVE_7_Fe
_cell_length_a                         19.21910
_cell_length_b                         19.21910
_cell_length_c                         8.02350
_cell_angle_alpha                      90
_cell_angle_beta                       90
_cell_angle_gamma                      90
_symmetry_space_group_name_H-M         P 1
_symmetry_Int_Tables_number            1

loop_
_symmetry_equiv_pos_as_xyz
   x, y, z

loop_
   _atom_site_label
   _atom_site_fract_x
   _atom_site_fract_y
   _atom_site_fract_z
   _atom_site_charge
C	0.6624189387561160 0.8757277061115983 0.6961398714618788	0.105091
C	0.6110193686410159 0.9264441572661840 0.7016441289599529	-0.180175
C	0.5759675922798655 0.8907561378816137 0.4278594305135320	-0.173724
C	0.6273745841387690 0.8401691683564987 0.4340394632183065	0.100251
C	0.8375810612438840 0.6242722938884017 0.6961398714618788	0.105091
C	0.8889806313589841 0.5735558427338160 0.7016441289599529	-0.180175
C	0.9240323577201375 0.6092439131183870 0.4278594305135320	-0.173724
C	0.8726253658612340 0.6598308316435013 0.4340394632183065	0.100250
C	0.6242722938884017 0.6624189387561160 0.6961398714618788	0.105091
C	0.5735558427338160 0.6110193686410159 0.7016441289599529	-0.180175
C	0.6092439131183870 0.5759675922798655 0.4278594305135320	-0.173724
C	0.6598308316435013 0.6273745841387690 0.4340394632183065	0.100251
C	0.8757277061115983 0.8375810612438840 0.6961398714618788	0.105091
C	0.9264441572661840 0.8889806313589841 0.7016441289599529	-0.180175
C	0.8907561378816137 0.9240323577201375 0.4278594305135320	-0.173723
C	0.8401691683564987 0.8726253658612340 0.4340394632183065	0.100250
C	0.3318497642395465 0.3688865150508278 0.3039126476459306	0.099332
C	0.3827338257977458 0.4199839941960781 0.2979353252701645	-0.176784
C	0.4184987862552311 0.3854549608442102 0.5715716389937453	-0.173327
C	0.3679076939767172 0.3343498174471100 0.5669441327199360	0.098912
C	0.1681502227604557 0.1311134849491724 0.3039126476459306	0.099332
C	0.1172661742022544 0.0800160058039220 0.2979353252701645	-0.176784
C	0.0815012137447688 0.1145450391557900 0.5715716389937453	-0.173327
C	0.1320922930232853 0.1656501825528902 0.5669441327199360	0.098912
C	0.3688865150508278 0.1681502227604557 0.3039126476459306	0.099332
C	0.4199839941960781 0.1172661742022544 0.2979353252701646	-0.176783
C	0.3854549608442102 0.0815012137447688 0.5715716389937453	-0.173327
C	0.3343498174471100 0.1320922930232853 0.5669441327199360	0.098912
C	0.1311134849491724 0.3318497642395465 0.3039126476459306	0.099332
C	0.0800160058039220 0.3827338257977458 0.2979353252701646	-0.176783
C	0.1145450391557900 0.4184987862552311 0.5715716389937453	-0.173327
C	0.1656501825528902 0.3679076939767172 0.5669441327199360	0.098912
C	0.4304531177993650 0.0724971288500205 0.4345920461978937	0.138029
C	0.4845185330852874 0.0197192045594228 0.4308041874109580	-0.126202
C	0.0695468632006300 0.4275028401499804 0.4345920461978937	0.138029
C	0.0154814409147106 0.4802807814405762 0.4308041874109581	-0.126202
C	0.4275028401499804 0.4304531177993650 0.4345920461978937	0.138029
C	0.4802807814405762 0.4845185330852874 0.4308041874109581	-0.126202
C	0.0724971288500205 0.0695468632006300 0.4345920461978937	0.138029
C	0.0197192045594228 0.0154814409147106 0.4308041874109581	-0.126202
C	0.5641372539071581 0.5665190311864203 0.5641842588548484	0.137195
C	0.5101425110492341 0.5134447590404806 0.5671214120309116	-0.122944
C	0.9358627960928462 0.9334810188135838 0.5641842588548484	0.137195
C	0.9898574379507651 0.9865552409595194 0.5671214120309116	-0.122945
C	0.5665190311864203 0.9358627960928462 0.5641842588548484	0.137195
C	0.5134447590404806 0.9898574379507652 0.5671214120309116	-0.122945
C	0.9334810188135838 0.5641372539071580 0.5641842588548484	0.137195
C	0.9865552409595194 0.5101425110492342 0.5671214120309116	-0.122945
H	0.6977346313500826 0.8680626553046622 0.8005938429966326	0.089965
H	0.6061625998445742 0.9591178358709688 0.8121657115962754	0.115452
H	0.5425738258897014 0.8937876800544851 0.3183982976354654	0.115080
H	0.6352289353102558 0.8046387979407822 0.3302036690952520	0.096889
H	0.8022653686499174 0.6319372936953371 0.8005938429966326	0.089965
H	0.8938374001554258 0.5408821141290342 0.8121657115962754	0.115452
H	0.9574261231102980 0.6062122689455143 0.3183982976354654	0.115080
H	0.8647710646897442 0.6953612020592178 0.3302036690952520	0.096889
H	0.6319372936953371 0.6977346313500826 0.8005938429966326	0.089965
H	0.5408821141290342 0.6061625998445742 0.8121657115962754	0.115452
H	0.6062122689455143 0.5425738258897014 0.3183982976354654	0.115080
H	0.6953612020592178 0.6352289353102558 0.3302036690952520	0.096889
H	0.8680626553046622 0.8022653686499174 0.8005938429966326	0.089965
H	0.9591178358709688 0.8938374001554258 0.8121657115962754	0.115452
H	0.8937876800544851 0.9574261231102980 0.3183982976354654	0.115080
H	0.8046387979407822 0.8647710646897442 0.3302036690952520	0.096889
H	0.2966076061994556 0.3604148177739694 0.2000964559872349	0.094918
H	0.3868777231190225 0.4522634932945102 0.1866522764297130	0.116196
H	0.4518273054108843 0.3887674494786537 0.6810361983248733	0.115545
H	0.3612101752504378 0.2987512534680279 0.6707110435996813	0.087028
H	0.2033924068005491 0.1395851952260353 0.2000964559872349	0.094918
H	0.1131222508809755 0.0477365257054876 0.1866522764297130	0.116196
H	0.0481727255891147 0.1112325375213417 0.6810361983248733	0.115545
H	0.1387898247495624 0.2012487335319745 0.6707110435996813	0.087028
H	0.3604148177739694 0.2033924068005491 0.2000964559872349	0.094918
H	0.4522634932945102 0.1131222508809755 0.1866522764297130	0.116196
H	0.3887674494786537 0.0481727255891147 0.6810361983248733	0.115545
H	0.2987512534680279 0.1387898247495624 0.6707110435996813	0.087028
H	0.1395851952260353 0.2966076061994556 0.2000964559872349	0.094918
H	0.0477365257054876 0.3868777231190225 0.1866522764297130	0.116196
H	0.1112325375213417 0.4518273054108843 0.6810361983248733	0.115545
H	0.2012487335319745 0.3612101752504378 0.6707110435996813	0.087028
H	0.5040026439324654 0.0054987223593965 0.3072349756416615	0.102759
H	0.9959973060675376 0.4945012756406033 0.3072349756416615	0.102759
H	0.4945012756406033 0.5040026439324654 0.3072349756416615	0.102759
H	0.0054987223593965 0.9959973060675376 0.3072349756416615	0.102759
H	0.4913249698134663 0.4985714915007959 0.6907928135727405	0.101540
H	0.0086750111865358 0.0014285584992010 0.6907928135727405	0.101540
H	0.4985714915007959 0.0086750111865358 0.6907928135727405	0.101540
H	0.0014285584992010 0.4913249698134663 0.6907928135727405	0.101540
Fe	0.2500000000000000 0.2500000000000000 0.4382611884681871	0.898508
Fe	0.7500000000000000 0.7500000000000000 0.5690664068355350	0.842741
Nb	0.2500000000000000 0.2500000000000000 0.9110644130876985	2.414797
Nb	0.7500000000000000 0.7500000000000000 0.0454665173888389	2.437090
F	0.2500000000000000 0.2500000000000000 0.1841566259235020	-0.604804
F	0.7500000000000000 0.7500000000000000 0.3127021389753190	-0.596603
F	0.3237388214893085 0.3185880846654112 0.9398099018188369	-0.573672
F	0.1762611785106915 0.1814119023345914 0.9398099018188369	-0.573672
F	0.1814119023345914 0.3237388214893085 0.9398099018188369	-0.573672
F	0.3185880846654112 0.1762611785106915 0.9398099018188369	-0.573672
F	0.6790394423855457 0.8216213581598562 0.0722414611437990	-0.583359
F	0.8209605576144543 0.6783786418401438 0.0722414611437990	-0.583359
F	0.8216213581598562 0.8209605576144543 0.0722414611437990	-0.583359
F	0.6783786418401438 0.6790394423855457 0.0722414611437990	-0.583359
O	0.2500000000000000 0.2500000000000000 0.6860889233879529	-0.914327
O	0.7500000000000000 0.7500000000000000 0.8215911636647651	-0.917750
N	0.3259681293047791 0.1756564144316499 0.4360895368891671	-0.250137
N	0.1740318706952210 0.3243435855683502 0.4360895368891671	-0.250137
N	0.3243435855683502 0.3259681293047791 0.4360895368891671	-0.250137
N	0.1756564144316499 0.1740318706952210 0.4360895368891671	-0.250136
N	0.6673089076497866 0.6705947963365229 0.5651258543076564	-0.243771
N	0.8326910923502134 0.8294052036634771 0.5651258543076564	-0.243771
N	0.6705947963365229 0.8326910923502134 0.5651258543076564	-0.243771
N	0.8294052036634771 0.6673089076497866 0.5651258543076564	-0.243771
	  	
