#======================================================================

# CRYSTAL DATA

#----------------------------------------------------------------------

data_VESTA_phase_1


_pd_phase_name                         NbOFFIVE_16_Fe_i
_cell_length_a                         25.24957
_cell_length_b                         25.24957
_cell_length_c                         7.85432
_cell_angle_alpha                      90
_cell_angle_beta                       90
_cell_angle_gamma                      90
_symmetry_space_group_name_H-M         P 1
_symmetry_Int_Tables_number            1

loop_
_symmetry_equiv_pos_as_xyz
   x, y, z

loop_
   _atom_site_label
   _atom_site_fract_x
   _atom_site_fract_y
   _atom_site_fract_z
   _atom_site_charge
C	0.4781529680523328 0.3857621386201244 0.3694963659556725	0.094037
C	0.4772035202033427 0.3307887050094192 0.3647633788824675	-0.172557
C	0.9552309740019701 0.6127530696265849 0.9437911861552112	-0.128098
C	0.9553965443257805 0.5577135829613047 0.9444281971784318	-0.122683
C	0.5218470699476704 0.6142378613798748 0.3694963659556725	0.094037
C	0.5227964417966611 0.6692112569905854 0.3647633788824675	-0.172557
C	0.0447690209980263 0.3872469303734150 0.9437911861552112	-0.128098
C	0.0446034606742166 0.4422864170386951 0.9444281971784318	-0.122683
C	0.6142378613798748 0.4781529680523328 0.3694963659556725	0.094037
C	0.6692112569905854 0.4772035202033427 0.3647633788824675	-0.172557
C	0.3872469303734150 0.9552309740019701 0.9437911861552112	-0.128098
C	0.4422864170386951 0.9553965443257805 0.9444281971784318	-0.122683
C	0.3857621386201244 0.5218470699476704 0.3694963659556725	0.094037
C	0.3307887050094192 0.5227964417966611 0.3647633788824675	-0.172557
C	0.6127530696265849 0.0447690209980263 0.9437911861552112	-0.128098
C	0.5577135829613047 0.0446034606742166 0.9444281971784318	-0.122683
C	0.5221918115397338 0.3857991264053320 0.6283037553701215	0.097139
C	0.5228012081427699 0.3308741979236440 0.6343621116393203	-0.173756
C	0.0447673141095170 0.6127487633983685 0.0563021031759373	-0.128217
C	0.0446025734723422 0.5577111424678304 0.0556387155659754	-0.122596
C	0.4778082264602697 0.6142008735946681 0.6283037553701215	0.097139
C	0.4771987538572343 0.6691257640763602 0.6343621116393203	-0.173756
C	0.9552326808904789 0.3872512366016316 0.0563021031759373	-0.128217
C	0.9553974315276548 0.4422888575321702 0.0556387155659754	-0.122596
C	0.3857991264053320 0.4778082264602697 0.6283037553701215	0.097139
C	0.3308741979236440 0.4771987538572343 0.6343621116393203	-0.173756
C	0.6127487633983685 0.9552326808904789 0.0563021031759373	-0.128217
C	0.5577111424678304 0.9553974315276548 0.0556387155659754	-0.122596
C	0.6142008735946681 0.5221918115397338 0.6283037553701215	0.097139
C	0.6691257640763602 0.5228012081427699 0.6343621116393203	-0.173756
C	0.3872512366016316 0.0447673141095170 0.0563021031759373	-0.128217
C	0.4422888575321702 0.0446025734723422 0.0556387155659754	-0.122596
C	0.5447673191095211 0.8872512366016315 0.5563021111759380	-0.128216
C	0.5446025684723452 0.9422888575321696 0.5556387515659784	-0.122596
C	0.0221917945397357 0.1142008645946708 0.1283037873701169	0.097139
C	0.0228012461427657 0.1691257830763581 0.1343621116393204	-0.173755
C	0.4552327198904789 0.1127487533983676 0.5563021111759380	-0.128216
C	0.4553974315276546 0.0577111324678291 0.5556387515659784	-0.122596
C	0.9778081504602630 0.8857991264053319 0.1283037873701169	0.097139
C	0.9771987538572341 0.8308741979236438 0.1343621116393204	-0.173755
C	0.1127487533983676 0.5447673191095211 0.5563021111759380	-0.128216
C	0.0577111324678291 0.5446025684723452 0.5556387515659784	-0.122596
C	0.8857991264053319 0.0221917945397357 0.1283037873701169	0.097139
C	0.8308741979236438 0.0228012461427657 0.1343621116393204	-0.173755
C	0.8872512366016315 0.4552327198904789 0.5563021111759380	-0.128216
C	0.9422888575321696 0.4553974315276546 0.5556387515659784	-0.122596
C	0.1142008645946708 0.9778081504602630 0.1283037873701169	0.097139
C	0.1691257830763581 0.9771987538572341 0.1343621116393204	-0.173755
C	0.4552310130019694 0.8872469303734151 0.4437911861552110	-0.128097
C	0.4553965443257801 0.9422864170386953 0.4444281971784319	-0.122683
C	0.9781528920523265 0.1142378523798782 0.8694963659556728	0.094037
C	0.9772035202033429 0.1692112759905830 0.8647633468824649	-0.172557
C	0.5447690259980299 0.1127530596265842 0.4437911861552110	-0.128097
C	0.5446034556742195 0.0577135729613039 0.4444281971784319	-0.122683
C	0.0218470529476726 0.8857621386201252 0.8694963659556728	0.094037
C	0.0227964797966573 0.8307887050094186 0.8647633468824649	-0.172557
C	0.8872469303734151 0.5447690259980299 0.4437911861552110	-0.128097
C	0.9422864170386953 0.5446034556742195 0.4444281971784319	-0.122683
C	0.1142378523798782 0.0218470529476726 0.8694963659556728	0.094037
C	0.1692112759905830 0.0227964797966573 0.8647633468824649	-0.172557
C	0.1127530596265842 0.4552310130019694 0.4437911861552110	-0.128097
C	0.0577135729613039 0.4553965443257801 0.4444281971784319	-0.122683
C	0.8857621386201252 0.9781528920523265 0.8694963659556728	0.094037
C	0.8307887050094186 0.9772035202033429 0.8647633468824649	-0.172557
C	0.4999475124285932 0.3019568922371930 0.4997378387839406	0.171937
C	0.4999190033621762 0.2457531840112905 0.5000297918588557	-0.114503
C	0.4999806579084877 0.1974443756516756 0.5000746822731457	-0.097774
C	0.5000009118822482 0.1412447831877763 0.5000638776506001	0.127370
C	0.5000010278082156 0.0291797485203797 0.5000338063380821	0.065096
C	0.0000524875714068 0.8019569122371947 -0.0002621612160594	0.171937
C	0.0000809966378238 0.7457532030112889 0.0000297918588555	-0.114503
C	0.0000193420915120 0.6974443756516757 0.0000746822731451	-0.097774
C	-0.0000009118822481 0.6412447831877764 0.0000638776506006	0.127370
C	-0.0000010278082158 0.5291797445203792 0.0000338063380821	0.065096
C	0.5000524875714070 0.6980430497628093 0.4997378387839406	0.171937
C	0.5000809966378242 0.7542468349887071 0.5000297918588557	-0.114503
C	0.5000193420915121 0.8025555853483246 0.5000746822731457	-0.097774
C	0.4999990881177518 0.8587551778122239 0.5000638776506001	0.127370
C	0.4999989721917843 0.9708202944796205 0.5000338063380821	0.065096
C	-0.0000524875714068 0.1980430877628053 -0.0002621612160594	0.171937
C	-0.0000809966378238 0.2542468159887094 0.0000297918588555	-0.114503
C	-0.0000193420915120 0.3025556043483224 0.0000746822731451	-0.097774
C	0.0000009118822481 0.3587552168122236 0.0000638776506006	0.127370
C	0.0000010278082158 0.4708202554796206 0.0000338063380821	0.065096
C	0.6980430497628093 0.4999475124285932 0.4997378387839406	0.171937
C	0.7542468349887071 0.4999190033621762 0.5000297918588557	-0.114503
C	0.8025555853483246 0.4999806579084877 0.5000746822731457	-0.097774
C	0.8587551778122239 0.5000009118822482 0.5000638776506001	0.127370
C	0.9708202944796205 0.5000010278082156 0.5000338063380821	0.065096
C	0.1980430877628053 0.0000524875714068 -0.0002621612160594	0.171937
C	0.2542468159887094 0.0000809966378238 0.0000297918588555	-0.114503
C	0.3025556043483224 0.0000193420915120 0.0000746822731451	-0.097774
C	0.3587552168122236 -0.0000009118822481 0.0000638776506006	0.127370
C	0.4708202554796206 -0.0000010278082158 0.0000338063380821	0.065096
C	0.3019568922371930 0.5000524875714070 0.4997378387839406	0.171937
C	0.2457531840112905 0.5000809966378242 0.5000297918588557	-0.114503
C	0.1974443756516756 0.5000193420915121 0.5000746822731457	-0.097774
C	0.1412447831877763 0.4999990881177518 0.5000638776506001	0.127370
C	0.0291797485203797 0.4999989721917843 0.5000338063380821	0.065096
C	0.8019569122371947 -0.0000524875714068 -0.0002621612160594	0.171937
C	0.7457532030112889 -0.0000809966378238 0.0000297918588555	-0.114503
C	0.6974443756516757 -0.0000193420915120 0.0000746822731451	-0.097774
C	0.6412447831877764 0.0000009118822481 0.0000638776506006	0.127370
C	0.5291797445203792 0.0000010278082158 0.0000338063380821	0.065096
H	0.4610603207587046 0.4090374781416837 0.2662163199920907	0.104363
H	0.4590981535397770 0.3104644208734878 0.2573021635312816	0.126515
H	0.9206296702247722 0.6343907282466980 0.8984677436407498	0.112194
H	0.9208799206439622 0.5363124280405076 0.8968885192868929	0.105526
H	0.5389396792412953 0.5909625598583128 0.2662163199920907	0.104363
H	0.5409018844602184 0.6895355981265172 0.2573021635312816	0.126515
H	0.0793703297752281 0.3656093097532981 0.8984677436407498	0.112194
H	0.0791200603560400 0.4636875719594920 0.8968885192868929	0.105526
H	0.5909625598583128 0.4610603207587046 0.2662163199920907	0.104363
H	0.6895355981265172 0.4590981535397770 0.2573021635312816	0.126515
H	0.3656093097532981 0.9206296702247722 0.8984677436407498	0.112194
H	0.4636875719594920 0.9208799206439622 0.8968885192868929	0.105526
H	0.4090374781416837 0.5389396792412953 0.2662163199920907	0.104363
H	0.3104644208734878 0.5409018844602184 0.2573021635312816	0.126515
H	0.6343907282466980 0.0793703297752281 0.8984677436407498	0.112194
H	0.5363124280405076 0.0791200603560400 0.8968885192868929	0.105526
H	0.5393862579896163 0.4092053836451867 0.7310620593402078	0.098019
H	0.5407220835316069 0.3106828189889035 0.7424059424146733	0.126235
H	0.0793686588439756 0.6343885970790883 0.1016098975319568	0.112176
H	0.0791207141441864 0.5363105493743432 0.1031719734468314	0.105488
H	0.4606137420103836 0.5907946543548094 0.7310620593402078	0.098019
H	0.4592779544683889 0.6893172000111013 0.7424059424146733	0.126235
H	0.9206313411560244 0.3656114409209076 0.1016098975319568	0.112176
H	0.9208792668558157 0.4636894506256566 0.1031719734468314	0.105488
H	0.4092053836451867 0.4606137420103836 0.7310620593402078	0.098019
H	0.3106828189889035 0.4592779544683889 0.7424059424146733	0.126235
H	0.6343885970790883 0.9206313411560244 0.1016098975319568	0.112176
H	0.5363105493743432 0.9208792668558157 0.1031719734468314	0.105488
H	0.5907946543548094 0.5393862579896163 0.7310620593402078	0.098019
H	0.6893172000111013 0.5407220835316069 0.7424059424146733	0.126235
H	0.3656114409209076 0.0793686588439756 0.1016098975319568	0.112176
H	0.4636894506256566 0.0791207141441864 0.1031719734468314	0.105488
H	0.5793686208439796 0.8656114029209117 0.6016099215319585	0.112174
H	0.5791206951441883 0.9636894126256608 0.6031719894468330	0.105488
H	0.0393862599896165 0.0907946163548134 0.2310620593402077	0.098019
H	0.0407220455316110 0.1893171810110965 0.2424059424146738	0.126234
H	0.4206313411560243 0.1343885680790895 0.6016099215319585	0.112174
H	0.4208793048558115 0.0363105663743411 0.6031719894468330	0.105488
H	0.9606137800103869 0.9092053836451867 0.2310620593402077	0.098019
H	0.9592779544683891 0.8106828379889018 0.2424059424146738	0.126234
H	0.1343885680790895 0.5793686208439796 0.6016099215319585	0.112174
H	0.0363105663743411 0.5791206951441883 0.6031719894468330	0.105488
H	0.9092053836451867 0.0393862599896165 0.2310620593402077	0.098019
H	0.8106828379889018 0.0407220455316110 0.2424059424146738	0.126234
H	0.8656114029209117 0.4206313411560243 0.6016099215319585	0.112174
H	0.9636894126256608 0.4208793048558115 0.6031719894468330	0.105488
H	0.0907946163548134 0.9606137800103869 0.2310620593402077	0.098019
H	0.1893171810110965 0.9592779544683891 0.2424059424146738	0.126234
H	0.4206296702247717 0.8656092717533020 0.3984677116407471	0.112191
H	0.4208799586439580 0.9636875339594964 0.3968885832868910	0.105526
H	0.9610603587587079 0.0909625218583164 0.7662163359920919	0.104363
H	0.9590981535397777 0.1895355791265123 0.7573021315312861	0.126515
H	0.5793702917752318 0.1343906992466990 0.3984677116407471	0.112191
H	0.5791200413560418 0.0363124450405058 0.3968885832868910	0.105526
H	0.0389396812412956 0.9090374781416832 0.7662163359920919	0.104363
H	0.0409018464602228 0.8104644398734859 0.7573021315312861	0.126515
H	0.8656092717533020 0.5793702917752318 0.3984677116407471	0.112191
H	0.9636875339594964 0.5791200413560418 0.3968885832868910	0.105526
H	0.0909625218583164 0.0389396812412956 0.7662163359920919	0.104363
H	0.1895355791265123 0.0409018464602228 0.7573021315312861	0.126515
H	0.1343906992466990 0.4206296702247717 0.3984677116407471	0.112191
H	0.0363124450405058 0.4208799586439580 0.3968885832868910	0.105526
H	0.9090374781416832 0.9610603587587079 0.7662163359920919	0.104363
H	0.8104644398734859 0.9590981535397777 0.7573021315312861	0.126515
Fe	0.5000000000000000 0.5000000000000000 0.5039335918014275	0.575952
Fe	-0.0000000000000000 0.0000000000000000 0.0039335918014272	0.575952
Nb	0.5000000000000000 0.5000000000000000 -0.0172872890242507	2.429183
Nb	-0.0000000000000000 0.0000000000000000 0.4827127109757492	2.429183
F	0.5000000000000000 0.5000000000000000 0.2492773712944165	-0.569004
F	-0.0000000000000000 0.0000000000000000 0.7492773232944127	-0.569004
F	0.5548747172200033 0.5538751549082835 0.0095068418467380	-0.589858
F	0.0538751269082885 0.0548746892200076 0.5095068418467384	-0.589858
F	0.4451253207799934 0.4461248830917126 0.0095068418467380	-0.589858
F	0.9461248450917165 0.9451252827799967 0.5095068418467384	-0.589858
F	0.4461248830917126 0.5548747172200033 0.0095068418467380	-0.589858
F	0.9451252827799967 0.0538751269082885 0.5095068418467384	-0.589858
F	0.5538751549082835 0.4451253207799934 0.0095068418467380	-0.589858
F	0.0548746892200076 0.9461248450917165 0.5095068418467384	-0.589858
O	0.5000000000000000 0.5000000000000000 0.7548029865541308	-0.903906
O	-0.0000000000000000 0.0000000000000000 0.2548029545541275	-0.903906
N	0.5002827983572947 0.4130033473837632 0.4986610309843825	-0.179107
N	-0.0002827983572950 0.9130033853837662 -0.0013389690156175	-0.179107
N	0.4997172016427049 0.5869966526162369 0.4986610309843825	-0.179107
N	0.0002827983572950 0.0869966246162345 -0.0013389690156175	-0.179107
N	0.5869966526162369 0.5002827983572947 0.4986610309843825	-0.179107
N	0.0869966246162345 -0.0002827983572950 -0.0013389690156175	-0.179107
N	0.4130033473837632 0.4997172016427049 0.4986610309843825	-0.179107
N	0.9130033853837662 0.0002827983572950 -0.0013389690156175	-0.179107
	  	
