#======================================================================

# CRYSTAL DATA

#----------------------------------------------------------------------

data_VESTA_phase_1


_pd_phase_name                         NbOFFIVE_5_Zn_i
_cell_length_a                         20.02999
_cell_length_b                         20.02999
_cell_length_c                         15.78297
_cell_angle_alpha                      90
_cell_angle_beta                       90
_cell_angle_gamma                      90
_symmetry_space_group_name_H-M         P 1
_symmetry_Int_Tables_number            1

loop_
_symmetry_equiv_pos_as_xyz
   x, y, z

loop_
   _atom_site_label
   _atom_site_fract_x
   _atom_site_fract_y
   _atom_site_fract_z
   _atom_site_charge
F	0.3216773091488093 0.1839988625512825 0.3442809474092409	-0.592997
F	0.1783226788511898 0.3160011494487113 0.3442809474092409	-0.592996
F	0.3160011494487113 0.3216773091488093 0.3442809474092409	-0.592996
F	0.1839988625512825 0.1783226788511898 0.3442809474092409	-0.592997
F	0.6790359408556519 0.6831734510538902 0.1432167628804746	-0.593743
F	0.8209640591443481 0.8168265489461098 0.1432167628804746	-0.593743
F	0.6831734510538902 0.8209640591443481 0.1432167628804746	-0.593742
F	0.8168265489461098 0.6790359408556519 0.1432167628804746	-0.593744
F	0.6790359408556519 0.8168265489461098 0.6432167778804723	-0.593743
F	0.8209640591443481 0.6831734510538902 0.6432167778804723	-0.593744
F	0.6831734510538902 0.6790359408556519 0.6432167778804723	-0.593743
F	0.8168265489461098 0.8209640591443481 0.6432167778804723	-0.593744
F	0.3216773091488093 0.3160011494487113 0.8442809164092419	-0.592996
F	0.1783226788511898 0.1839988625512825 0.8442809164092419	-0.592997
F	0.3160011494487113 0.1783226788511898 0.8442809164092419	-0.592997
F	0.1839988625512825 0.3216773091488093 0.8442809164092419	-0.592996
F	0.2500000000000000 0.2500000000000000 0.2260867022542299	-0.603355
F	0.7500000000000000 0.7500000000000000 0.0248892805136153	-0.602833
F	0.7500000000000000 0.7500000000000000 0.5248892765136152	-0.602834
F	0.2500000000000000 0.2500000000000000 0.7260867482542261	-0.603354
O	0.2500000000000000 0.2500000000000000 0.4701434433979756	-0.930113
O	0.7500000000000000 0.7500000000000000 0.2688622675676847	-0.932893
O	0.7500000000000000 0.7500000000000000 0.7688622365676860	-0.932890
O	0.2500000000000000 0.2500000000000000 0.9701434433979755	-0.930114
N	0.3586005762810953 0.2478235951179209 0.6015219611764071	-0.225716
N	0.1413993997189097 0.2521764288820812 0.6015219611764071	-0.225715
N	0.2521764288820812 0.3586005762810953 0.6015219611764071	-0.225715
N	0.2478235951179209 0.1413993997189097 0.6015219611764071	-0.225716
N	0.6414294703042507 0.7460011336774901 0.8993724103528385	-0.224345
N	0.8585704816957525 0.7539988663225099 0.8993724103528385	-0.224256
N	0.7460011336774901 0.8585704816957525 0.8993724103528385	-0.224255
N	0.7539988663225099 0.6414294703042507 0.8993724103528385	-0.224346
N	0.6414294703042507 0.7539988663225099 0.3993724103528384	-0.224336
N	0.8585704816957525 0.7460011336774901 0.3993724103528384	-0.224246
N	0.7460011336774901 0.6414294703042507 0.3993724103528384	-0.224336
N	0.7539988663225099 0.8585704816957525 0.3993724103528384	-0.224246
N	0.3586005762810953 0.2521764288820812 0.1015219691764074	-0.225719
N	0.1413993997189097 0.2478235951179209 0.1015219691764074	-0.225719
N	0.2521764288820812 0.1413993997189097 0.1015219691764074	-0.225720
N	0.2478235951179209 0.3586005762810953 0.1015219691764074	-0.225719
C	0.3912616617338167 0.2183034197831242 0.6658605499047794	0.101895
C	0.4605620264578818 0.2168201490669294 0.6702544944571616	-0.180491
C	0.4985579167975784 0.2473590491549530 0.6063711331625190	0.107042
C	0.4635440605519304 0.2780394288520424 0.5398048487626905	-0.183956
C	0.3942051714817144 0.2769914600363211 0.5394764366481739	0.102518
C	0.5721067440565916 0.2478906583389873 0.6091246315164042	0.053557
C	0.6080968092656674 0.1919724738719671 0.6376774222482765	-0.130188
C	0.6774966067833431 0.1927687424857198 0.6394332777741543	-0.125011
C	0.7132285734905266 0.2497445790494758 0.6140694021215130	0.068103
C	0.6772039003101556 0.3058378213714424 0.5863745945700943	-0.119516
C	0.6078564717070013 0.3047226045819214 0.5832611065863078	-0.127118
C	0.1087383502661843 0.2816965562168737 0.6658605499047794	0.101894
C	0.0394379885421161 0.2831798749330658 0.6702544944571616	-0.180490
C	0.0014420912024223 0.2526409508450471 0.6063711331625190	0.107043
C	0.0364559604480676 0.2219605711479578 0.5398048487626905	-0.183958
C	0.1057948525182878 0.2230085399636788 0.5394764366481739	0.102518
C	0.9278932079434116 0.2521093656610076 0.6091246315164042	0.053556
C	0.8919031427343357 0.3080275261280330 0.6376774222482765	-0.130189
C	0.8225033932166569 0.3072312695142814 0.6394332777741543	-0.125011
C	0.7867714265094734 0.2502554449505190 0.6140694021215130	0.068104
C	0.8227960996898444 0.1941621906285587 0.5863745945700943	-0.119517
C	0.8921435282929987 0.1952773714180767 0.5832611065863078	-0.127118
C	0.2816965562168737 0.3912616617338167 0.6658605499047794	0.101895
C	0.2831798749330658 0.4605620264578818 0.6702544944571616	-0.180490
C	0.2526409508450471 0.4985579167975784 0.6063711331625190	0.107042
C	0.2219605711479578 0.4635440605519304 0.5398048487626905	-0.183957
C	0.2230085399636788 0.3942051714817144 0.5394764366481739	0.102518
C	0.2521093656610076 0.5721067440565916 0.6091246315164042	0.053557
C	0.3080275261280330 0.6080968092656674 0.6376774222482765	-0.130188
C	0.3072312695142814 0.6774966067833431 0.6394332777741543	-0.125011
C	0.2502554449505190 0.7132285734905266 0.6140694021215130	0.068103
C	0.1941621906285587 0.6772039003101556 0.5863745945700943	-0.119517
C	0.1952773714180767 0.6078564717070013 0.5832611065863078	-0.127118
C	0.2183034197831242 0.1087383502661843 0.6658605499047794	0.101896
C	0.2168201490669294 0.0394379885421161 0.6702544944571616	-0.180491
C	0.2473590491549530 0.0014420912024223 0.6063711331625190	0.107042
C	0.2780394288520424 0.0364559604480676 0.5398048487626905	-0.183957
C	0.2769914600363211 0.1057948525182878 0.5394764366481739	0.102519
C	0.2478906583389873 0.9278932079434116 0.6091246315164042	0.053556
C	0.1919724738719671 0.8919031427343357 0.6376774222482765	-0.130189
C	0.1927687424857198 0.8225033932166569 0.6394332777741543	-0.125011
C	0.2497445790494758 0.7867714265094734 0.6140694021215130	0.068103
C	0.3058378213714424 0.8227960996898444 0.5863745945700943	-0.119517
C	0.3047226045819214 0.8921435282929987 0.5832611065863078	-0.127119
C	0.6082686143845443 0.7167086176232069 0.8352864816658383	0.101562
C	0.5390129623770099 0.7159270637551474 0.8310151453483212	-0.181634
C	0.5014499916549945 0.7470857773138437 0.8948662659406360	0.105252
C	0.5369072363972366 0.7772109909342918 0.9614194903327885	-0.180908
C	0.6063046944600650 0.7754496014622260 0.9616599882220923	0.101150
C	0.4279005513340583 0.7481536342516861 0.8917464609979630	0.054662
C	0.3920357294532636 0.6922912222944811 0.8627942511723206	-0.131137
C	0.3226673524147177 0.6929736824801753 0.8605719934525339	-0.125312
C	0.2867735191591058 0.7498693763423914 0.8858524494725970	0.068450
C	0.3226570565539979 0.8060494086690836 0.9135972622223210	-0.119553
C	0.3920249679827987 0.8050254420491483 0.9172162472053366	-0.126794
C	0.8917313386154554 0.7832913823767931 0.8352864816658383	0.101519
C	0.9609870376229901 0.7840729362448526 0.8310151453483212	-0.181623
C	0.9985500083450055 0.7529142226861563 0.8948662659406360	0.105244
C	0.9630927636027634 0.7227890090657082 0.9614194903327885	-0.180878
C	0.8936953055399350 0.7245503985377740 0.9616599882220923	0.101040
C	0.0720994486659419 0.7518463657483139 0.8917464609979630	0.054663
C	0.1079642465467414 0.8077088257055157 0.8627942511723206	-0.131137
C	0.1773326475852824 0.8070263655198286 0.8605719934525339	-0.125311
C	0.2132264808408943 0.7501306236576086 0.8858524494725970	0.068448
C	0.1773429674460040 0.6939506393309204 0.9135972622223210	-0.119562
C	0.1079750320172014 0.6949746059508486 0.9172162472053366	-0.126793
C	0.7167086176232069 0.8917313386154554 0.8352864816658383	0.101520
C	0.7159270637551474 0.9609870376229901 0.8310151453483212	-0.181624
C	0.7470857773138437 0.9985500083450055 0.8948662659406360	0.105244
C	0.7772109909342918 0.9630927636027634 0.9614194903327885	-0.180877
C	0.7754496014622260 0.8936953055399350 0.9616599882220923	0.101040
C	0.7481536342516861 0.0720994486659419 0.8917464609979630	0.054663
C	0.6922912222944811 0.1079642465467414 0.8627942511723206	-0.131136
C	0.6929736824801753 0.1773326475852824 0.8605719934525339	-0.125312
C	0.7498693763423914 0.2132264808408943 0.8858524494725970	0.068450
C	0.8060494086690836 0.1773429674460040 0.9135972622223210	-0.119553
C	0.8050254420491483 0.1079750320172014 0.9172162472053366	-0.126792
C	0.7832913823767931 0.6082686143845443 0.8352864816658383	0.101563
C	0.7840729362448526 0.5390129623770099 0.8310151453483212	-0.181632
C	0.7529142226861563 0.5014499916549945 0.8948662659406360	0.105252
C	0.7227890090657082 0.5369072363972366 0.9614194903327885	-0.180909
C	0.7245503985377740 0.6063046944600650 0.9616599882220923	0.101152
C	0.7518463657483139 0.4279005513340583 0.8917464609979630	0.054662
C	0.8077088257055157 0.3920357294532636 0.8627942511723206	-0.131138
C	0.8070263655198286 0.3226673524147177 0.8605719934525339	-0.125311
C	0.7501306236576086 0.2867735191591058 0.8858524494725970	0.068448
C	0.6939506393309204 0.3226570565539979 0.9135972622223210	-0.119562
C	0.6949746059508486 0.3920249679827987 0.9172162472053366	-0.126794
C	0.6082686143845443 0.7832913823767931 0.3352865136658413	0.101573
C	0.5390129623770099 0.7840729362448526 0.3310151143483225	-0.181640
C	0.5014499916549945 0.7529142226861563 0.3948663279406340	0.105255
C	0.5369072363972366 0.7227890090657082 0.4614194593327889	-0.180910
C	0.6063046944600650 0.7245503985377740 0.4616599882220921	0.101152
C	0.4279005513340583 0.7518463657483139 0.3917464919979620	0.054662
C	0.3920357294532636 0.8077088257055157 0.3627943141723220	-0.131138
C	0.3226673524147177 0.8070263655198286 0.3605719934525337	-0.125311
C	0.2867735191591058 0.7501306236576086 0.3858524494725973	0.068448
C	0.3226570565539979 0.6939506393309204 0.4135972622223205	-0.119562
C	0.3920249679827987 0.6949746059508486 0.4172162782053431	-0.126795
C	0.8917313386154554 0.7167086176232069 0.3352865136658413	0.101532
C	0.9609870376229901 0.7159270637551474 0.3310151143483225	-0.181632
C	0.9985500083450055 0.7470857773138437 0.3948663279406340	0.105247
C	0.9630927636027634 0.7772109909342918 0.4614194593327889	-0.180877
C	0.8936953055399350 0.7754496014622260 0.4616599882220921	0.101040
C	0.0720994486659419 0.7481536342516861 0.3917464919979620	0.054663
C	0.1079642465467414 0.6922912222944811 0.3627943141723220	-0.131137
C	0.1773326475852824 0.6929736824801753 0.3605719934525337	-0.125311
C	0.2132264808408943 0.7498693763423914 0.3858524494725973	0.068449
C	0.1773429674460040 0.8060494086690836 0.4135972622223205	-0.119551
C	0.1079750320172014 0.8050254420491483 0.4172162782053431	-0.126793
C	0.7167086176232069 0.6082686143845443 0.3352865136658413	0.101575
C	0.7159270637551474 0.5390129623770099 0.3310151143483225	-0.181640
C	0.7470857773138437 0.5014499916549945 0.3948663279406340	0.105254
C	0.7772109909342918 0.5369072363972366 0.4614194593327889	-0.180909
C	0.7754496014622260 0.6063046944600650 0.4616599882220921	0.101153
C	0.7481536342516861 0.4279005513340583 0.3917464919979620	0.054662
C	0.6922912222944811 0.3920357294532636 0.3627943141723220	-0.131138
C	0.6929736824801753 0.3226673524147177 0.3605719934525338	-0.125312
C	0.7498693763423914 0.2867735191591058 0.3858524494725973	0.068449
C	0.8060494086690836 0.3226570565539979 0.4135972622223205	-0.119552
C	0.8050254420491483 0.3920249679827987 0.4172162782053431	-0.126794
C	0.7832913823767931 0.8917313386154554 0.3352865136658413	0.101532
C	0.7840729362448526 0.9609870376229901 0.3310151143483225	-0.181630
C	0.7529142226861563 0.9985500083450055 0.3948663279406340	0.105247
C	0.7227890090657082 0.9630927636027634 0.4614194593327889	-0.180878
C	0.7245503985377740 0.8936953055399350 0.4616599882220921	0.101041
C	0.7518463657483139 0.0720994486659419 0.3917464919979620	0.054663
C	0.8077088257055157 0.1079642465467414 0.3627943141723220	-0.131137
C	0.8070263655198286 0.1773326475852824 0.3605719934525337	-0.125310
C	0.7501306236576086 0.2132264808408943 0.3858524494725973	0.068448
C	0.6939506393309204 0.1773429674460040 0.4135972622223205	-0.119561
C	0.6949746059508486 0.1079750320172014 0.4172162782053431	-0.126794
C	0.3912616617338167 0.2816965562168737 0.1658605499047868	0.101894
C	0.4605620264578818 0.2831798749330658 0.1702545254571606	-0.180497
C	0.4985579167975784 0.2526409508450471 0.1063710791625211	0.107038
C	0.4635440605519304 0.2219605711479578 0.0398048727626929	-0.183960
C	0.3942051714817144 0.2230085399636788 0.0394764596481720	0.102518
C	0.5721067440565916 0.2521093656610076 0.1091246005164051	0.053556
C	0.6080968092656674 0.3080275261280330 0.1376773752482762	-0.130189
C	0.6774966067833431 0.3072312695142814 0.1394332937741555	-0.125010
C	0.7132285734905266 0.2502554449505190 0.1140694101215136	0.068102
C	0.6772039003101556 0.1941621906285587 0.0863746175700927	-0.119516
C	0.6078564717070013 0.1952773714180767 0.0832610825863057	-0.127118
C	0.1087383502661843 0.2183034197831242 0.1658605499047868	0.101895
C	0.0394379885421161 0.2168201490669294 0.1702545254571606	-0.180499
C	0.0014420912024223 0.2473590491549530 0.1063710791625211	0.107038
C	0.0364559604480676 0.2780394288520424 0.0398048727626929	-0.183958
C	0.1057948525182878 0.2769914600363211 0.0394764596481720	0.102518
C	0.9278932079434116 0.2478906583389873 0.1091246005164051	0.053555
C	0.8919031427343357 0.1919724738719671 0.1376773752482762	-0.130189
C	0.8225033932166569 0.1927687424857198 0.1394332937741555	-0.125010
C	0.7867714265094734 0.2497445790494758 0.1140694101215136	0.068104
C	0.8227960996898444 0.3058378213714424 0.0863746175700927	-0.119516
C	0.8921435282929987 0.3047226045819214 0.0832610825863057	-0.127120
C	0.2816965562168737 0.1087383502661843 0.1658605499047868	0.101897
C	0.2831798749330658 0.0394379885421161 0.1702545254571606	-0.180498
C	0.2526409508450471 0.0014420912024223 0.1063710791625211	0.107038
C	0.2219605711479578 0.0364559604480676 0.0398048727626929	-0.183959
C	0.2230085399636788 0.1057948525182878 0.0394764596481720	0.102519
C	0.2521093656610076 0.9278932079434116 0.1091246005164051	0.053555
C	0.3080275261280330 0.8919031427343357 0.1376773752482762	-0.130190
C	0.3072312695142814 0.8225033932166569 0.1394332937741555	-0.125010
C	0.2502554449505190 0.7867714265094734 0.1140694101215136	0.068103
C	0.1941621906285587 0.8227960996898444 0.0863746175700927	-0.119516
C	0.1952773714180767 0.8921435282929987 0.0832610825863057	-0.127119
C	0.2183034197831242 0.3912616617338167 0.1658605499047868	0.101895
C	0.2168201490669294 0.4605620264578818 0.1702545254571606	-0.180498
C	0.2473590491549530 0.4985579167975784 0.1063710791625211	0.107038
C	0.2780394288520424 0.4635440605519304 0.0398048727626929	-0.183958
C	0.2769914600363211 0.3942051714817144 0.0394764596481720	0.102518
C	0.2478906583389873 0.5721067440565916 0.1091246005164051	0.053556
C	0.1919724738719671 0.6080968092656674 0.1376773752482762	-0.130189
C	0.1927687424857198 0.6774966067833431 0.1394332937741555	-0.125010
C	0.2497445790494758 0.7132285734905266 0.1140694101215136	0.068103
C	0.3058378213714424 0.6772039003101556 0.0863746175700927	-0.119517
C	0.3047226045819214 0.6078564717070013 0.0832610825863057	-0.127119
H	0.3605675508372844 0.1964026398326338 0.7157668830027050	0.099643
H	0.4847082960814774 0.1936671859587650 0.7247406374561685	0.113565
H	0.4902350363655183 0.3014452441042457 0.4874401422652669	0.113469
H	0.3656294143290816 0.2993530734877519 0.4878331549918541	0.093221
H	0.5811330550349789 0.1471749918249046 0.6571111661113294	0.100128
H	0.7047739249200466 0.1491160072940852 0.6618641878201945	0.101716
H	0.7041366792919942 0.3499493618106999 0.5646715496490057	0.101919
H	0.5807447215929419 0.3487387758529317 0.5615404022400784	0.104086
H	0.1394324611627168 0.3035973601673665 0.7157668830027050	0.099643
H	0.0152917339185250 0.3063327900412332 0.7247406374561685	0.113564
H	0.0097649666344783 0.1985547558957543 0.4874401422652669	0.113470
H	0.1343705736709174 0.2006469265122483 0.4878331549918541	0.093221
H	0.9188668969650242 0.3528250201750963 0.6571111661113294	0.100128
H	0.7952260750799534 0.3508839807059139 0.6618641878201945	0.101716
H	0.7958633207080058 0.1500506381893003 0.5646715496490057	0.101917
H	0.9192552784070581 0.1512612241470684 0.5615404022400784	0.104085
H	0.3035973601673665 0.3605675508372844 0.7157668830027050	0.099643
H	0.3063327900412332 0.4847082960814774 0.7247406374561685	0.113564
H	0.1985547558957543 0.4902350363655183 0.4874401422652669	0.113470
H	0.2006469265122483 0.3656294143290816 0.4878331549918541	0.093221
H	0.3528250201750963 0.5811330550349789 0.6571111661113294	0.100129
H	0.3508839807059139 0.7047739249200466 0.6618641878201945	0.101716
H	0.1500506381893003 0.7041366792919942 0.5646715496490057	0.101918
H	0.1512612241470684 0.5807447215929419 0.5615404022400784	0.104085
H	0.1964026398326338 0.1394324611627168 0.7157668830027050	0.099643
H	0.1936671859587650 0.0152917339185250 0.7247406374561685	0.113565
H	0.3014452441042457 0.0097649666344783 0.4874401422652669	0.113470
H	0.2993530734877519 0.1343705736709174 0.4878331549918541	0.093221
H	0.1471749918249046 0.9188668969650242 0.6571111661113294	0.100128
H	0.1491160072940852 0.7952260750799534 0.6618641878201945	0.101715
H	0.3499493618106999 0.7958633207080058 0.5646715496490057	0.101918
H	0.3487387758529317 0.9192552784070581 0.5615404022400784	0.104086
H	0.6387169322394999 0.6944388260193141 0.7853468162743773	0.094282
H	0.5145573933973036 0.6928191925039228 0.7767334634548864	0.113530
H	0.5105505327767630 0.8007634099752853 0.0139514463383800	0.113590
H	0.6351307644350869 0.7975070094284433 0.0132647272812260	0.098812
H	0.4191359253588015 0.6475580450493751 0.8434257555777364	0.100083
H	0.2955619301697557 0.6492999687006007 0.8378451387019384	0.101559
H	0.2956017458667021 0.8501744694053668 0.9350218623316292	0.102054
H	0.4189968601262551 0.8490895658332901 0.9390463252045130	0.104123
H	0.8612831147605005 0.8055612219806899 0.7853468162743773	0.094290
H	0.9854426066026964 0.8071808074960772 0.7767334634548864	0.113529
H	0.9894494202232367 0.6992365900247147 0.0139514463383800	0.113586
H	0.8648691875649163 0.7024929905715567 0.0132647272812260	0.098833
H	0.0808640986411933 0.8524419549506249 0.8434257555777364	0.100084
H	0.2044380698302442 0.8507000312993993 0.8378451387019384	0.101560
H	0.2043982541332977 0.6498254825946292 0.9350218623316292	0.102067
H	0.0810031518737458 0.6509103861667059 0.9390463252045130	0.104123
H	0.6944388260193141 0.8612831147605005 0.7853468162743773	0.094291
H	0.6928191925039228 0.9854426066026964 0.7767334634548864	0.113529
H	0.8007634099752853 0.9894494202232367 0.0139514463383800	0.113586
H	0.7975070094284433 0.8648691875649163 0.0132647272812260	0.098833
H	0.6475580450493751 0.0808640986411933 0.8434257555777364	0.100083
H	0.6492999687006007 0.2044380698302442 0.8378451387019384	0.101560
H	0.8501744694053668 0.2043982541332977 0.9350218623316292	0.102055
H	0.8490895658332901 0.0810031518737458 0.9390463252045130	0.104123
H	0.8055612219806899 0.6387169322394999 0.7853468162743773	0.094282
H	0.8071808074960772 0.5145573933973036 0.7767334634548864	0.113530
H	0.6992365900247147 0.5105505327767630 0.0139514463383800	0.113590
H	0.7024929905715567 0.6351307644350869 0.0132647272812260	0.098812
H	0.8524419549506249 0.4191359253588015 0.8434257555777364	0.100084
H	0.8507000312993993 0.2955619301697557 0.8378451387019384	0.101560
H	0.6498254825946292 0.2956017458667021 0.9350218623316292	0.102067
H	0.6509103861667059 0.4189968601262551 0.9390463252045130	0.104123
H	0.6387169322394999 0.8055612219806899 0.2853467852743782	0.094261
H	0.5145573933973036 0.8071808074960772 0.2767334634548869	0.113532
H	0.5105505327767630 0.6992365900247147 0.5139514653383851	0.113590
H	0.6351307644350869 0.7024929905715567 0.5132646982812276	0.098812
H	0.4191359253588015 0.8524419549506249 0.3434257555777360	0.100084
H	0.2955619301697557 0.8507000312993993 0.3378451697019446	0.101560
H	0.2956017458667021 0.6498254825946292 0.4350218623316368	0.102067
H	0.4189968601262551 0.6509103861667059 0.4390463872045111	0.104124
H	0.8612831147605005 0.6944388260193141 0.2853467852743782	0.094270
H	0.9854426066026964 0.6928191925039228 0.2767334634548869	0.113532
H	0.9894494202232367 0.8007634099752853 0.5139514653383851	0.113586
H	0.8648691875649163 0.7975070094284433 0.5132646982812276	0.098833
H	0.0808640986411933 0.6475580450493751 0.3434257555777360	0.100084
H	0.2044380698302442 0.6492999687006007 0.3378451697019446	0.101559
H	0.2043982541332977 0.8501744694053668 0.4350218623316368	0.102055
H	0.0810031518737458 0.8490895658332901 0.4390463872045111	0.104125
H	0.6944388260193141 0.6387169322394999 0.2853467852743782	0.094261
H	0.6928191925039228 0.5145573933973036 0.2767334634548869	0.113533
H	0.8007634099752853 0.5105505327767630 0.5139514653383851	0.113590
H	0.7975070094284433 0.6351307644350869 0.5132646982812276	0.098811
H	0.6475580450493751 0.4191359253588015 0.3434257555777360	0.100084
H	0.6492999687006007 0.2955619301697557 0.3378451697019446	0.101560
H	0.8501744694053668 0.2956017458667021 0.4350218623316368	0.102054
H	0.8490895658332901 0.4189968601262551 0.4390463872045111	0.104125
H	0.8055612219806899 0.8612831147605005 0.2853467852743782	0.094269
H	0.8071808074960772 0.9854426066026964 0.2767334634548869	0.113531
H	0.6992365900247147 0.9894494202232367 0.5139514653383851	0.113587
H	0.7024929905715567 0.8648691875649163 0.5132646982812276	0.098833
H	0.8524419549506249 0.0808640986411933 0.3434257555777360	0.100085
H	0.8507000312993993 0.2044380698302442 0.3378451697019446	0.101560
H	0.6498254825946292 0.2043982541332977 0.4350218623316368	0.102067
H	0.6509103861667059 0.0810031518737458 0.4390463872045111	0.104124
H	0.3605675508372844 0.3035973601673665 0.2157669140027038	0.099644
H	0.4847082960814774 0.3063327900412332 0.2247406224561703	0.113579
H	0.4902350363655183 0.1985547558957543 0.9874401112652613	0.113470
H	0.3656294143290816 0.2006469265122483 0.9878331549918539	0.093221
H	0.5811330550349789 0.3528250201750963 0.1571111661113295	0.100128
H	0.7047739249200466 0.3508839807059139 0.1618641718201933	0.101716
H	0.7041366792919942 0.1500506381893003 0.0646715576490063	0.101918
H	0.5807447215929419 0.1512612241470684 0.0615403552400786	0.104086
H	0.1394324611627168 0.1964026398326338 0.2157669140027038	0.099644
H	0.0152917339185250 0.1936671859587650 0.2247406224561703	0.113579
H	0.0097649666344783 0.3014452441042457 0.9874401112652613	0.113470
H	0.1343705736709174 0.2993530734877519 0.9878331549918539	0.093222
H	0.9188668969650242 0.1471749918249046 0.1571111661113295	0.100128
H	0.7952260750799534 0.1491160072940852 0.1618641718201933	0.101715
H	0.7958633207080058 0.3499493618106999 0.0646715576490063	0.101917
H	0.9192552784070581 0.3487387758529317 0.0615403552400786	0.104086
H	0.3035973601673665 0.1394324611627168 0.2157669140027038	0.099644
H	0.3063327900412332 0.0152917339185250 0.2247406224561703	0.113579
H	0.1985547558957543 0.0097649666344783 0.9874401112652613	0.113471
H	0.2006469265122483 0.1343705736709174 0.9878331549918539	0.093222
H	0.3528250201750963 0.9188668969650242 0.1571111661113295	0.100129
H	0.3508839807059139 0.7952260750799534 0.1618641718201933	0.101716
H	0.1500506381893003 0.7958633207080058 0.0646715576490063	0.101917
H	0.1512612241470684 0.9192552784070581 0.0615403552400786	0.104086
H	0.1964026398326338 0.3605675508372844 0.2157669140027038	0.099644
H	0.1936671859587650 0.4847082960814774 0.2247406224561703	0.113579
H	0.3014452441042457 0.4902350363655183 0.9874401112652613	0.113469
H	0.2993530734877519 0.3656294143290816 0.9878331549918539	0.093221
H	0.1471749918249046 0.5811330550349789 0.1571111661113295	0.100128
H	0.1491160072940852 0.7047739249200466 0.1618641718201933	0.101715
H	0.3499493618106999 0.7041366792919942 0.0646715576490063	0.101918
H	0.3487387758529317 0.5807447215929419 0.0615403552400786	0.104087
Zn	0.2500000000000000 0.2500000000000000 0.5956404620846500	0.774429
Zn	0.7500000000000000 0.7500000000000000 0.8947170954180670	0.774356
Zn	0.7500000000000000 0.7500000000000000 0.3947170954180673	0.774357
Zn	0.2500000000000000 0.2500000000000000 0.0956404700846510	0.774433
Nb	0.2500000000000000 0.2500000000000000 0.3570551667491960	2.455656
Nb	0.7500000000000000 0.7500000000000000 0.1556869467943036	2.458548
Nb	0.7500000000000000 0.7500000000000000 0.6556869467943036	2.458548
Nb	0.2500000000000000 0.2500000000000000 0.8570551977491954	2.455656
	  	
