#======================================================================

# CRYSTAL DATA

#----------------------------------------------------------------------

data_VESTA_phase_1


_pd_phase_name                         NbOFFIVE_4_Cu_i
_cell_length_a                         23.41563
_cell_length_b                         20.30798
_cell_length_c                         9.64644
_cell_angle_alpha                      90
_cell_angle_beta                       90
_cell_angle_gamma                      90
_symmetry_space_group_name_H-M         P 1
_symmetry_Int_Tables_number            1

loop_
_symmetry_equiv_pos_as_xyz
   x, y, z

loop_
   _atom_site_label
   _atom_site_fract_x
   _atom_site_fract_y
   _atom_site_fract_z
   _atom_site_charge
C	0.4180215848569467 0.5973878738991864 0.6297342639995721	0.101180
C	0.3740551593991882 0.5516079096763269 0.6271571385270889	-0.166902
C	0.2775148470263215 0.4491089242008245 0.6264551415182281	-0.115425
C	0.2312363428335060 0.4063958097653120 0.6257683550736891	-0.113419
C	0.1296610865638916 0.3189900431909030 0.6257690383071395	-0.162820
C	0.0829061494220243 0.2770426090540281 0.6292898112637515	0.093198
C	0.9180216268569430 0.0973878738991862 0.6297342639995721	0.101180
C	0.8740552013991914 0.0516079036763264 0.6271571385270889	-0.166909
C	0.7775148680263201 0.9491089702008282 0.6264551415182281	-0.115462
C	0.7312363628335071 0.9063958557653085 0.6257683550736891	-0.113415
C	0.6296610865638919 0.8189900431909030 0.6257690383071395	-0.162820
C	0.5829061444220202 0.7770426560540283 0.6292898112637515	0.093198
C	0.5819784151430534 0.4026121261008136 0.1297342249995729	0.101181
C	0.6259448406008121 0.4483920903236730 0.1271571225270879	-0.166909
C	0.7224851319736799 0.5508910757991756 0.1264551725182273	-0.115460
C	0.7687636371664929 0.5936041902346882 0.1257684010736856	-0.113414
C	0.8703389544361080 0.6810099098090967 0.1257690533071444	-0.162820
C	0.9170938975779762 0.7229573439459717 0.1292898272637528	0.093193
C	0.0819784201430572 0.9026120801008169 0.1297342249995729	0.101180
C	0.1259448196008066 0.9483920443236764 0.1271571225270879	-0.166902
C	0.2224851319736803 0.0508910707991714 0.1264551725182274	-0.115424
C	0.2687636571664938 0.0936041782346940 0.1257684010736856	-0.113420
C	0.3703389134361080 0.1810099568090968 0.1257690533071444	-0.162820
C	0.4170938555779797 0.2229573679459737 0.1292898272637528	0.093198
C	0.5824975433459200 0.5971481344967234 0.8684267898767444	0.100675
C	0.6263754264859143 0.5513084754828412 0.8699305859507594	-0.166205
C	0.7221203020206669 0.4491134615647568 0.8701108484551497	-0.112743
C	0.7684687957310607 0.4065195298609988 0.8717114143600103	-0.112719
C	0.8701273453834352 0.3194345424800436 0.8738388498016969	-0.167322
C	0.9168985044731407 0.2775037151371987 0.8709186080870088	0.094320
C	0.0824975483459240 0.0971481344967237 0.8684267898767444	0.100674
C	0.1263754054859083 0.0513084694828411 0.8699305859507594	-0.166200
C	0.2221203020206670 0.9491135075647610 0.8701108484551497	-0.112720
C	0.2684688157310620 0.9065195758609959 0.8717114143600103	-0.112752
C	0.3701273043834352 0.8194345424800432 0.8738388498016969	-0.167301
C	0.4168984624731448 0.7775037621371990 0.8709186080870088	0.094345
C	0.4175024566540800 0.4028518655032763 0.3684268208767436	0.100675
C	0.3736245735140866 0.4486915245171584 0.3699306479507574	-0.166201
C	0.2778796769793349 0.5508865384352428 0.3701108484551501	-0.112741
C	0.2315311842689378 0.5934804701390008 0.3717113833600111	-0.112713
C	0.1298726956165646 0.6805654105199564 0.3738387878016986	-0.167302
C	0.0831015425268594 0.7224962378628010 0.3709185460870112	0.094345
C	0.9175024986540764 0.9028518195032799 0.3684268208767436	0.100684
C	0.8736246155140892 0.9486914785171621 0.3699306479507574	-0.166209
C	0.7778796979793331 0.0508865334352393 0.3701108484551501	-0.112743
C	0.7315312042689393 0.0934804581390072 0.3717113833600111	-0.112719
C	0.6298726956165647 0.1805654575199566 0.3738387878016986	-0.167301
C	0.5831015375268557 0.2224962618628029 0.3709185460870112	0.094344
C	0.5824975433459200 0.4028518655032763 0.3684268208767436	0.100676
C	0.6263754264859143 0.4486915245171584 0.3699306479507574	-0.166206
C	0.7221203020206669 0.5508865384352428 0.3701108484551501	-0.112745
C	0.7684687957310607 0.5934804701390008 0.3717113833600111	-0.112717
C	0.8701273453834352 0.6805654105199564 0.3738387878016986	-0.167323
C	0.9168985044731407 0.7224962378628010 0.3709185460870112	0.094320
C	0.0824975483459240 0.9028518195032799 0.3684268208767436	0.100684
C	0.1263754054859083 0.9486914785171621 0.3699306479507574	-0.166201
C	0.2221203020206670 0.0508865334352393 0.3701108484551501	-0.112724
C	0.2684688157310620 0.0934804581390072 0.3717113833600111	-0.112719
C	0.3701273043834352 0.1805654575199566 0.3738387878016986	-0.167301
C	0.4168984624731448 0.2224962618628029 0.3709185460870112	0.094344
C	0.4175024566540800 0.5971481344967234 0.8684267898767444	0.100675
C	0.3736245735140866 0.5513084754828412 0.8699305859507594	-0.166197
C	0.2778796769793349 0.4491134615647568 0.8701108484551497	-0.112725
C	0.2315311842689378 0.4065195298609988 0.8717114143600103	-0.112717
C	0.1298726956165646 0.3194345424800436 0.8738388498016969	-0.167302
C	0.0831015425268594 0.2775037151371987 0.8709186080870088	0.094345
C	0.9175024986540764 0.0971481344967237 0.8684267898767444	0.100675
C	0.8736246155140892 0.0513084694828411 0.8699305859507594	-0.166205
C	0.7778796979793331 0.9491135075647610 0.8701108484551497	-0.112726
C	0.7315312042689393 0.9065195758609959 0.8717114143600103	-0.112754
C	0.6298726956165647 0.8194345424800432 0.8738388498016969	-0.167301
C	0.5831015375268557 0.7775037621371990 0.8709186080870088	0.094344
C	0.4180215848569467 0.4026121261008136 0.1297342249995729	0.101182
C	0.3740551593991882 0.4483920903236730 0.1271571225270879	-0.166904
C	0.2775148470263215 0.5508910757991756 0.1264551725182274	-0.115445
C	0.2312363428335060 0.5936041902346882 0.1257684010736856	-0.113414
C	0.1296610865638916 0.6810099098090967 0.1257690533071444	-0.162824
C	0.0829061494220243 0.7229573439459717 0.1292898272637528	0.093198
C	0.9180216268569430 0.9026120801008169 0.1297342249995729	0.101182
C	0.8740552013991914 0.9483920443236764 0.1271571225270879	-0.166908
C	0.7775148680263201 0.0508910707991714 0.1264551725182273	-0.115422
C	0.7312363628335071 0.0936041782346940 0.1257684010736856	-0.113426
C	0.6296610865638919 0.1810099568090968 0.1257690533071444	-0.162823
C	0.5829061444220202 0.2229573679459737 0.1292898272637528	0.093198
C	0.5819784151430534 0.5973878738991864 0.6297342639995721	0.101182
C	0.6259448406008121 0.5516079096763269 0.6271571385270889	-0.166909
C	0.7224851319736799 0.4491089242008245 0.6264551415182281	-0.115422
C	0.7687636371664929 0.4063958097653120 0.6257683550736891	-0.113426
C	0.8703389544361080 0.3189900431909030 0.6257690383071395	-0.162823
C	0.9170938975779762 0.2770426090540281 0.6292898112637515	0.093194
C	0.0819784201430572 0.0973878738991862 0.6297342639995721	0.101181
C	0.1259448196008066 0.0516079036763264 0.6271571385270889	-0.166904
C	0.2224851319736803 0.9491089702008282 0.6264551415182281	-0.115447
C	0.2687636571664938 0.9063958557653085 0.6257683550736891	-0.113416
C	0.3703389134361080 0.8189900431909030 0.6257690383071395	-0.162824
C	0.4170938555779797 0.7770426560540283 0.6292898112637515	0.093198
C	0.3496349784845893 0.5247402918905166 0.7481376749875049	0.119072
C	0.3023614537578312 0.4747544817786675 0.7480317371726936	0.071190
C	0.2056305464426431 0.3846414655291501 0.7489884267118295	0.063942
C	0.1551050302355947 0.3410202566027222 0.7494924653787842	0.103756
C	0.8496350194845895 0.0247402898905160 0.7481376749875049	0.119131
C	0.8023615167578326 0.9747545277786712 0.7480317371726936	0.071188
C	0.7056305464426428 0.8846414655291501 0.7489884267118295	0.063952
C	0.6551050512355933 0.8410202566027218 0.7494924653787842	0.103756
C	0.6503650215154103 0.4752597081094837 0.2481376599875064	0.119131
C	0.6976384832421674 0.5252454722213288 0.2480317221726960	0.071180
C	0.7943694535573572 0.6153585344708499 0.2489884117118312	0.063946
C	0.8448949487644067 0.6589797433972782 0.2494924503787866	0.103761
C	0.1503650115154097 0.9752596611094830 0.2481376599875064	0.119069
C	0.1976385252421637 0.0252455092213283 0.2480317221726960	0.071188
C	0.2943694535573566 0.1153585454708543 0.2489884117118312	0.063948
C	0.3448949697644054 0.1589797663972763 0.2494924503787866	0.103755
C	0.6503650215154103 0.5247402918905166 0.7481376749875049	0.119111
C	0.6976384832421674 0.4747544817786675 0.7480317371726936	0.071181
C	0.7943694535573572 0.3846414655291501 0.7489884267118295	0.063947
C	0.8448949487644067 0.3410202566027222 0.7494924653787842	0.103762
C	0.1503650115154097 0.0247402898905160 0.7481376749875049	0.119099
C	0.1976385252421637 0.9747545277786712 0.7480317371726936	0.071194
C	0.2943694535573566 0.8846414655291501 0.7489884267118295	0.063952
C	0.3448949697644054 0.8410202566027218 0.7494924653787842	0.103755
C	0.3496349784845893 0.4752597081094837 0.2481376599875064	0.119099
C	0.3023614537578312 0.5252454722213288 0.2480317221726960	0.071186
C	0.2056305464426431 0.6153585344708499 0.2489884117118312	0.063942
C	0.1551050302355947 0.6589797433972782 0.2494924503787866	0.103756
C	0.8496350194845895 0.9752596611094830 0.2481376599875064	0.119108
C	0.8023615167578326 0.0252455092213283 0.2480317221726960	0.071179
C	0.7056305464426428 0.1153585454708543 0.2489884117118312	0.063948
C	0.6551050512355933 0.1589797663972763 0.2494924503787866	0.103755
H	0.4366884671874725 0.6171016074859942 0.5344182023111705	0.112715
H	0.3607069248252441 0.5388776323877646 0.5240222991984953	0.106280
H	0.2937511560520606 0.4612828323409357 0.5254430237194460	0.085593
H	0.2152692429397304 0.3902168494108085 0.5253619129148743	0.104786
H	0.1457901390400991 0.3333284513265001 0.5245210255176229	0.121837
H	0.0625925597639830 0.2581209761240710 0.5350617354312848	0.114799
H	0.9366884671874726 0.1171015844859958 0.5344182023111705	0.112715
H	0.8607069248252440 0.0388776523877591 0.5240222991984953	0.106280
H	0.7937510940520629 0.9612828323409359 0.5254430237194460	0.085599
H	0.7152692219397323 0.8902168964108093 0.5253619129148743	0.104786
H	0.6457901390400987 0.8333284743264985 0.5245210255176229	0.121837
H	0.5625925447639855 0.7581209761240713 0.5350617354312848	0.114799
H	0.5633115328125275 0.3828984155140042 0.0344181723111678	0.112715
H	0.6392930751747560 0.4611223676122355 0.0240222991984952	0.106281
H	0.7062489059479371 0.5387171676590641 0.0254430857194439	0.085598
H	0.7847307780602677 0.6097831505891911 0.0253618819148688	0.104786
H	0.8542098189598978 0.6666715726735019 0.0245210565176218	0.121836
H	0.9374074972360109 0.7418790238759287 0.0350617044312862	0.114799
H	0.0633115178125228 0.8828984385140096 0.0344181723111678	0.112715
H	0.1392931061747551 0.9611223216122387 0.0240222991984952	0.106279
H	0.2062488649479378 0.0387171736590646 0.0254430857194439	0.085596
H	0.2847307780602677 0.1097831385891905 0.0253618819148688	0.104786
H	0.3542098609599005 0.1666715606735008 0.0245210565176218	0.121836
H	0.4374074142360150 0.2418789998759270 0.0350617044312862	0.114799
H	0.5640909543420390 0.6167430875256261 -0.0358321325489265	0.111060
H	0.6402682731111492 0.5381209495723975 -0.0275762385164785	0.104668
H	0.7054217594198174 0.4612197941486476 -0.0293123855859727	0.085563
H	0.7841725093123610 0.3905128315241835 -0.0274763568330418	0.104417
H	0.8537806113892946 0.3342296410226705 -0.0253309804988451	0.121926
H	0.9371275162970569 0.2588339543859814 -0.0346100494588063	0.110773
H	0.0640909393420349 0.1167430645256279 -0.0358321325489266	0.111060
H	0.1402683041111487 0.0381209695723919 -0.0275762385164785	0.104667
H	0.2054217184198181 0.9612197941486479 -0.0293123855859727	0.085564
H	0.2841725093123611 0.8905128785241840 -0.0274763568330418	0.104420
H	0.3537806533892982 0.8342296640226687 -0.0253309804988451	0.121924
H	0.4371274332970611 0.7588339543859809 -0.0346100494588063	0.110752
H	0.4359090456579603 0.3832569354743719 0.4641678884510716	0.111060
H	0.3597317268888502 0.4618790504276027 0.4724237864835197	0.104667
H	0.2945783025801804 0.5387802058513521 0.4706875914140290	0.085564
H	0.2158275116876369 0.6094871684758163 0.4725236871669546	0.104420
H	0.1462193466107021 0.6657703829773315 0.4746689695011506	0.121921
H	0.0628725407029369 0.7411660456140191 0.4653899345411994	0.110753
H	0.9359090456579610 0.8832569584743777 0.4641678884510716	0.111059
H	0.8597317268888508 0.9618790044276058 0.4724237864835198	0.104668
H	0.7945782405801826 0.0387802118513529 0.4706875914140290	0.085563
H	0.7158274906876390 0.1094871564758155 0.4725236871669546	0.104417
H	0.6462193466107019 0.1657703709773305 0.4746689695011506	0.121923
H	0.5628725257029394 0.2411660216140166 0.4653899345411994	0.110753
H	0.5640909543420390 0.3832569354743719 0.4641678884510716	0.111060
H	0.6402682731111492 0.4618790504276027 0.4724237864835198	0.104668
H	0.7054217594198174 0.5387802058513521 0.4706875914140290	0.085566
H	0.7841725093123610 0.6094871684758163 0.4725236871669546	0.104418
H	0.8537806113892946 0.6657703829773315 0.4746689695011506	0.121925
H	0.9371275162970569 0.7411660456140191 0.4653899345411994	0.110774
H	0.0640909393420349 0.8832569584743777 0.4641678884510716	0.111059
H	0.1402683041111487 0.9618790044276058 0.4724237864835197	0.104666
H	0.2054217184198181 0.0387802118513529 0.4706875914140290	0.085560
H	0.2841725093123611 0.1094871564758155 0.4725236871669546	0.104418
H	0.3537806533892982 0.1657703709773305 0.4746689695011506	0.121922
H	0.4371274332970611 0.2411660216140166 0.4653899345411994	0.110753
H	0.4359090456579603 0.6167430875256261 -0.0358321325489266	0.111060
H	0.3597317268888502 0.5381209495723975 -0.0275762385164785	0.104667
H	0.2945783025801804 0.4612197941486476 -0.0293123855859727	0.085561
H	0.2158275116876369 0.3905128315241835 -0.0274763568330418	0.104420
H	0.1462193466107021 0.3342296410226705 -0.0253309804988451	0.121922
H	0.0628725407029369 0.2588339543859814 -0.0346100494588063	0.110752
H	0.9359090456579610 0.1167430645256279 -0.0358321325489266	0.111060
H	0.8597317268888508 0.0381209695723919 -0.0275762385164785	0.104668
H	0.7945782405801826 0.9612197941486479 -0.0293123855859727	0.085566
H	0.7158274906876390 0.8905128785241840 -0.0274763568330418	0.104420
H	0.6462193466107019 0.8342296640226687 -0.0253309804988451	0.121923
H	0.5628725257029396 0.7588339543859809 -0.0346100494588063	0.110752
H	0.4366884671874725 0.3828984155140042 0.0344181723111678	0.112715
H	0.3607069248252441 0.4611223676122355 0.0240222991984952	0.106280
H	0.2937511560520606 0.5387171676590641 0.0254430857194439	0.085597
H	0.2152692429397304 0.6097831505891911 0.0253618819148688	0.104787
H	0.1457901390400991 0.6666715726735019 0.0245210565176219	0.121836
H	0.0625925597639830 0.7418790238759287 0.0350617044312862	0.114799
H	0.9366884671874725 0.8828984385140096 0.0344181723111678	0.112714
H	0.8607069248252440 0.9611223216122387 0.0240222991984952	0.106280
H	0.7937510940520629 0.0387171736590646 0.0254430857194439	0.085594
H	0.7152692219397323 0.1097831385891905 0.0253618819148688	0.104787
H	0.6457901390400987 0.1666715606735008 0.0245210565176219	0.121836
H	0.5625925447639855 0.2418789998759270 0.0350617044312862	0.114799
H	0.5633115328125275 0.6171016074859942 0.5344182023111705	0.112715
H	0.6392930751747560 0.5388776323877646 0.5240222991984953	0.106281
H	0.7062489059479371 0.4612828323409357 0.5254430237194460	0.085590
H	0.7847307780602677 0.3902168494108085 0.5253619129148743	0.104787
H	0.8542098189598978 0.3333284513265001 0.5245210255176229	0.121837
H	0.9374074972360109 0.2581209761240710 0.5350617354312848	0.114799
H	0.0633115178125228 0.1171015844859958 0.5344182023111705	0.112715
H	0.1392931061747551 0.0388776523877591 0.5240222991984953	0.106279
H	0.2062488649479378 0.9612828323409359 0.5254430237194460	0.085597
H	0.2847307780602677 0.8902168964108093 0.5253619129148743	0.104786
H	0.3542098609599005 0.8333284743264985 0.5245210255176229	0.121837
H	0.4374074142360150 0.7581209761240713 0.5350617354312848	0.114799
Cu	0.5000000000000000 0.6883084392016777 0.7497270791737484	0.660408
Cu	-0.0000000000000000 0.1883084392016777 0.7497270791737484	0.660406
Cu	0.5000000000000000 0.3116915607983223 0.2497270641737507	0.660408
Cu	-0.0000000000000000 0.8116915137983219 0.2497270641737507	0.660405
F	0.5000000000000000 0.6855928325167299 0.4671400673525745	-0.673217
F	-0.0000000000000000 0.1855928665167330 0.4671400673525745	-0.673217
F	0.5000000000000000 0.3144071444832717 -0.0328599636474247	-0.673217
F	-0.0000000000000000 0.8144071214832734 -0.0328599636474247	-0.673217
F	0.4407760335289615 0.7507331141911165 0.2616288335592792	-0.614072
F	0.5586372179452976 0.6150809856289280 0.2622877812312924	-0.607644
F	0.9407760335289614 0.2507331601911138 0.2616288335592792	-0.614074
F	0.0586372179452978 0.1150809976289217 0.2622877812312924	-0.607644
F	0.5592239664710386 0.2492668398088861 0.7616288485592765	-0.614074
F	0.4413627820547022 0.3849190143710722 0.7622877962312907	-0.607642
F	0.0592239454710402 0.7492668858088835 0.7616288485592765	-0.614074
F	0.9413627820547024 0.8849190603710758 0.7622877962312907	-0.607642
F	0.5592239664710386 0.7507331141911165 0.2616288335592792	-0.614073
F	0.4413627820547022 0.6150809856289280 0.2622877812312924	-0.607644
F	0.0592239454710402 0.2507331601911138 0.2616288335592792	-0.614073
F	0.9413627820547024 0.1150809976289217 0.2622877812312924	-0.607644
F	0.4407760335289615 0.2492668398088861 0.7616288485592765	-0.614074
F	0.5586372179452976 0.3849190143710722 0.7622877962312907	-0.607642
F	0.9407760335289614 0.7492668858088835 0.7616288485592765	-0.614075
F	0.0586372179452978 0.8849190603710758 0.7622877962312907	-0.607643
O	0.5000000000000000 0.6842139441299949 0.0521482502339946	-0.963691
O	-0.0000000000000000 0.1842139781299976 0.0521482502339946	-0.963690
O	0.5000000000000000 0.3157860328700068 0.5521482732339932	-0.963692
O	-0.0000000000000000 0.8157860098700084 0.5521482732339932	-0.963690
N	0.4397809964192185 0.6198026618590704 0.7494953048354711	-0.211286
N	0.5605789933879497 0.7564855671138386 0.7504037580044933	-0.219618
N	0.9397810374192184 0.1198026728590679 0.7494953048354711	-0.211287
N	0.0605790093879506 0.2564855201138382 0.7504037580044933	-0.219617
N	0.5602190035807815 0.3801973151409311 0.2494952898354731	-0.211288
N	0.4394210066120506 0.2435144558861599 0.2504037430044954	-0.219616
N	0.0602190035807815 0.8801973381409296 0.2494952898354731	-0.211287
N	0.9394210066120503 0.7435144328861614 0.2504037430044954	-0.219594
N	0.5602190035807815 0.6198026618590704 0.7494953048354711	-0.211287
N	0.4394210066120506 0.7564855671138386 0.7504037580044933	-0.219618
N	0.0602190035807815 0.1198026728590679 0.7494953048354711	-0.211286
N	0.9394210066120503 0.2564855201138382 0.7504037580044933	-0.219595
N	0.4397809964192185 0.3801973151409311 0.2494952898354731	-0.211288
N	0.5605789933879497 0.2435144558861599 0.2504037430044954	-0.219616
N	0.9397810374192184 0.8801973381409296 0.2494952898354731	-0.211289
N	0.0605790093879506 0.7435144328861614 0.2504037430044954	-0.219616
Nb	0.5000000000000000 0.6833810861529738 0.2384510967336525	2.453260
Nb	-0.0000000000000000 0.1833811321529703 0.2384510967336525	2.453261
Nb	0.5000000000000000 0.3166188678470299 0.7384511117336499	2.453260
Nb	-0.0000000000000000 0.8166189138470262 0.7384511117336497	2.453261
	  	
