#======================================================================

# CRYSTAL DATA

#----------------------------------------------------------------------

data_VESTA_phase_1


_pd_phase_name                         NbOFFIVE_14_Cu_i
_cell_length_a                         13.13997
_cell_length_b                         13.12336
_cell_length_c                         8.31444
_cell_angle_alpha                      87.98035
_cell_angle_beta                       87.83264
_cell_angle_gamma                      87.84444
_symmetry_space_group_name_H-M         P 1
_symmetry_Int_Tables_number            1

loop_
_symmetry_equiv_pos_as_xyz
   x, y, z

loop_
   _atom_site_label
   _atom_site_fract_x
   _atom_site_fract_y
   _atom_site_fract_z
   _atom_site_charge
C	0.5680645749850542 0.2674804343205293 0.3595319443958331	-0.177175
C	0.4623431607220129 0.2711574883706994 0.3665028422657492	0.111979
C	0.9373074100353689 0.2895447325059911 0.4093270247674469	-0.166514
C	0.0429228460861225 0.2829474960350963 0.3965803327267518	0.114398
C	0.2651011300904693 0.5678272517111620 0.3613560324734286	-0.177569
C	0.2686571096083988 0.4619894764795770 0.3683911489009123	0.112897
C	0.2968949590155380 0.9370250154398319 0.4047792856499555	-0.164773
C	0.2894586601454590 0.0427462126165928 0.3929747751323495	0.112099
C	0.9340735291197524 0.2350715639106374 0.1353158935146207	-0.176107
C	0.0398837474541748 0.2317432617792677 0.1317637021798241	0.109614
C	0.5606751409329361 0.2078606765190167 0.0889475894324308	-0.162553
C	0.4550156305882204 0.2147089440276995 0.1052006743369947	0.111054
C	0.2090748073837140 0.5599526792726347 0.0889865911879757	-0.164386
C	0.2160101523996167 0.4542690371699671 0.1052121556653740	0.111417
C	0.2321793278249995 0.9336727071071877 0.1371033682773393	-0.175702
C	0.2285352725300293 0.0395970431506691 0.1340665757696843	0.111038
C	0.4339625919115778 0.7357589808061448 0.6361096133306335	-0.175743
C	0.5397398069906203 0.7328950541698324 0.6324284815744803	0.110833
C	0.0601178220030287 0.7243564003736472 0.5797096572363106	-0.159559
C	0.9545209985198256 0.7283408214051695 0.5979135030864702	0.112583
C	0.7370826297382425 0.4340571286906224 0.6357260147512412	-0.175172
C	0.7347408456917509 0.5399148259231594 0.6320655737260951	0.110735
C	0.7125919519233856 0.0602408671454883 0.5848030134550805	-0.161082
C	0.7176635318538991 0.9544860484159744 0.6020454538290964	0.112320
C	0.0682184921864661 0.7608971881767358 0.8614378211882102	-0.178238
C	0.9625340350319027 0.7631825951029542 0.8693953683952933	0.111826
C	0.4371619725350316 0.7829330030741743 0.9139053063054606	-0.161275
C	0.5427873827907540 0.7782134043832802 0.9001958499256503	0.115075
C	0.7830047234512291 0.4374439434450136 0.9139794068464152	-0.163275
C	0.7783815683876827 0.5431756964658302 0.9003931926205117	0.114808
C	0.7655547341020148 0.0680214052164558 0.8589867168244208	-0.177664
C	0.7686219529549589 0.9622624733488938 0.8661360224515021	0.111911
C	0.6185824538850233 0.2358168657739694 0.2169361161966051	0.191151
C	0.8814313592781873 0.2636085976713574 0.2777867117838956	0.193831
C	0.2353656295338841 0.6180956267579432 0.2178933878582959	0.191320
C	0.2661164667078897 0.8810790334823710 0.2761155251922526	0.190544
C	0.3813423570002292 0.7605901203968739 0.7805056832441333	0.192202
C	0.1183058659394963 0.7415143193759123 0.7127771688698358	0.191378
C	0.7609700930322217 0.3814958746429857 0.7803302461463515	0.192101
C	0.7376324428289018 0.1183463412322134 0.7144085182902445	0.191146
H	0.6107039870202935 0.2853693071611879 0.4640711413213403	0.108301
H	0.4197644581841632 0.2933319079010241 0.4754763540077636	0.096494
H	0.8988272860045856 0.3137893935720854 0.5203424789515312	0.125971
H	0.0895799607375075 0.3012402768021896 0.4962103681283488	0.098972
H	0.2814394368653348 0.6108528280792507 0.4663459902393984	0.109764
H	0.2892479398487722 0.4194310526427679 0.4780023714415264	0.095914
H	0.3255110144503017 0.8985571402985096 0.5128035614506776	0.126318
H	0.3109569719926614 0.0893606728328883 0.4910168147484859	0.099870
H	0.8933025445218635 0.2188399014169309 0.0281054746445884	0.112545
H	0.0838050476851502 0.2119116227614925 0.0228309973259048	0.101738
H	0.5973297613675608 0.1813072279737127 0.9779136680319026	0.127186
H	0.4070678370028984 0.1945715763186996 0.0081556647294367	0.104464
H	0.1840838071890112 0.5962657708697953 0.9770311094467832	0.127396
H	0.1973707364767813 0.4062102930392479 0.0072101313203717	0.104067
H	0.2120585715215060 0.8927726269103513 0.0319431967068542	0.114556
H	0.2048624799790249 0.0835927861588874 0.0274342758051248	0.101356
H	0.3934608604199706 0.7213760198539713 0.5277800781664107	0.109223
H	0.5839198427148709 0.7150626665160190 0.5227869143764367	0.101890
H	0.0963048508266768 0.7083669668269176 0.4631717715579238	0.126356
H	0.9064170427250545 0.7153894630310476 0.4976646986581346	0.100898
H	0.7233128665597134 0.3932406446771354 0.5273753139732369	0.109632
H	0.7178265080733035 0.5839604479058581 0.5221988075273722	0.102634
H	0.6894802091847095 0.0966585833081202 0.4718830229458291	0.126853
H	0.6990104976099716 0.9064757760286304 0.5040862913581876	0.101718
H	0.1109326428400121 0.7712672776777555 0.9691148387111832	0.104195
H	0.9198984394220825 0.7768264312544774 0.9820341953337053	0.096494
H	0.3987374567975083 0.8034309338501879 0.0268473224797539	0.124952
H	0.5893913677376267 0.7947831414586848 0.0006590763378048	0.095670
H	0.8028785765876261 0.3990938131738057 0.0270817325322260	0.125532
H	0.7943915900997690 0.5898645113604917 0.0012786339784778	0.096018
H	0.7814470435546013 0.1107510842131112 0.9644909787366941	0.106694
H	0.7887697972503583 0.9195820627925281 0.9757969185466183	0.098004
N	0.7741292974026247 0.2731966720249130 0.2967438738319932	-0.106136
N	0.2766306874349083 0.7736295072991091 0.2935129184344537	-0.106975
N	0.7259509491097819 0.2254158166942000 0.1961373621252855	-0.104079
N	0.2248735300827742 0.7254501542386138 0.1980770727209854	-0.103744
N	0.2254324121129441 0.7343496700710790 0.6883937394641735	-0.101474
N	0.7291140092216439 0.2257558031769414 0.6916679821753374	-0.102529
N	0.2741535623837780 0.7681331161165729 0.8022146639535470	-0.103386
N	0.7686328931848639 0.2741541643136393 0.8009662708809968	-0.104365
N	0.4067822511830737 0.2459100049042353 0.2415533249105399	-0.209137
N	0.0933393328365701 0.2541638170643868 0.2606510962532556	-0.209185
N	0.2453429979177051 0.4061945775258880 0.2425219694143508	-0.210224
N	0.2555147581767436 0.0930953121415574 0.2604210272663303	-0.208207
N	0.5932203777688386 0.7531921588607974 0.7624709085668823	-0.207402
N	0.9065551619248584 0.7474812825196304 0.7401718825062673	-0.207645
N	0.7543393560965924 0.5935189240282531 0.7623859866783355	-0.208352
N	0.7454762832187510 0.9064717632852988 0.7400519298813764	-0.206767
F	0.3541659963858826 0.1373957429475267 0.7607491455865573	-0.591239
F	0.1466480218577010 0.3592070218366378 0.7610989801658423	-0.590888
F	0.3573559933716400 0.3482513878358389 0.7456112630468661	-0.592096
F	0.1439959448539322 0.1488796322166039 0.7790385287217934	-0.591988
F	0.6393086641223451 0.8552710543263372 0.2629835985855338	-0.588379
F	0.8576972048554362 0.6449039758063950 0.2599844175179838	-0.588246
F	0.6482802217522783 0.6450908545720397 0.2732986504785319	-0.589742
F	0.8499699834259457 0.8554750813486658 0.2530334576977550	-0.590357
F	0.2500935773457448 0.2487791289370508 -0.0116222614207331	-0.644741
F	0.7471865207842262 0.7480522238181085 0.4887972477425109	-0.639428
O	0.2503505175011344 0.2489001082005056 0.5211119779344084	-0.959565
O	0.7511194371959540 0.7528604629139586 0.0215667393504553	-0.955134
Nb	0.2506524115550938 0.2484784486212514 0.7363450819271482	2.434287
Nb	0.7490325479739539 0.7507300739574728 0.2369848373205475	2.427659
Cu	0.2500508938441920 0.2496860660377578 0.2579160437920374	0.735533
Cu	0.7499040036667464 0.7500610217973794 0.7580217311634635	0.730780
	  	
