#======================================================================

# CRYSTAL DATA

#----------------------------------------------------------------------

data_VESTA_phase_1


_pd_phase_name                         NbOFFIVE_1_Fe
_cell_length_a                         11.42580
_cell_length_b                         11.42580
_cell_length_c                         7.94445
_cell_angle_alpha                      90
_cell_angle_beta                       90
_cell_angle_gamma                      90
_symmetry_space_group_name_H-M         P 1
_symmetry_Int_Tables_number            1

loop_
_symmetry_equiv_pos_as_xyz
   x, y, z

loop_
   _atom_site_label
   _atom_site_fract_x
   _atom_site_fract_y
   _atom_site_fract_z
   _atom_site_charge
C	0.2498044588847705 0.4575631394472475 0.3671415746906629	0.104220
C	0.1282583271876618 0.4571503615434251 0.3614894987407027	-0.176002
C	0.7501955841152295 0.5424369035527526 0.3671415746906629	0.104220
C	0.8717416188123338 0.5428496384565751 0.3614894987407027	-0.176002
C	0.5424369035527526 0.2498044588847705 0.3671415746906629	0.104220
C	0.5428496384565751 0.1282583271876618 0.3614894987407027	-0.176002
C	0.4575631394472475 0.7501955841152295 0.3671415746906629	0.104220
C	0.4571503615434251 0.8717416188123338 0.3614894987407027	-0.176003
C	0.7509337920908516 0.4564932606274603 0.6318221530222736	0.105506
C	0.8723958118887375 0.4565169620119968 0.6369726495577328	-0.175751
C	0.2490662509091485 0.5435067823725399 0.6318221530222736	0.105506
C	0.1276041341112580 0.5434830379880031 0.6369726495577328	-0.175750
C	0.4564932606274603 0.2490662509091485 0.6318221530222736	0.105506
C	0.4565169620119968 0.1276041341112580 0.6369726495577328	-0.175751
C	0.5435067823725399 0.7509337920908516 0.6318221530222736	0.105506
C	0.5434830379880031 0.8723958118887375 0.6369726495577328	-0.175751
C	0.0644131125443820 0.5001344658292237 0.4990085655614743	0.099522
C	0.9355869084556230 0.4998655341707758 0.4990085655614743	0.099527
C	0.4998655341707758 0.0644131125443820 0.4990085655614743	0.099522
C	0.5001344658292237 0.9355869084556230 0.4990085655614743	0.099527
H	0.3014210776442300 0.4232316820817777 0.2626662887062380	0.095210
H	0.0834239417251812 0.4211983917949373 0.2519910169931642	0.119771
H	0.6985789013557646 0.5767683179182224 0.2626662887062380	0.095210
H	0.9165760422748174 0.5788016082050627 0.2519910169931642	0.119770
H	0.5767683179182224 0.3014210776442300 0.2626662887062380	0.095210
H	0.5788016082050627 0.0834239417251812 0.2519910169931642	0.119774
H	0.4232316820817777 0.6985789013557646 0.2626662887062380	0.095210
H	0.4211983917949373 0.9165760422748174 0.2519910169931642	0.119773
H	0.6995887740384531 0.4221382794459741 0.7364696621523029	0.089460
H	0.9176741698983361 0.4208265232551825 0.7462518898556693	0.119466
H	0.3004112049615417 0.5778617205540261 0.7364696621523029	0.089460
H	0.0823258141016624 0.5791734767448179 0.7462518898556693	0.119465
H	0.4221382794459741 0.3004112049615417 0.7364696621523029	0.089460
H	0.4208265232551825 0.0823258141016624 0.7462518898556693	0.119468
H	0.5778617205540261 0.6995887740384531 0.7364696621523029	0.089460
H	0.5791734767448179 0.9176741698983361 0.7462518898556693	0.119467
Fe	0.5000000000000000 0.5000000000000000 0.5064213079346158	0.829670
Nb	0.5000000000000000 0.5000000000000000 0.9829233435316789	2.436149
O	0.5000000000000000 0.5000000000000000 0.7562790351436199	-0.918518
F	0.5000000000000000 0.5000000000000000 0.2478421125586528	-0.593772
F	0.3802051030765469 0.3786184380389632 0.0080031717302545	-0.581001
F	0.6197949399234528 0.6213816049610371 0.0080031717302545	-0.581001
F	0.6213816049610371 0.3802051030765469 0.0080031717302545	-0.581001
F	0.3786184380389632 0.6197949399234528 0.0080031717302545	-0.581001
N	0.3097547386244403 0.5005516773219753 0.4998171081973977	-0.238786
N	0.6902453043755592 0.4994483226780247 0.4998171081973977	-0.238786
N	0.4994483226780247 0.3097547386244403 0.4998171081973977	-0.238787
N	0.5005516773219753 0.6902453043755592 0.4998171081973977	-0.238786
	  	
