#======================================================================

# CRYSTAL DATA

#----------------------------------------------------------------------

data_VESTA_phase_1


_pd_phase_name                         NbOFFIVE_2_Fe_i
_cell_length_a                         14.06705
_cell_length_b                         14.06705
_cell_length_c                         8.06377
_cell_angle_alpha                      90
_cell_angle_beta                       90
_cell_angle_gamma                      90
_symmetry_space_group_name_H-M         P 1
_symmetry_Int_Tables_number            1

loop_
_symmetry_equiv_pos_as_xyz
   x, y, z

loop_
   _atom_site_label
   _atom_site_fract_x
   _atom_site_fract_y
   _atom_site_fract_z
   _atom_site_charge
C	-0.0000000000000000 0.3044460309851086 0.3491913251481895	-0.162746
C	-0.0000000000000000 0.2059010510101570 0.3559394139555847	0.109036
C	0.5000000000000000 0.8044460309851084 0.8491912951481942	-0.162685
C	0.5000000000000000 0.7059010510101570 0.8559393549555834	0.109022
C	-0.0000000000000000 0.6955539690148916 0.3491913251481895	-0.162688
C	-0.0000000000000000 0.7940989489898430 0.3559394139555847	0.109024
C	0.5000000000000000 0.1955539690148915 0.8491912951481942	-0.162748
C	0.5000000000000000 0.2940989489898431 0.8559393549555834	0.109039
C	0.6955539690148916 -0.0000000000000000 0.3491913251481895	-0.162686
C	0.7940989489898430 -0.0000000000000000 0.3559394139555847	0.109031
C	0.1955539690148915 0.5000000000000000 0.8491912951481942	-0.162747
C	0.2940989489898431 0.5000000000000000 0.8559393549555834	0.109046
C	0.3044460309851086 -0.0000000000000000 0.3491913251481895	-0.162749
C	0.2059010510101570 -0.0000000000000000 0.3559394139555847	0.109048
C	0.8044460309851084 0.5000000000000000 0.8491912951481942	-0.162688
C	0.7059010510101570 0.5000000000000000 0.8559393549555834	0.109033
C	-0.0000000000000000 0.3054204924295366 0.6484485363528555	-0.164130
C	-0.0000000000000000 0.2069530009304033 0.6429477735604938	0.111493
C	0.5000000000000000 0.8054204924295368 0.1484485063528600	-0.164143
C	0.5000000000000000 0.7069530009304033 0.1429477295604973	0.111495
C	-0.0000000000000000 0.6945795075704632 0.6484485363528555	-0.164146
C	-0.0000000000000000 0.7930469990695967 0.6429477735604938	0.111497
C	0.5000000000000000 0.1945795075704632 0.1484485063528600	-0.164132
C	0.5000000000000000 0.2930469990695969 0.1429477295604973	0.111495
C	0.3054204924295366 -0.0000000000000000 0.6484485363528555	-0.164133
C	0.2069530009304033 -0.0000000000000000 0.6429477735604938	0.111505
C	0.8054204924295368 0.5000000000000000 0.1484485063528600	-0.164146
C	0.7069530009304033 0.5000000000000000 0.1429477295604973	0.111506
C	0.6945795075704632 -0.0000000000000000 0.6484485363528555	-0.164144
C	0.7930469990695967 -0.0000000000000000 0.6429477735604938	0.111504
C	0.1945795075704632 0.5000000000000000 0.1484485063528600	-0.164131
C	0.2930469990695969 0.5000000000000000 0.1429477295604973	0.111503
C	-0.0000000000000000 0.4566519609682038 0.4978082761007290	-0.098306
C	-0.0000000000000000 0.3564115337718207 0.4983360309914305	0.159670
C	0.5000000000000000 0.9566519259682045 0.9978082761007293	-0.098386
C	0.5000000000000000 0.8564114987718213 0.9983360309914304	0.159700
C	-0.0000000000000000 0.5433480390317962 0.4978082761007290	-0.098147
C	-0.0000000000000000 0.6435885012281787 0.4983360309914305	0.159672
C	0.5000000000000000 0.0433480520318008 0.9978082761007293	-0.098066
C	0.5000000000000000 0.1435884842281807 0.9983360309914304	0.159641
C	0.5433480390317962 -0.0000000000000000 0.4978082761007290	-0.098387
C	0.6435885012281787 -0.0000000000000000 0.4983360309914305	0.159701
C	0.0433480520318008 0.5000000000000000 0.9978082761007293	-0.098306
C	0.1435884842281807 0.5000000000000000 0.9983360309914304	0.159670
C	0.4566519609682038 -0.0000000000000000 0.4978082761007290	-0.098067
C	0.3564115337718207 -0.0000000000000000 0.4983360309914305	0.159642
C	0.9566519259682045 0.5000000000000000 0.9978082761007293	-0.098148
C	0.8564114987718213 0.5000000000000000 0.9983360309914304	0.159672
H	-0.0000000000000000 0.3411422123639195 0.2303431481968823	0.120044
H	-0.0000000000000000 0.1639225586570485 0.2427146807794127	0.089034
H	0.5000000000000000 0.8411422463639222 0.7303431631968799	0.120030
H	0.5000000000000000 0.6639225936570478 0.7427146657794150	0.089034
H	-0.0000000000000000 0.6588577536360778 0.2303431481968823	0.120029
H	-0.0000000000000000 0.8360774063429522 0.2427146807794127	0.089034
H	0.5000000000000000 0.1588577706360754 0.7303431631968799	0.120043
H	0.5000000000000000 0.3360774413429514 0.7427146657794150	0.089034
H	0.6588577536360778 -0.0000000000000000 0.2303431481968823	0.120031
H	0.8360774063429522 -0.0000000000000000 0.2427146807794127	0.089033
H	0.1588577706360754 0.5000000000000000 0.7303431631968799	0.120044
H	0.3360774413429514 0.5000000000000000 0.7427146657794150	0.089033
H	0.3411422123639195 -0.0000000000000000 0.2303431481968823	0.120043
H	0.1639225586570485 -0.0000000000000000 0.2427146807794127	0.089033
H	0.8411422463639222 0.5000000000000000 0.7303431631968799	0.120029
H	0.6639225936570478 0.5000000000000000 0.7427146657794150	0.089033
H	-0.0000000000000000 0.3426299907216319 0.7668094266101967	0.119342
H	-0.0000000000000000 0.1654311127995813 0.7565960166041366	0.078696
H	0.5000000000000000 0.8426300247216347 0.2668094556101954	0.119342
H	0.5000000000000000 0.6654311477995806 0.2565959876041376	0.078696
H	-0.0000000000000000 0.6573699752783653 0.7668094266101967	0.119341
H	-0.0000000000000000 0.8345688522004194 0.7565960166041366	0.078696
H	0.5000000000000000 0.1573699922783701 0.2668094556101954	0.119341
H	0.5000000000000000 0.3345688872004187 0.2565959876041376	0.078696
H	0.3426299907216319 -0.0000000000000000 0.7668094266101967	0.119341
H	0.1654311127995813 -0.0000000000000000 0.7565960166041366	0.078696
H	0.8426300247216347 0.5000000000000000 0.2668094556101954	0.119341
H	0.6654311477995806 0.5000000000000000 0.2565959876041376	0.078695
H	0.6573699752783653 -0.0000000000000000 0.7668094266101967	0.119342
H	0.8345688522004194 -0.0000000000000000 0.7565960166041366	0.078695
H	0.1573699922783701 0.5000000000000000 0.2668094556101954	0.119342
H	0.3345688872004187 0.5000000000000000 0.2565959876041376	0.078695
Fe	-0.0000000000000000 -0.0000000000000000 0.5053789505759202	0.866960
Fe	0.5000000000000000 0.5000000000000000 0.0053789505759203	0.866960
Nb	-0.0000000000000000 -0.0000000000000000 0.9824254436027828	2.425274
Nb	0.5000000000000000 0.5000000000000000 0.4824254436027829	2.425274
N	-0.0000000000000000 0.1570365516157356 0.5000421207552831	-0.241472
N	0.5000000000000000 0.6570365516157357 0.0000421207552832	-0.241470
N	-0.0000000000000000 0.8429634483842643 0.5000421207552831	-0.241470
N	0.5000000000000000 0.3429634483842641 0.0000421207552832	-0.241471
N	0.8429634483842643 -0.0000000000000000 0.5000421207552831	-0.241472
N	0.3429634483842641 0.5000000000000000 0.0000421207552832	-0.241474
N	0.1570365516157356 -0.0000000000000000 0.5000421207552831	-0.241473
N	0.6570365516157357 0.5000000000000000 0.0000421207552832	-0.241472
O	-0.0000000000000000 -0.0000000000000000 0.7588570878183343	-0.908843
O	0.5000000000000000 0.5000000000000000 0.2588570588183352	-0.908843
F	-0.0000000000000000 -0.0000000000000000 0.2502783018825352	-0.590032
F	0.5000000000000000 0.5000000000000000 0.7502782578825385	-0.590032
F	0.5970743777467364 0.5970743777467364 0.5115884049749208	-0.569099
F	0.5970743777467364 0.4029255872532644 0.5115884049749208	-0.569099
F	0.4029255872532644 0.5970743777467364 0.5115884049749208	-0.569099
F	0.4029255872532644 0.4029255872532644 0.5115884049749208	-0.569099
F	0.0970743857467369 0.0970743857467369 0.0115884049749208	-0.569099
F	0.9029256222532636 0.9029256222532636 0.0115884049749208	-0.569099
F	0.9029256222532636 0.0970743857467369 0.0115884049749208	-0.569099
F	0.0970743857467369 0.9029256222532636 0.0115884049749208	-0.569099
	  	
