#======================================================================

# CRYSTAL DATA

#----------------------------------------------------------------------

data_VESTA_phase_1


_pd_phase_name                         NbOFFIVE_2_Cu_i
_cell_length_a                         13.75571
_cell_length_b                         13.75571
_cell_length_c                         8.38688
_cell_angle_alpha                      90
_cell_angle_beta                       90
_cell_angle_gamma                      90
_symmetry_space_group_name_H-M         P 1
_symmetry_Int_Tables_number            1

loop_
_symmetry_equiv_pos_as_xyz
   x, y, z

loop_
   _atom_site_label
   _atom_site_fract_x
   _atom_site_fract_y
   _atom_site_fract_z
   _atom_site_charge
C	0.0000000000000000 0.3000124165304558 0.3548094930019912	-0.155073
C	0.0000000000000000 0.1991681766346058 0.3607854851013937	0.106405
C	0.5000000000000000 0.8000124165304556 0.8548094630019953	-0.155073
C	0.5000000000000000 0.6991681766346060 0.8607854261013921	0.106406
C	0.0000000000000000 0.6999875834695444 0.3548094930019912	-0.155075
C	0.0000000000000000 0.8008318233653940 0.3607854851013937	0.106408
C	0.5000000000000000 0.1999875834695442 0.8548094630019953	-0.155075
C	0.5000000000000000 0.3008318233653943 0.8607854261013921	0.106408
C	0.6999875834695444 0.0000000000000000 0.3548094930019912	-0.155072
C	0.8008318233653940 0.0000000000000000 0.3607854851013937	0.106412
C	0.1999875834695442 0.5000000000000000 0.8548094630019953	-0.155072
C	0.3008318233653943 0.5000000000000000 0.8607854261013921	0.106412
C	0.3000124165304558 0.0000000000000000 0.3548094930019912	-0.155075
C	0.1991681766346058 0.0000000000000000 0.3607854851013937	0.106414
C	0.8000124165304556 0.5000000000000000 0.8548094630019953	-0.155075
C	0.6991681766346060 0.5000000000000000 0.8607854261013921	0.106415
C	0.0000000000000000 0.3010125948426564 0.6427128857479951	-0.157833
C	0.0000000000000000 0.2002346037555748 0.6378892656625145	0.108201
C	0.5000000000000000 0.8010125948426564 0.1427128557479999	-0.157833
C	0.5000000000000000 0.7002346037555749 0.1378892216625180	0.108201
C	0.0000000000000000 0.6989874051573436 0.6427128857479951	-0.157835
C	0.0000000000000000 0.7997653962444251 0.6378892656625145	0.108204
C	0.5000000000000000 0.1989874051573435 0.1427128557479999	-0.157835
C	0.5000000000000000 0.2997653962444251 0.1378892216625180	0.108203
C	0.3010125948426564 0.0000000000000000 0.6427128857479951	-0.157835
C	0.2002346037555748 0.0000000000000000 0.6378892656625145	0.108211
C	0.8010125948426564 0.5000000000000000 0.1427128557479999	-0.157835
C	0.7002346037555749 0.5000000000000000 0.1378892216625180	0.108211
C	0.6989874051573436 0.0000000000000000 0.6427128857479951	-0.157832
C	0.7997653962444251 0.0000000000000000 0.6378892656625145	0.108208
C	0.1989874051573435 0.5000000000000000 0.1427128557479999	-0.157832
C	0.2997653962444251 0.5000000000000000 0.1378892216625180	0.108208
C	0.0000000000000000 0.4556869875391095 0.4977159840277513	-0.095016
C	0.0000000000000000 0.3530819008180127 0.4982712981621446	0.163742
C	0.5000000000000000 0.9556869525391098 -0.0022840159722486	-0.095016
C	0.5000000000000000 0.8530818658180137 -0.0017287018378557	0.163742
C	0.0000000000000000 0.5443130124608908 0.4977159840277513	-0.094763
C	0.0000000000000000 0.6469181341819863 0.4982712981621446	0.163712
C	0.5000000000000000 0.0443130254608953 -0.0022840159722486	-0.094763
C	0.5000000000000000 0.1469181171819889 -0.0017287018378557	0.163712
C	0.5443130124608908 0.0000000000000000 0.4977159840277513	-0.095016
C	0.6469181341819863 0.0000000000000000 0.4982712981621446	0.163743
C	0.0443130254608953 0.5000000000000000 -0.0022840159722486	-0.095016
C	0.1469181171819889 0.5000000000000000 -0.0017287018378557	0.163742
C	0.4556869875391095 0.0000000000000000 0.4977159840277513	-0.094763
C	0.3530819008180127 0.0000000000000000 0.4982712981621446	0.163712
C	0.9556869525391098 0.5000000000000000 -0.0022840159722486	-0.094763
C	0.8530818658180137 0.5000000000000000 -0.0017287018378557	0.163712
H	0.0000000000000000 0.3371935309283541 0.2401189041370419	0.122036
H	0.0000000000000000 0.1556660043468158 0.2524535347549572	0.100892
H	0.5000000000000000 0.8371935649283571 0.7401189191370400	0.122036
H	0.5000000000000000 0.6556660393468148 0.7524535197549598	0.100890
H	0.0000000000000000 0.6628064350716429 0.2401189041370419	0.122035
H	0.0000000000000000 0.8443339606531852 0.2524535347549572	0.100892
H	0.5000000000000000 0.1628064520716480 0.7401189191370400	0.122035
H	0.5000000000000000 0.3443339956531838 0.7524535197549598	0.100891
H	0.6628064350716429 0.0000000000000000 0.2401189041370419	0.122036
H	0.8443339606531852 0.0000000000000000 0.2524535347549572	0.100891
H	0.1628064520716480 0.5000000000000000 0.7401189191370400	0.122036
H	0.3443339956531838 0.5000000000000000 0.7524535197549598	0.100889
H	0.3371935309283541 0.0000000000000000 0.2401189041370419	0.122035
H	0.1556660043468158 0.0000000000000000 0.2524535347549572	0.100891
H	0.8371935649283571 0.5000000000000000 0.7401189191370400	0.122035
H	0.6556660393468148 0.5000000000000000 0.7524535197549598	0.100889
H	0.0000000000000000 0.3387856790694289 0.7567771815727534	0.121766
H	0.0000000000000000 0.1568603341952755 0.7463647133128840	0.093752
H	0.5000000000000000 0.8387857130694322 0.2567772105727528	0.121766
H	0.5000000000000000 0.6568603691952749 0.2463646843128857	0.093751
H	0.0000000000000000 0.6612142869305678 0.7567771815727534	0.121765
H	0.0000000000000000 0.8431396308047251 0.7463647133128840	0.093752
H	0.5000000000000000 0.1612143039305730 0.2567772105727528	0.121765
H	0.5000000000000000 0.3431396658047244 0.2463646843128857	0.093753
H	0.3387856790694289 0.0000000000000000 0.7567771815727534	0.121765
H	0.1568603341952755 0.0000000000000000 0.7463647133128840	0.093751
H	0.8387857130694322 0.5000000000000000 0.2567772105727528	0.121765
H	0.6568603691952749 0.5000000000000000 0.2463646843128857	0.093750
H	0.6612142869305678 0.0000000000000000 0.7567771815727534	0.121766
H	0.8431396308047251 0.0000000000000000 0.7463647133128840	0.093751
H	0.1612143039305730 0.5000000000000000 0.2567772105727528	0.121766
H	0.3431396658047244 0.5000000000000000 0.2463646843128857	0.093752
Cu	0.0000000000000000 0.0000000000000000 0.5056281328065291	0.726481
Cu	0.5000000000000000 0.5000000000000000 0.0056281328065292	0.726478
Nb	0.0000000000000000 0.0000000000000000 -0.0136874116376398	2.422833
Nb	0.5000000000000000 0.5000000000000000 0.4863125883623601	2.422711
N	0.0000000000000000 0.1499727486626942 0.4998574074630691	-0.213675
N	0.5000000000000000 0.6499727486626941 -0.0001425925369310	-0.213675
N	0.0000000000000000 0.8500272513373059 0.4998574074630691	-0.213675
N	0.5000000000000000 0.3500272513373057 -0.0001425925369310	-0.213675
N	0.8500272513373059 0.0000000000000000 0.4998574074630691	-0.213677
N	0.3500272513373057 0.5000000000000000 -0.0001425925369310	-0.213677
N	0.1499727486626942 0.0000000000000000 0.4998574074630691	-0.213677
N	0.6499727486626941 0.5000000000000000 -0.0001425925369310	-0.213677
O	0.0000000000000000 0.0000000000000000 0.7723801529899723	-0.941092
O	0.5000000000000000 0.5000000000000000 0.2723801239899735	-0.941069
F	0.0000000000000000 0.0000000000000000 0.2367319898379434	-0.633606
F	0.5000000000000000 0.5000000000000000 0.7367319458379468	-0.633596
F	0.6000484832973276 0.6000484832973276 0.5119807310562974	-0.588958
F	0.6000484832973276 0.3999514817026728 0.5119807310562974	-0.588947
F	0.3999514817026728 0.6000484832973276 0.5119807310562974	-0.588947
F	0.3999514817026728 0.3999514817026728 0.5119807310562974	-0.588925
F	0.1000484912973283 0.1000484912973283 0.0119807310562975	-0.588969
F	0.8999515167026724 0.8999515167026724 0.0119807310562975	-0.588969
F	0.8999515167026724 0.1000484912973283 0.0119807310562975	-0.588969
F	0.1000484912973283 0.8999515167026724 0.0119807310562975	-0.588969
	  	
