#======================================================================

# CRYSTAL DATA

#----------------------------------------------------------------------

data_VESTA_phase_1


_pd_phase_name                         NbOFFIVE_18_Zn
_cell_length_a                         14.16810
_cell_length_b                         13.87521
_cell_length_c                         8.31848
_cell_angle_alpha                      89.03548
_cell_angle_beta                       96.14856
_cell_angle_gamma                      90.03648
_symmetry_space_group_name_H-M         P 1
_symmetry_Int_Tables_number            1

loop_
_symmetry_equiv_pos_as_xyz
   x, y, z

loop_
   _atom_site_label
   _atom_site_fract_x
   _atom_site_fract_y
   _atom_site_fract_z
   _atom_site_charge
F	0.3951854799092067 0.3689924379135435 0.5021108356517954	-0.572463
F	0.5128236788363315 0.4767607377883826 0.7303904148384269	-0.617876
F	0.3983689261346269 0.5645558165082648 0.5094052399657172	-0.560359
F	0.8951855469092085 0.8689924039135474 0.5021108356517954	-0.572481
F	0.0128236518363330 0.9767606687883874 0.7303904148384269	-0.617881
F	0.8983688591346253 0.0645558375082631 0.5094052399657172	-0.560362
F	0.5788031352434054 0.3532724470591433 0.5025303926188250	-0.576386
F	0.6075556576226114 0.5488590045492803 0.4993687799803671	-0.565759
F	0.0788031612434075 0.8532724130591474 0.5025303926188250	-0.576386
F	0.1075556496226108 0.0488590255492778 0.4993687799803669	-0.565763
O	0.4823914864813303 0.4787652201325410 0.2649265537774656	-0.912090
O	0.9823914534813311 0.9787651511325464 0.2649265537774656	-0.912087
C	0.6838618965900471 0.1540501917020767 0.6610217882440700	-0.427366
C	0.7576675575567344 0.1525039072821407 0.8024073622746226	0.210405
C	0.7612405491496186 0.1986526569581369 0.9514743391426655	-0.151797
C	0.6898700291747185 0.2620412553819667 0.0084438258308368	-0.146330
C	0.6733114253282707 0.3608162748783871 0.9673251764791705	0.219682
C	0.7258872635193997 0.4236711556213653 0.8605313825124818	-0.428209
C	0.8908347769695837 0.2038770124923779 0.1989993259255633	-0.435597
C	0.8499297769701361 0.1723816227714498 0.0360278842429887	0.215927
C	0.6262628825688765 0.2389337064271840 0.1213290053162332	0.209261
C	0.6081511852375435 0.1471221270053097 0.2080154960244373	-0.426547
C	0.1838619135900447 0.6540502257020723 0.6610217882440700	-0.427369
C	0.2576675915567309 0.6525039412821430 0.8024073622746226	0.210406
C	0.2612406001496198 0.6986526909581324 0.9514743391426655	-0.151796
C	0.1898700631747145 0.7620412553819668 0.0084438258308368	-0.146329
C	0.1733114003282653 0.8608163088783904 0.9673251764791705	0.219688
C	0.2258873135193969 0.9236711896213612 0.8605313825124818	-0.428213
C	0.3908347099695816 0.7038769954923735 0.1989993259255633	-0.435594
C	0.3499298439701380 0.6723816227714496 0.0360278842429887	0.215920
C	0.1262628825688837 0.7389337234271823 0.1213290053162332	0.209259
C	0.1081511262375491 0.6471221440053075 0.2080154960244373	-0.426538
C	0.3207716455242340 0.1572797890164116 0.3391810708737325	-0.423668
C	0.2457285592700694 0.1532310555430469 0.1999343618183997	0.207121
C	0.2399630079335515 0.1975711914850566 0.0465861987317565	-0.149619
C	0.3097680284789339 0.2629084220031241 0.9867068947081455	-0.147623
C	0.3245234613235533 0.3609660255428963 0.0281476247996880	0.214486
C	0.2683667857725350 0.4220303560705151 0.1288487018126440	-0.423467
C	0.1083962610428872 0.1982503239349371 0.8015151476940726	-0.434327
C	0.1510096322964893 0.1693877403411823 0.9667467595902989	0.214992
C	0.3761175127519248 0.2428029518234730 0.8780971138822571	0.208734
C	0.3959368343229091 0.1531385674703820 0.7916792705886552	-0.425773
C	0.8207716785242332 0.6572798230164071 0.3391810708737325	-0.423667
C	0.7457285922700688 0.6532310895430492 0.1999343618183997	0.207122
C	0.7399630419335547 0.6975712254850526 0.0465861987317565	-0.149621
C	0.8097680624789367 0.7629084220031241 0.9867068947081455	-0.147623
C	0.8245234273235571 0.8609660595428986 0.0281476247996880	0.214489
C	0.7683668537725337 0.9220303900705111 0.1288487018126440	-0.423472
C	0.6083961980428856 0.6982503069349318 0.8015151476940726	-0.434333
C	0.6510096832964900 0.6693877403411828 0.9667467595902989	0.214991
C	0.8761175127519248 0.7428029688234701 0.8780971138822571	0.208730
C	0.8959367673229073 0.6531385844703800 0.7916792705886552	-0.425777
H	0.7150303912963138 0.1700606367920302 0.5482240751364168	0.150485
H	0.6311045709926338 0.2100126412541002 0.6756551232578608	0.146985
H	0.6474326072640559 0.0840538594991902 0.6469127008436254	0.133037
H	0.6771841911186091 0.4669696907915000 0.7772549580720209	0.145714
H	0.7696665752685227 0.3792616513152797 0.7897014180569436	0.138249
H	0.7727781303987760 0.4733196366301061 0.9336051002331750	0.128331
H	0.8650001474171286 0.0686134659742178 0.7096597289557434	0.281178
H	0.8856651341351118 0.1475195796443328 0.2918007627798966	0.147270
H	0.8522273442226572 0.2674143632856985 0.2341415598743425	0.135027
H	0.9663387887054720 0.2220259358735272 0.1995421584022387	0.141014
H	0.5845450741609753 0.1611060895534202 0.3269246630035055	0.145322
H	0.6728017386614258 0.1031192858817734 0.2258619799673640	0.151882
H	0.5527538237244064 0.1042526509932678 0.1391495582005547	0.132857
H	0.5283214065027524 0.3341781857878162 0.2181473374312838	0.263689
H	0.2150303572963178 0.6700606367920305 0.5482240751364168	0.150486
H	0.1311045799926307 0.7100125902540997 0.6756551232578608	0.146988
H	0.1474325812640536 0.5840538424991923 0.6469127008436254	0.133040
H	0.1771842251186053 0.9669697247915037 0.7772549580720209	0.145715
H	0.2696666252685200 0.8792616853152819 0.7897014180569436	0.138250
H	0.2727781303987757 0.9733196016300988 0.9336051002331750	0.128329
H	0.3650002144171300 0.5686134569742203 0.7096597289557434	0.281179
H	0.3856651341351109 0.6475195796443327 0.2918007627798965	0.147270
H	0.3522273442226577 0.7674143282856989 0.2341415598743425	0.135029
H	0.4663387887054713 0.7220259528735248 0.1995421584022387	0.141016
H	0.0845450531609771 0.6611061065534173 0.3269246630035055	0.145318
H	0.1728017886614232 0.6031192778817798 0.2258619799673640	0.151878
H	0.0527537857244035 0.6042525989932641 0.1391495582005547	0.132852
H	0.0283213925027508 0.8341782207878159 0.2181473374312838	0.263686
H	0.2906444028444898 0.1746392369801857 0.4514343873006018	0.151296
H	0.3723470555163957 0.2136028343750857 0.3174681851654283	0.141801
H	0.3584862176428932 0.0879862898088846 0.3587415359770564	0.132961
H	0.3147607242084692 0.4672002806259461 0.2100607192245303	0.137768
H	0.2251536125082439 0.3767954448853630 0.2016625666727795	0.138840
H	0.2207173506052257 0.4700767944885304 0.0509179673595880	0.128153
H	0.1413524119657220 0.0688258926665029 0.3042772139892683	0.277046
H	0.1096858467663776 0.1391284655181477 0.7157173270259526	0.149366
H	0.1485024259338060 0.2589468572782233 0.7565989708767848	0.134376
H	0.0338751496455227 0.2198625971197316 0.8023120070834786	0.141043
H	0.4201495708575440 0.1701260325751305 0.6734069315868482	0.146723
H	0.3316915126032879 0.1088170673189211 0.7725180287329360	0.150835
H	0.4513995483472787 0.1093695273191166 0.8612108756067998	0.131448
H	0.4760483331761701 0.3415065360366362 0.7888854806677545	0.270550
H	0.7906444368444924 0.6746392369801858 0.4514343873006018	0.151296
H	0.8723470555163958 0.7136027833750853 0.3174681851654283	0.141802
H	0.8584861846428931 0.5879862728088860 0.3587415359770564	0.132962
H	0.8147607572084674 0.9672003146259492 0.2100607192245303	0.137767
H	0.7251536465082467 0.8767954788853658 0.2016625666727795	0.138841
H	0.7207173336052278 0.9700767594885246 0.0509179673595880	0.128153
H	0.6413524539657260 0.5688258836665057 0.3042772139892683	0.277046
H	0.6096858887663812 0.6391284655181467 0.7157173270259526	0.149368
H	0.6485024429338038 0.7589468222782241 0.7565989708767848	0.134381
H	0.5338751286455244 0.7198626141197295 0.8023120070834786	0.141044
H	0.9201495708575439 0.6701260495751279 0.6734069315868482	0.146724
H	0.8316915806032857 0.6088170593189283 0.7725180287329360	0.150835
H	0.9513995483472786 0.6093694753191120 0.8612108756067998	0.131451
H	0.9760483331761701 0.8415065710366360 0.7888854806677545	0.270548
N	0.8391135885243096 0.1018316308082263 0.8052785298038296	-0.145635
N	0.6033876890069353 0.3947487203718307 0.0482588469482686	-0.240090
N	0.8963072241517939 0.1129835153512570 0.9449391156523639	-0.240258
N	0.5769661416207142 0.3202483755153871 0.1400951208619531	-0.143800
N	0.3391135215243083 0.6018316138082215 0.8052785298038296	-0.145637
N	0.1033877060069329 0.8947487553718296 0.0482588469482686	-0.240104
N	0.3963071901517906 0.6129835493512523 0.9449391156523639	-0.240246
N	0.0769661416207140 0.8202483755153879 0.1400951208619531	-0.143794
N	0.1650778017579434 0.1019609823291649 0.2044918480521514	-0.146441
N	0.3963750366284754 0.3971228150078073 0.9524293281347987	-0.236724
N	0.1064863591731055 0.1108900314824353 0.0649766786206842	-0.240176
N	0.4255243058165040 0.3248408804759312 0.8629659641142043	-0.143947
N	0.6650778017579431 0.6019609653291600 0.2044918480521514	-0.146442
N	0.8963750366284755 0.8971228500078063 0.9524293281347987	-0.236735
N	0.6064863841731041 0.6108900654824310 0.0649766786206842	-0.240165
N	0.9255243058165048 0.8248408804759311 0.8629659641142043	-0.143943
Nb	0.4938373355502585 0.4642052963905181 0.4815723310659728	2.404548
Nb	-0.0061626624497414 0.9642053653905133 0.4815723310659728	2.404577
Zn	0.4985329602701863 0.5082842002922202 0.0214482799356844	0.783908
Zn	-0.0014670397298139 0.0082842042922202 0.0214482799356844	0.783938
	  	
