#======================================================================

# CRYSTAL DATA

#----------------------------------------------------------------------

data_VESTA_phase_1


_pd_phase_name                         NbOFFIVE_2_Cu
_cell_length_a                         13.73743
_cell_length_b                         13.73743
_cell_length_c                         8.22900
_cell_angle_alpha                      90
_cell_angle_beta                       90
_cell_angle_gamma                      90
_symmetry_space_group_name_H-M         P 1
_symmetry_Int_Tables_number            1

loop_
_symmetry_equiv_pos_as_xyz
   x, y, z

loop_
   _atom_site_label
   _atom_site_fract_x
   _atom_site_fract_y
   _atom_site_fract_z
   _atom_site_charge
C	0.5318915855482286 0.6992064895585544 0.1305006924060446	0.101918
C	0.5320429340932108 0.8001311209739644 0.1359223938583317	-0.165431
C	0.4681084144517714 0.3007935454414452 0.1305006924060446	0.101915
C	0.4679570659067890 0.1998689140260350 0.1359223938583317	-0.165429
C	0.3007935454414452 0.5318915855482286 0.1305006924060446	0.101918
C	0.1998689140260350 0.5320429340932108 0.1359223938583317	-0.165431
C	0.6992064895585544 0.4681084144517714 0.1305006924060446	0.101915
C	0.8001311209739644 0.4679570659067890 0.1359223938583317	-0.165429
C	0.4690968950405649 0.6986079915926465 0.8678892203853606	0.100874
C	0.4682809968224980 0.7996330636124520 0.8626032221813354	-0.161261
C	0.5309031049594350 0.3013920434073523 0.8678892203853606	0.100871
C	0.5317190031775020 0.2003669713875476 0.8626032221813354	-0.161258
C	0.6986079915926465 0.5309031049594350 0.8678892203853606	0.100872
C	0.7996330636124520 0.5317190031775020 0.8626032221813354	-0.161258
C	0.3013920434073523 0.4690968950405649 0.8678892203853606	0.100874
C	0.2003669713875476 0.4682809968224980 0.8626032221813354	-0.161260
C	0.5000474969547074 0.1473831491053227 -0.0009139883318719	0.168434
C	0.5001424266814394 0.0443797932132466 -0.0010241813317005	-0.091867
C	0.4999525030452923 0.8526168508946771 -0.0009139883318719	0.168403
C	0.4998575733185609 0.9556201987867526 -0.0010241813317005	-0.091620
C	0.8526168508946771 0.5000474969547074 -0.0009139883318719	0.168434
C	0.9556201987867526 0.5001424266814394 -0.0010241813317005	-0.091867
C	0.1473831491053227 0.4999525030452923 -0.0009139883318719	0.168403
C	0.0443797932132466 0.4998575733185609 -0.0010241813317005	-0.091620
H	0.5563751294104125 0.6558590829810953 0.2335857461912956	0.099295
H	0.5570331716716127 0.8377182846876511 0.2445987285833075	0.130740
H	0.4436248705895878 0.3441408470188989 0.2335857461912956	0.099295
H	0.4429668283283870 0.1622817153123489 0.2445987285833075	0.130741
H	0.3441408470188989 0.5563751294104125 0.2335857461912956	0.099295
H	0.1622817153123489 0.5570331716716127 0.2445987285833075	0.130740
H	0.6558590829810953 0.4436248705895878 0.2335857461912956	0.099295
H	0.8377182846876511 0.4429668283283870 0.2445987285833075	0.130741
H	0.4448995769717614 0.6552739094625818 0.7645561109068969	0.104343
H	0.4429607252180789 0.8369593010014013 0.7539030180181783	0.129930
H	0.5551004230282380 0.3447260205374126 0.7645561109068969	0.104343
H	0.5570392747819212 0.1630406989985984 0.7539030180181783	0.129931
H	0.6552739094625818 0.5551004230282380 0.7645561109068969	0.104343
H	0.8369593010014013 0.5570392747819212 0.7539030180181783	0.129932
H	0.3447260205374126 0.4448995769717614 0.7645561109068969	0.104343
H	0.1630406989985984 0.4429607252180789 0.7539030180181783	0.129930
Cu	0.5000000000000000 0.5000000000000000 0.0055068125163070	0.744237
Nb	0.5000000000000000 0.5000000000000000 0.4853424445426066	2.435798
F	0.5000000000000000 0.5000000000000000 0.7379791460123124	-0.642541
F	0.6000445675336141 0.6013489520606939 0.5096714593466302	-0.595621
F	0.3986510829393057 0.6000445675336141 0.5096714593466302	-0.595621
F	0.3999554674663848 0.3986510829393057 0.5096714593466302	-0.595621
F	0.6013489520606939 0.3999554674663848 0.5096714593466302	-0.595621
O	0.5000000000000000 0.5000000000000000 0.2680717388850478	-0.957881
N	0.4993831862121164 0.3506502351225187 -0.0005174277028743	-0.216368
N	0.5006168137878836 0.6493497998774808 -0.0005174277028743	-0.216367
N	0.6493497998774808 0.4993831862121164 -0.0005174277028743	-0.216368
N	0.3506502351225187 0.5006168137878836 -0.0005174277028743	-0.216367
	  	
