#======================================================================

# CRYSTAL DATA

#----------------------------------------------------------------------

data_VESTA_phase_1


_pd_phase_name                         NbOFFIVE_16_Cu_i
_cell_length_a                         25.24082
_cell_length_b                         25.24082
_cell_length_c                         7.70006
_cell_angle_alpha                      90
_cell_angle_beta                       90
_cell_angle_gamma                      90
_symmetry_space_group_name_H-M         P 1
_symmetry_Int_Tables_number            1

loop_
_symmetry_equiv_pos_as_xyz
   x, y, z

loop_
   _atom_site_label
   _atom_site_fract_x
   _atom_site_fract_y
   _atom_site_fract_z
   _atom_site_charge
C	0.4776696547384502 0.3858559884375692 0.3682774027806198	0.101379
C	0.4767325639703782 0.3308145536500586 0.3629419680520770	-0.170386
C	0.9551341758850249 0.6127204681683713 0.9436058545148188	-0.127226
C	0.9552920795133909 0.5576784355664501 0.9443413772646533	-0.123665
C	0.5223303832615528 0.6141440115624303 0.3682774027806198	0.101379
C	0.5232673980296255 0.6691854083499454 0.3629419680520770	-0.170386
C	0.0448658191149709 0.3872795318316282 0.9436058545148188	-0.127226
C	0.0447079254866059 0.4423215644335497 0.9443413772646533	-0.123667
C	0.6141440115624303 0.4776696547384502 0.3682774027806198	0.101379
C	0.6691854083499454 0.4767325639703782 0.3629419680520770	-0.170386
C	0.3872795318316282 0.9551341758850249 0.9436058545148188	-0.127226
C	0.4423215644335497 0.9552920795133909 0.9443413772646533	-0.123665
C	0.3858559884375692 0.5223303832615528 0.3682774027806198	0.101380
C	0.3308145536500586 0.5232673980296255 0.3629419680520770	-0.170386
C	0.6127204681683713 0.0448658191149709 0.9436058545148188	-0.127225
C	0.5576784355664501 0.0447079254866059 0.9443413772646533	-0.123667
C	0.5227209200062489 0.3857703046282925 0.6302605121623530	0.103971
C	0.5233448317111438 0.3307707271287497 0.6363485542772900	-0.171399
C	0.0448656056812204 0.6127161429887021 0.0564110494165489	-0.127100
C	0.0447084197143703 0.5576759066143657 0.0556650470883536	-0.123672
C	0.4772791179937545 0.6142296953717074 0.6302605121623530	0.103971
C	0.4766551302888604 0.6692292348712542 0.6363485542772900	-0.171399
C	0.9551343893187760 0.3872838570112981 0.0564110494165489	-0.127099
C	0.9552915852856265 0.4423240933856342 0.0556650470883536	-0.123675
C	0.3857703046282925 0.4772791179937545 0.6302605121623530	0.103971
C	0.3307707271287497 0.4766551302888604 0.6363485542772900	-0.171399
C	0.6127161429887021 0.9551343893187760 0.0564110494165489	-0.127099
C	0.5576759066143657 0.9552915852856265 0.0556650470883536	-0.123675
C	0.6142296953717074 0.5227209200062489 0.6302605121623530	0.103971
C	0.6692292348712542 0.5233448317111438 0.6363485542772900	-0.171399
C	0.3872838570112981 0.0448656056812204 0.0564110494165489	-0.127100
C	0.4423240933856342 0.0447084197143703 0.0556650470883536	-0.123672
C	0.5448656106812240 0.8872838570112979 0.5564110574165495	-0.127099
C	0.5447084147143735 0.9423240933856343 0.5556650830883568	-0.123674
C	0.0227209030062510 0.1142296863717102 0.1302605441623486	0.103971
C	0.0233448697111398 0.1692292538712524 0.1363485542772896	-0.171398
C	0.4551344283187752 0.1127161329887011 0.5564110574165495	-0.127100
C	0.4552915852856266 0.0576758966143651 0.5556650830883568	-0.123671
C	0.9772790419937479 0.8857703046282926 0.1302605441623486	0.103971
C	0.9766551302888602 0.8307707271287498 0.1363485542772896	-0.171397
C	0.1127161329887011 0.5448656106812240 0.5564110574165495	-0.127099
C	0.0576758966143651 0.5447084147143735 0.5556650830883568	-0.123674
C	0.8857703046282926 0.0227209030062510 0.1302605441623486	0.103971
C	0.8307707271287498 0.0233448697111398 0.1363485542772896	-0.171397
C	0.8872838570112979 0.4551344283187752 0.5564110574165495	-0.127100
C	0.9423240933856343 0.4552915852856266 0.5556650830883568	-0.123671
C	0.1142296863717102 0.9772790419937479 0.1302605441623486	0.103971
C	0.1692292538712524 0.9766551302888602 0.1363485542772896	-0.171398
C	0.4551342148850249 0.8872795318316287 0.4436058545148186	-0.127224
C	0.4552920795133910 0.9423215644335499 0.4443413772646536	-0.123667
C	0.9776695787384441 0.1141440025624336 0.8682774027806197	0.101379
C	0.9767325639703784 0.1691854273499433 0.8629419360520745	-0.170387
C	0.5448658241149751 0.1127204581683708 0.4436058545148186	-0.127224
C	0.5447079204866091 0.0576784255664495 0.4443413772646536	-0.123664
C	0.0223303662615549 0.8858559884375697 0.8682774027806197	0.101379
C	0.0232674360296218 0.8308145536500585 0.8629419360520745	-0.170367
C	0.8872795318316287 0.5448658241149751 0.4436058545148186	-0.127224
C	0.9423215644335499 0.5447079204866091 0.4443413772646536	-0.123664
C	0.1141440025624336 0.0223303662615549 0.8682774027806197	0.101379
C	0.1691854273499433 0.0232674360296218 0.8629419360520745	-0.170387
C	0.1127204581683708 0.4551342148850249 0.4436058545148186	-0.127224
C	0.0576784255664495 0.4552920795133910 0.4443413772646536	-0.123667
C	0.8858559884375697 0.9776695787384441 0.8682774027806197	0.101379
C	0.8308145536500585 0.9767325639703784 0.8629419360520745	-0.170367
C	0.4999608314982251 0.3019589189015821 0.4997475157304498	0.171564
C	0.4998913968577900 0.2457290624066895 0.4998739327584524	-0.114772
C	0.4999737665826458 0.1974012750903106 0.4999689117506322	-0.096758
C	0.4999983094415507 0.1412382410394139 0.5000051020367194	0.125117
C	0.5000001234291911 0.0291513170971062 0.4999971596220589	0.066630
C	0.0000391685017747 0.8019589389015839 -0.0002524842695501	0.171559
C	0.0001086031422101 0.7457290814066879 -0.0001260672415476	-0.114773
C	0.0000262334173540 0.6974012750903106 -0.0000310882493678	-0.096757
C	0.0000016905584493 0.6412382410394137 0.0000051020367196	0.125118
C	-0.0000001234291911 0.5291513130971057 -0.0000028403779412	0.066630
C	0.5000391685017743 0.6980410230984201 0.4997475157304498	0.171564
C	0.5001086031422104 0.7542709565933081 0.4998739327584524	-0.114772
C	0.5000262334173540 0.8025986859096897 0.4999689117506322	-0.096758
C	0.5000016905584493 0.8587617199605866 0.5000051020367194	0.125117
C	0.4999998765708090 0.9708487259028939 0.4999971596220589	0.066653
C	-0.0000391685017747 0.1980410610984163 -0.0002524842695501	0.171564
C	-0.0001086031422101 0.2542709375933103 -0.0001260672415476	-0.114772
C	-0.0000262334173540 0.3025987049096877 -0.0000310882493678	-0.096758
C	-0.0000016905584493 0.3587617589605860 0.0000051020367196	0.125118
C	0.0000001234291911 0.4708486869028941 -0.0000028403779412	0.066653
C	0.6980410230984201 0.4999608314982251 0.4997475157304498	0.171564
C	0.7542709565933081 0.4998913968577900 0.4998739327584524	-0.114772
C	0.8025986859096897 0.4999737665826458 0.4999689117506322	-0.096758
C	0.8587617199605866 0.4999983094415507 0.5000051020367194	0.125117
C	0.9708487259028939 0.5000001234291911 0.4999971596220589	0.066630
C	0.1980410610984163 0.0000391685017747 -0.0002524842695501	0.171564
C	0.2542709375933103 0.0001086031422101 -0.0001260672415476	-0.114772
C	0.3025987049096877 0.0000262334173540 -0.0000310882493678	-0.096758
C	0.3587617589605860 0.0000016905584493 0.0000051020367196	0.125118
C	0.4708486869028941 -0.0000001234291911 -0.0000028403779412	0.066631
C	0.3019589189015821 0.5000391685017743 0.4997475157304498	0.171564
C	0.2457290624066895 0.5001086031422104 0.4998739327584524	-0.114772
C	0.1974012750903106 0.5000262334173540 0.4999689117506322	-0.096758
C	0.1412382410394139 0.5000016905584493 0.5000051020367194	0.125117
C	0.0291513170971062 0.4999998765708090 0.4999971596220589	0.066653
C	0.8019589389015839 -0.0000391685017747 -0.0002524842695501	0.171559
C	0.7457290814066879 -0.0001086031422101 -0.0001260672415476	-0.114773
C	0.6974012750903106 -0.0000262334173540 -0.0000310882493678	-0.096757
C	0.6412382410394137 -0.0000016905584493 0.0000051020367196	0.125118
C	0.5291513130971057 0.0000001234291911 -0.0000028403779412	0.066653
H	0.4602107099499701 0.4092757259244467 0.2638144409699102	0.101975
H	0.4583738622234360 0.3103984893615562 0.2538209294418796	0.125783
H	0.9204396818432659 0.6343810150898774 0.8981025627553298	0.111595
H	0.9206421790591370 0.5363158997946529 0.8966459976772525	0.105873
H	0.5397892900500300 0.5907243120755492 0.2638144409699102	0.101975
H	0.5416261757765602 0.6896015296384488 0.2538209294418796	0.125784
H	0.0795603181567343 0.3656190229101186 0.8981025627553298	0.111595
H	0.0793578019408648 0.4636841002053471 0.8966459976772525	0.105874
H	0.5907243120755492 0.4602107099499701 0.2638144409699102	0.101975
H	0.6896015296384488 0.4583738622234360 0.2538209294418796	0.125784
H	0.3656190229101186 0.9204396818432659 0.8981025627553298	0.111595
H	0.4636841002053471 0.9206421790591370 0.8966459976772525	0.105873
H	0.4092757259244467 0.5397892900500300 0.2638144409699102	0.101975
H	0.3103984893615562 0.5416261757765602 0.2538209294418796	0.125784
H	0.6343810150898774 0.0795603181567343 0.8981025627553298	0.111595
H	0.5363158997946529 0.0793578019408648 0.8966459976772525	0.105874
H	0.5403826448013928 0.4091798005816294 0.7343402715764829	0.095961
H	0.5415267214989051 0.3103832620334256 0.7458359354027950	0.125973
H	0.0795601944544781 0.6343774379230107 0.1019045865120255	0.111526
H	0.0793584049930415 0.5363120569165452 0.1033464460590379	0.105827
H	0.4596173551986070 0.5908202374183669 0.7343402715764829	0.095961
H	0.4584733165010914 0.6896167569665796 0.7458359354027950	0.125973
H	0.9204398055455222 0.3656226000769857 0.1019045865120255	0.111526
H	0.9206415760069604 0.4636879430834549 0.1033464460590379	0.105827
H	0.4091798005816294 0.4596173551986070 0.7343402715764829	0.095961
H	0.3103832620334256 0.4584733165010914 0.7458359354027950	0.125973
H	0.6343774379230107 0.9204398055455222 0.1019045865120255	0.111526
H	0.5363120569165452 0.9206415760069604 0.1033464460590379	0.105827
H	0.5908202374183669 0.5403826448013928 0.7343402715764829	0.095961
H	0.6896167569665796 0.5415267214989051 0.7458359354027950	0.125973
H	0.3656226000769857 0.0795601944544781 0.1019045865120255	0.111526
H	0.4636879430834549 0.0793584049930415 0.1033464460590379	0.105827
H	0.5795601564544818 0.8656225620769893 0.6019046105120273	0.111525
H	0.5793583859930436 0.9636879050834588 0.6033464620590392	0.105825
H	0.0403826468013930 0.0908201994183707 0.2343402715764829	0.095961
H	0.0415266834989088 0.1896167379665745 0.2458359354027955	0.125973
H	0.4204398055455218 0.1343774089230117 0.6019046105120273	0.111525
H	0.4206416140069564 0.0363120739165429 0.6033464620590392	0.105825
H	0.9596173931986104 0.9091798005816292 0.2343402715764829	0.095961
H	0.9584733165010909 0.8103832810334235 0.2458359354027955	0.125974
H	0.1343774089230117 0.5795601564544818 0.6019046105120273	0.111525
H	0.0363120739165429 0.5793583859930436 0.6033464620590392	0.105826
H	0.9091798005816292 0.0403826468013930 0.2343402715764829	0.095961
H	0.8103832810334235 0.0415266834989088 0.2458359354027955	0.125974
H	0.8656225620769893 0.4204398055455218 0.6019046105120273	0.111525
H	0.9636879050834588 0.4206416140069564 0.6033464620590392	0.105825
H	0.0908201994183707 0.9596173931986104 0.2343402715764829	0.095961
H	0.1896167379665745 0.9584733165010909 0.2458359354027955	0.125973
H	0.4204396818432657 0.8656189849101226 0.3981025307553267	0.111592
H	0.4206422170591335 0.9636840622053511 0.3966460616772510	0.105875
H	0.9602107479499732 0.0907242740755533 0.7638144569699120	0.101975
H	0.9583738622234358 0.1896015106384438 0.7538208974418841	0.125781
H	0.5795602801567381 0.1343809860898787 0.3981025307553267	0.111591
H	0.5793577829408669 0.0363159167946510 0.3966460616772510	0.105875
H	0.0397892920500301 0.9092757259244468 0.7638144569699120	0.101975
H	0.0416261377765640 0.8103985083615544 0.7538208974418841	0.125765
H	0.8656189849101226 0.5795602801567381 0.3981025307553267	0.111591
H	0.9636840622053511 0.5793577829408669 0.3966460616772510	0.105875
H	0.0907242740755533 0.0397892920500301 0.7638144569699120	0.101975
H	0.1896015106384438 0.0416261377765640 0.7538208974418841	0.125781
H	0.1343809860898787 0.4204396818432657 0.3981025307553267	0.111592
H	0.0363159167946510 0.4206422170591335 0.3966460616772510	0.105875
H	0.9092757259244468 0.9602107479499732 0.7638144569699120	0.101975
H	0.8103985083615544 0.9583738622234358 0.7538208974418841	0.125765
Cu	0.5000000000000000 0.5000000000000000 0.5047999451827306	0.860523
Cu	0.0000000000000000 -0.0000000000000000 0.0047999451827306	0.860523
Nb	0.5000000000000000 0.5000000000000000 -0.0183789419158610	2.447552
Nb	0.0000000000000000 -0.0000000000000000 0.4816210580841390	2.447552
F	0.5000000000000000 0.5000000000000000 0.2544692163829220	-0.647602
F	0.0000000000000000 -0.0000000000000000 0.7544691683829180	-0.647602
F	0.5550688699191269 0.5538209661329803 0.0080432292236057	-0.587398
F	0.0538209381329847 0.0550688419191318 0.5080432292236053	-0.587398
F	0.4449311680808691 0.4461790718670159 0.0080432292236057	-0.587398
F	0.9461790338670197 0.9449311300808731 0.5080432292236053	-0.587399
F	0.4461790718670159 0.5550688699191269 0.0080432292236057	-0.587398
F	0.9449311300808731 0.0538209381329847 0.5080432292236053	-0.587399
F	0.5538209661329803 0.4449311680808691 0.0080432292236057	-0.587398
F	0.0550688419191318 0.9461790338670197 0.5080432292236053	-0.587399
O	0.5000000000000000 0.5000000000000000 0.7490785487702976	-0.988180
O	0.0000000000000000 -0.0000000000000000 0.2490785167702949	-0.988179
N	0.5002900994723123 0.4129077962018601 0.4992089888216280	-0.228880
N	-0.0002900994723123 0.9129078342018633 -0.0007910111783721	-0.228880
N	0.4997099005276878 0.5870922037981399 0.4992089888216280	-0.228880
N	0.0002900994723123 0.0870921757981376 -0.0007910111783721	-0.228880
N	0.5870922037981399 0.5002900994723123 0.4992089888216280	-0.228880
N	0.0870921757981376 -0.0002900994723123 -0.0007910111783721	-0.228880
N	0.4129077962018601 0.4997099005276878 0.4992089888216280	-0.228880
N	0.9129078342018633 0.0002900994723123 -0.0007910111783721	-0.228880
	  	
