#======================================================================

# CRYSTAL DATA

#----------------------------------------------------------------------

data_VESTA_phase_1


_pd_phase_name                         NbOFFIVE_16_Ni_i
_cell_length_a                         25.08808
_cell_length_b                         25.08808
_cell_length_c                         7.78565
_cell_angle_alpha                      90
_cell_angle_beta                       90
_cell_angle_gamma                      90
_symmetry_space_group_name_H-M         P 1
_symmetry_Int_Tables_number            1

loop_
_symmetry_equiv_pos_as_xyz
   x, y, z

loop_
   _atom_site_label
   _atom_site_fract_x
   _atom_site_fract_y
   _atom_site_fract_z
   _atom_site_charge
C	0.4779229520310385 0.3879642157081887 0.3688812485267330	0.097525
C	0.4769840795401636 0.3326061242078638 0.3640187333709939	-0.169324
C	0.9549369986081202 0.6131989245770063 0.9433763268980256	-0.126174
C	0.9551029657555804 0.5578576041307041 0.9440776403696123	-0.123936
C	0.5220770859689653 0.6120357842918110 0.3688812485267330	0.097524
C	0.5230158824598403 0.6673938377921402 0.3640187333709939	-0.169320
C	0.0450629963918759 0.3868010754229934 0.9433763268980256	-0.126174
C	0.0448970392444163 0.4421423958692959 0.9440776403696123	-0.123936
C	0.6120357842918110 0.4779229520310385 0.3688812485267330	0.097525
C	0.6673938377921402 0.4769840795401636 0.3640187333709939	-0.169324
C	0.3868010754229934 0.9549369986081202 0.9433763268980256	-0.126174
C	0.4421423958692959 0.9551029657555804 0.9440776403696123	-0.123936
C	0.3879642157081887 0.5220770859689653 0.3688812485267330	0.097524
C	0.3326061242078638 0.5230158824598403 0.3640187333709939	-0.169320
C	0.6131989245770063 0.0450629963918759 0.9433763268980256	-0.126174
C	0.5578576041307041 0.0448970392444163 0.9440776403696123	-0.123936
C	0.5224211369412439 0.3879479644396100 0.6294647136409617	0.102879
C	0.5230784870933844 0.3326213614182195 0.6353049597437258	-0.172335
C	0.0450617480046150 0.6131964116826604 0.0567297849877493	-0.126474
C	0.0448980712598453 0.5578563620771984 0.0560153831984271	-0.123658
C	0.4775789010587597 0.6120520355603899 0.6294647136409617	0.102868
C	0.4769214749066199 0.6673786005817847 0.6353049597437258	-0.172343
C	0.9549382469953809 0.3868035883173395 0.0567297849877493	-0.126474
C	0.9551019337401517 0.4421436379228015 0.0560153831984271	-0.123658
C	0.3879479644396100 0.4775789010587597 0.6294647136409617	0.102868
C	0.3326213614182195 0.4769214749066199 0.6353049597437258	-0.172343
C	0.6131964116826604 0.9549382469953809 0.0567297849877493	-0.126474
C	0.5578563620771984 0.9551019337401517 0.0560153831984271	-0.123658
C	0.6120520355603899 0.5224211369412439 0.6294647136409617	0.102879
C	0.6673786005817847 0.5230784870933844 0.6353049597437258	-0.172336
C	0.3868035883173395 0.0450617480046150 0.0567297849877493	-0.126474
C	0.4421436379228015 0.0448980712598453 0.0560153831984271	-0.123658
C	0.5450617530046191 0.8868035883173396 0.5567297929877499	-0.126474
C	0.5448980662598483 0.9421436379228016 0.5560154191984301	-0.123658
C	0.0224211199412457 0.1120520265603926 0.1294647456409571	0.102868
C	0.0230785250933802 0.1673786195817827 0.1353049597437258	-0.172342
C	0.4549382859953808 0.1131964016826597 0.5567297929877499	-0.126474
C	0.4551019337401515 0.0578563520771976 0.5560154191984301	-0.123658
C	0.9775788250587529 0.8879479644396101 0.1294647456409571	0.102868
C	0.9769214749066195 0.8326213614182193 0.1353049597437258	-0.172342
C	0.1131964016826597 0.5450617530046191 0.5567297929877499	-0.126474
C	0.0578563520771976 0.5448980662598483 0.5560154191984301	-0.123658
C	0.8879479644396101 0.0224211199412457 0.1294647456409571	0.102868
C	0.8326213614182193 0.0230785250933802 0.1353049597437258	-0.172342
C	0.8868035883173396 0.4549382859953808 0.5567297929877499	-0.126474
C	0.9421436379228016 0.4551019337401515 0.5560154191984301	-0.123658
C	0.1120520265603926 0.9775788250587529 0.1294647456409571	0.102868
C	0.1673786195817827 0.9769214749066195 0.1353049597437258	-0.172342
C	0.4549370376081196 0.8868010754229937 0.4433763268980253	-0.126173
C	0.4551029657555805 0.9421423958692959 0.4440776403696124	-0.123936
C	0.9779228760310316 0.1120357752918139 0.8688812485267331	0.097527
C	0.9769840795401636 0.1673938567921383 0.8640187013709913	-0.169320
C	0.5450630013918798 0.1131989145770057 0.4433763268980253	-0.126173
C	0.5448970342444196 0.0578575941307031 0.4440776403696124	-0.123936
C	0.0220770689689670 0.8879642157081890 0.8688812485267331	0.097527
C	0.0230159204598364 0.8326061242078637 0.8640187013709913	-0.169320
C	0.8868010754229937 0.5450630013918798 0.4433763268980253	-0.126173
C	0.9421423958692959 0.5448970342444196 0.4440776403696124	-0.123936
C	0.1120357752918139 0.0220770689689670 0.8688812485267331	0.097527
C	0.1673938567921383 0.0230159204598364 0.8640187013709913	-0.169320
C	0.1131989145770057 0.4549370376081196 0.4433763268980253	-0.126173
C	0.0578575941307031 0.4551029657555805 0.4440776403696124	-0.123936
C	0.8879642157081890 0.9779228760310316 0.8688812485267331	0.097527
C	0.8326061242078637 0.9769840795401636 0.8640187013709913	-0.169320
C	0.4999607784954020 0.3035155749144676 0.4997932256150531	0.172747
C	0.4999162670110719 0.2469873882316751 0.5000044307438811	-0.115016
C	0.4999849152919757 0.1983723837359449 0.5000556657474855	-0.096170
C	0.5000006382404135 0.1418557634724783 0.5000603993569681	0.125621
C	0.5000000187141552 0.0292844701013582 0.5000430026998971	0.065766
C	0.0000392215045979 0.8035155949144691 -0.0002067743849470	0.172732
C	0.0000837329889281 0.7469874072316731 0.0000044307438810	-0.115013
C	0.0000150847080244 0.6983723837359448 0.0000556657474855	-0.096170
C	-0.0000006382404135 0.6418557634724785 0.0000603993569681	0.125621
C	-0.0000000187141554 0.5292844661013583 0.0000430026998975	0.065766
C	0.5000392215045980 0.6964843670855349 0.4997932256150531	0.172732
C	0.5000837329889285 0.7530126307683229 0.5000044307438811	-0.115013
C	0.5000150847080245 0.8016275772640555 0.5000556657474855	-0.096171
C	0.4999993617595865 0.8581441975275218 0.5000603993569681	0.125621
C	0.4999999812858446 0.9707155728986414 0.5000430026998971	0.065766
C	-0.0000392215045979 0.1964844050855308 -0.0002067743849470	0.172732
C	-0.0000837329889281 0.2530126117683250 0.0000044307438810	-0.115013
C	-0.0000150847080244 0.3016275962640536 0.0000556657474855	-0.096170
C	0.0000006382404135 0.3581442365275216 0.0000603993569681	0.125621
C	0.0000000187141554 0.4707155338986421 0.0000430026998975	0.065766
C	0.6964843670855349 0.4999607784954020 0.4997932256150531	0.172747
C	0.7530126307683229 0.4999162670110719 0.5000044307438811	-0.115015
C	0.8016275772640555 0.4999849152919757 0.5000556657474855	-0.096170
C	0.8581441975275218 0.5000006382404135 0.5000603993569681	0.125621
C	0.9707155728986414 0.5000000187141552 0.5000430026998971	0.065766
C	0.1964844050855308 0.0000392215045979 -0.0002067743849470	0.172732
C	0.2530126117683250 0.0000837329889281 0.0000044307438810	-0.115013
C	0.3016275962640536 0.0000150847080244 0.0000556657474855	-0.096170
C	0.3581442365275216 -0.0000006382404135 0.0000603993569681	0.125621
C	0.4707155338986421 -0.0000000187141554 0.0000430026998975	0.065766
C	0.3035155749144676 0.5000392215045980 0.4997932256150531	0.172732
C	0.2469873882316751 0.5000837329889285 0.5000044307438811	-0.115013
C	0.1983723837359449 0.5000150847080245 0.5000556657474855	-0.096170
C	0.1418557634724783 0.4999993617595865 0.5000603993569681	0.125621
C	0.0292844701013582 0.4999999812858446 0.5000430026998971	0.065766
C	0.8035155949144691 -0.0000392215045979 -0.0002067743849470	0.172732
C	0.7469874072316731 -0.0000837329889281 0.0000044307438810	-0.115013
C	0.6983723837359448 -0.0000150847080244 0.0000556657474855	-0.096170
C	0.6418557634724785 0.0000006382404135 0.0000603993569681	0.125621
C	0.5292844661013583 0.0000000187141554 0.0000430026998975	0.065766
H	0.4607119344694997 0.4113383050309023 0.2645034967879075	0.099695
H	0.4587546136357344 0.3121343093698266 0.2555247801127030	0.124841
H	0.9201425343912231 0.6349917374974500 0.8977466627157352	0.111490
H	0.9204260312557642 0.5362343185131150 0.8963413337069510	0.105993
H	0.5392880655305002 0.5886617329690941 0.2645034967879075	0.099695
H	0.5412454243642612 0.6878657096301782 0.2555247801127030	0.124841
H	0.0798574656087773 0.3650083005025461 0.8977466627157352	0.111490
H	0.0795739497442378 0.4637656814868850 0.8963413337069510	0.105993
H	0.5886617329690941 0.4607119344694997 0.2645034967879075	0.099695
H	0.6878657096301782 0.4587546136357344 0.2555247801127030	0.124841
H	0.3650083005025461 0.9201425343912231 0.8977466627157352	0.111490
H	0.4637656814868850 0.9204260312557642 0.8963413337069510	0.105993
H	0.4113383050309023 0.5392880655305002 0.2645034967879075	0.099695
H	0.3121343093698266 0.5412454243642612 0.2555247801127030	0.124840
H	0.6349917374974500 0.0798574656087773 0.8977466627157352	0.111490
H	0.5362343185131150 0.0795739497442378 0.8963413337069510	0.105993
H	0.5397414606103667 0.4113855643037145 0.7333567376660873	0.093810
H	0.5411230133265733 0.3122581236713948 0.7442588858400413	0.125621
H	0.0798565391169156 0.6349904694212075 0.1023536341261469	0.111515
H	0.0795748473139648 0.5362326569635250 0.1037486044238868	0.106030
H	0.4602585393896334 0.5886144736962817 0.7333567376660873	0.093813
H	0.4588770246734226 0.6877418953286104 0.7442588858400413	0.125646
H	0.9201434608830844 0.3650095685787884 0.1023536341261469	0.111515
H	0.9204251336860371 0.4637673430364753 0.1037486044238868	0.106030
H	0.4113855643037145 0.4602585393896334 0.7333567376660873	0.093813
H	0.3122581236713948 0.4588770246734226 0.7442588858400413	0.125646
H	0.6349904694212075 0.9201434608830844 0.1023536341261469	0.111515
H	0.5362326569635250 0.9204251336860371 0.1037486044238868	0.106030
H	0.5886144736962817 0.5397414606103667 0.7333567376660873	0.093810
H	0.6877418953286104 0.5411230133265733 0.7442588858400413	0.125621
H	0.3650095685787884 0.0798565391169156 0.1023536341261469	0.111515
H	0.4637673430364753 0.0795748473139648 0.1037486044238868	0.106030
H	0.5798565011169196 0.8650095305787925 0.6023536581261488	0.111514
H	0.5795748283139669 0.9637673050364790 0.6037486204238883	0.106030
H	0.0397414626103668 0.0886144356962856 0.2333567376660873	0.093813
H	0.0411229753265775 0.1877418763286052 0.2442588858400413	0.125645
H	0.4201434608830842 0.1349904404212088 0.6023536581261488	0.111514
H	0.4204251716860334 0.0362326739635227 0.6037486204238883	0.106030
H	0.9602585773896365 0.9113855643037143 0.2333567376660873	0.093813
H	0.9588770246734227 0.8122581426713927 0.2442588858400413	0.125645
H	0.1349904404212088 0.5798565011169196 0.6023536581261488	0.111514
H	0.0362326739635227 0.5795748283139669 0.6037486204238883	0.106030
H	0.9113855643037143 0.0397414626103668 0.2333567376660873	0.093813
H	0.8122581426713927 0.0411229753265775 0.2442588858400413	0.125645
H	0.8650095305787925 0.4201434608830842 0.6023536581261488	0.111514
H	0.9637673050364790 0.4204251716860334 0.6037486204238883	0.106030
H	0.0886144356962856 0.9602585773896365 0.2333567376660873	0.093813
H	0.1877418763286052 0.9588770246734227 0.2442588858400413	0.125645
H	0.4201425343912228 0.8650082625025500 0.3977466307157324	0.111489
H	0.4204260692557601 0.9637656434868890 0.3963413977069489	0.105993
H	0.9607119724695029 0.0886616949690977 0.7645035127879088	0.099693
H	0.9587546136357349 0.1878656906301733 0.7555247481127076	0.124840
H	0.5798574276087809 0.1349917084974511 0.3977466307157324	0.111489
H	0.5795739307442398 0.0362343355131129 0.3963413977069489	0.105993
H	0.0392880675305006 0.9113383050309020 0.7645035127879088	0.099693
H	0.0412453863642655 0.8121343283698249 0.7555247481127076	0.124840
H	0.8650082625025500 0.5798574276087809 0.3977466307157324	0.111489
H	0.9637656434868890 0.5795739307442398 0.3963413977069489	0.105993
H	0.0886616949690977 0.0392880675305006 0.7645035127879088	0.099693
H	0.1878656906301733 0.0412453863642655 0.7555247481127076	0.124840
H	0.1349917084974511 0.4201425343912228 0.3977466307157324	0.111489
H	0.0362343355131129 0.4204260692557601 0.3963413977069489	0.105993
H	0.9113383050309020 0.9607119724695029 0.7645035127879088	0.099693
H	0.8121343283698249 0.9587546136357349 0.7555247481127076	0.124840
Ni	0.5000000000000000 0.5000000000000000 0.5033877195109675	0.810237
Ni	0.0000000000000000 0.0000000000000000 0.0033877195109675	0.810237
Nb	0.5000000000000000 0.5000000000000000 -0.0174491358849748	2.440626
Nb	0.0000000000000000 0.0000000000000000 0.4825508641150251	2.440627
F	0.5000000000000000 0.5000000000000000 0.2494178657164178	-0.612251
F	0.0000000000000000 0.0000000000000000 0.7494178177164142	-0.612253
F	0.5556241516440673 0.5543847276082925 0.0080621015281077	-0.584388
F	0.0543846996082972 0.0556241236440718 0.5080621015281079	-0.584388
F	0.4443758863559291 0.4456153103917038 0.0080621015281077	-0.584388
F	0.9456152723917075 0.9443758483559327 0.5080621015281079	-0.584388
F	0.4456153103917038 0.5556241516440673 0.0080621015281077	-0.584388
F	0.9443758483559327 0.0543846996082972 0.5080621015281079	-0.584388
F	0.5543847276082925 0.4443758863559291 0.0080621015281077	-0.584387
F	0.0556241236440718 0.9456152723917075 0.5080621015281079	-0.584388
O	0.5000000000000000 0.5000000000000000 0.7535239620078616	-0.946090
O	0.0000000000000000 0.0000000000000000 0.2535239300078586	-0.946090
N	0.5002400405136744 0.4154410939471018 0.4990581133553492	-0.229189
N	-0.0002400405136742 0.9154411319471051 -0.0009418866446509	-0.229188
N	0.4997599594863260 0.5845589060528981 0.4990581133553492	-0.229187
N	0.0002400405136742 0.0845588780528958 -0.0009418866446509	-0.229188
N	0.5845589060528981 0.5002400405136744 0.4990581133553492	-0.229189
N	0.0845588780528958 -0.0002400405136742 -0.0009418866446509	-0.229188
N	0.4154410939471018 0.4997599594863260 0.4990581133553492	-0.229187
N	0.9154411319471051 0.0002400405136742 -0.0009418866446509	-0.229188
	  	
