#======================================================================

# CRYSTAL DATA

#----------------------------------------------------------------------

data_VESTA_phase_1


_pd_phase_name                         NbOFFIVE_15_Ni_i
_cell_length_a                         29.78836
_cell_length_b                         28.93385
_cell_length_c                         8.07112
_cell_angle_alpha                      90
_cell_angle_beta                       90
_cell_angle_gamma                      90
_symmetry_space_group_name_H-M         P 1
_symmetry_Int_Tables_number            1

loop_
_symmetry_equiv_pos_as_xyz
   x, y, z

loop_
   _atom_site_label
   _atom_site_fract_x
   _atom_site_fract_y
   _atom_site_fract_z
   _atom_site_charge
C	0.9337070432915358 0.1028511890732809 0.8930914773932227	0.109880
C	0.9015599145171904 0.0682081370262297 0.8982952228639055	-0.166943
C	0.7700122551277155 0.9362608319121166 0.9013108810756041	-0.115086
C	0.7357231704286612 0.9039375433943577 0.9010661901293282	-0.116179
C	0.5678956430256239 0.7412418912575829 0.8928695488798249	0.107223
C	0.6015569155064864 0.7743162739770866 0.8978342746056068	-0.169794
C	0.4337069792915304 0.6028511720732829 0.8930914773932227	0.109880
C	0.4015598825171879 0.5682081170262279 0.8982952228639055	-0.166952
C	0.2700122551277159 0.4362607999121140 0.9013108810756041	-0.115087
C	0.2357231704286609 0.4039375433943577 0.9010661901293282	-0.116179
C	0.0678956830256201 0.2412419072575843 0.8928695488798249	0.107223
C	0.1015569075064935 0.2743162569770887 0.8978342746056068	-0.169793
C	0.0662930007084679 0.8971488279267171 0.3930914773932222	0.109881
C	0.0984401174828123 0.9317918829737721 0.3982952228639053	-0.166953
C	0.2299877768722797 0.0637392090878830 0.4013108810756043	-0.115082
C	0.2642768455713406 0.0960624486056418 0.4010661901293280	-0.116178
C	0.4321043249743806 0.2587581087424171 0.3928695178798261	0.107222
C	0.3984430844935129 0.2256837260229136 0.3978342746056069	-0.169793
C	0.5662929567084642 0.3971487949267176 0.3930914773932222	0.109881
C	0.5984400854828096 0.4317918509737692 0.3982952228639053	-0.166952
C	0.7299877448722845 0.5637391680878834 0.4013108810756043	-0.115084
C	0.7642768295713388 0.5960624566056423 0.4010661901293280	-0.116181
C	0.9321043569743761 0.7587581087424171 0.3928695178798261	0.107223
C	0.8984430844935136 0.7256837260229134 0.3978342746056069	-0.169794
C	0.0659133988262902 0.1032617426335020 0.6065453447237213	0.108711
C	0.0980897025028810 0.0685807562226138 0.5998112562315626	-0.165071
C	0.2299895251893160 0.9362593346573506 0.5985082485443594	-0.115349
C	0.2642671110057841 0.9039490544621348 0.5987277850965493	-0.115743
C	0.4325079954489245 0.7408315697367729 0.6066070845908369	0.105827
C	0.3988122514958937 0.7739370045991506 0.6000568503336872	-0.168777
C	0.5659133548262868 0.6032617256335040 0.6065453447237213	0.108712
C	0.5980896705028783 0.5685807362226118 0.5998112562315626	-0.165081
C	0.7299894931893202 0.4362593026573481 0.5985082485443594	-0.115337
C	0.7642670950057833 0.4039490544621347 0.5987277850965493	-0.115807
C	0.9325080274489198 0.2408315857367744 0.6066070845908369	0.105825
C	0.8988122514958934 0.2739369875991526 0.6000568503336872	-0.168752
C	0.9340866451737131 0.8967382743664960 0.1065453687237164	0.108713
C	0.9019103294971217 0.9314192637773882 0.0998112322315674	-0.165082
C	0.7700105068106798 0.0637407063426491 0.0985082875443590	-0.115296
C	0.7357329049942167 0.0960509375378647 0.0987278080965479	-0.115817
C	0.5674919725510802 0.2591684302632267 0.1066070765908362	0.105825
C	0.6011877485041066 0.2260629954008496 0.1000568663336888	-0.168752
C	0.4340865811737082 0.3967382413664967 0.1065453687237164	0.108713
C	0.4019102974971188 0.4314192317773854 0.0998112322315674	-0.165082
C	0.2700105068106798 0.5637406653426494 0.0985082875443590	-0.115296
C	0.2357329049942171 0.5960509455378652 0.0987278080965479	-0.115817
C	0.0674920125510763 0.7591684302632271 0.1066070765908362	0.105826
C	0.1011877405041128 0.7260629954008494 0.1000568663336888	-0.168777
C	0.0659133988262902 0.8967382743664960 0.1065453687237164	0.108712
C	0.0980897025028810 0.9314192637773882 0.0998112322315674	-0.165082
C	0.2299895251893160 0.0637407063426491 0.0985082875443590	-0.115308
C	0.2642671110057841 0.0960509375378647 0.0987278080965479	-0.115754
C	0.4325079954489245 0.2591684302632267 0.1066070765908362	0.105824
C	0.3988122514958937 0.2260629954008496 0.1000568663336888	-0.168753
C	0.5659133548262869 0.3967382413664967 0.1065453687237164	0.108712
C	0.5980896705028783 0.4314192317773854 0.0998112322315674	-0.165081
C	0.7299894931893202 0.5637406653426494 0.0985082875443590	-0.115296
C	0.7642670950057833 0.5960509455378652 0.0987278080965479	-0.115817
C	0.9325080274489198 0.7591684302632271 0.1066070765908362	0.105826
C	0.8988122514958934 0.7260629954008494 0.1000568663336888	-0.168777
C	0.9340866451737132 0.1032617426335020 0.6065453447237213	0.108711
C	0.9019103294971217 0.0685807562226138 0.5998112562315626	-0.165070
C	0.7700105068106798 0.9362593346573506 0.5985082485443594	-0.115336
C	0.7357329049942167 0.9039490544621348 0.5987277850965493	-0.115807
C	0.5674919725510802 0.7408315697367729 0.6066070845908369	0.105826
C	0.6011877485041066 0.7739370045991506 0.6000568503336872	-0.168777
C	0.4340865811737082 0.6032617256335040 0.6065453447237213	0.108712
C	0.4019102974971188 0.5685807362226118 0.5998112562315626	-0.165081
C	0.2700105068106798 0.4362593026573481 0.5985082485443594	-0.115337
C	0.2357329049942171 0.4039490544621347 0.5987277850965493	-0.115808
C	0.0674920125510763 0.2408315857367744 0.6066070845908369	0.105825
C	0.1011877405041128 0.2739369875991526 0.6000568503336872	-0.168753
C	0.9337070432915358 0.8971488279267171 0.3930914773932222	0.109880
C	0.9015599145171904 0.9317918829737721 0.3982952228639052	-0.166953
C	0.7700122551277155 0.0637392090878830 0.4013108810756043	-0.115084
C	0.7357231704286612 0.0960624486056418 0.4010661901293280	-0.116181
C	0.5678956430256239 0.2587581087424171 0.3928695178798261	0.107222
C	0.6015569155064864 0.2256837260229136 0.3978342746056069	-0.169794
C	0.4337069792915304 0.3971487949267176 0.3930914773932222	0.109880
C	0.4015598825171879 0.4317918509737692 0.3982952228639052	-0.166953
C	0.2700122551277159 0.5637391680878834 0.4013108810756043	-0.115084
C	0.2357231704286609 0.5960624566056423 0.4010661901293280	-0.116181
C	0.0678956830256201 0.7587581087424171 0.3928695178798261	0.107222
C	0.1015569075064935 0.7256837260229134 0.3978342746056069	-0.169794
C	0.0662930007084679 0.1028511890732809 0.8930914773932227	0.109879
C	0.0984401174828123 0.0682081370262297 0.8982952228639055	-0.166944
C	0.2299877768722797 0.9362608319121166 0.9013108810756041	-0.115084
C	0.2642768455713406 0.9039375433943577 0.9010661901293282	-0.116176
C	0.4321043249743806 0.7412418912575829 0.8928695488798249	0.107223
C	0.3984430844935129 0.7743162739770866 0.8978342746056068	-0.169794
C	0.5662929567084642 0.6028511720732829 0.8930914773932227	0.109879
C	0.5984400854828096 0.5682081170262279 0.8982952228639055	-0.166952
C	0.7299877448722845 0.4362607999121140 0.9013108810756041	-0.115087
C	0.7642768295713388 0.4039375433943577 0.9010661901293282	-0.116180
C	0.9321043569743761 0.2412419072575843 0.8928695488798249	0.107222
C	0.8984430844935136 0.2743162569770887 0.8978342746056068	-0.169794
C	0.6535757810592840 0.8251195046646103 0.7480968496894355	-0.105333
C	0.8848040635052948 0.0503252091190749 0.7485610597808143	0.161991
C	0.8221201384374147 0.9862180122292118 0.7494964528693920	-0.100333
C	0.6191734283150359 0.7915501082270623 0.7484383958825889	0.169027
C	0.7875584437123946 0.9528629094215181 0.7499005085361276	0.127331
C	0.7180895729945383 0.8872548975824512 0.7498784235861636	0.137980
C	0.6833819757571161 0.8540312411542780 0.7493888427198115	-0.099498
C	0.8515207406095240 0.0155924972148778 0.7482825236115350	-0.105449
C	0.1535757330592872 0.3251195376646094 0.7480968496894355	-0.105333
C	0.3848040315052925 0.5503251841190766 0.7485610597808143	0.162033
C	0.3221201704374178 0.4862180452292180 0.7494964528693920	-0.100404
C	0.1191734043150339 0.2915501082270625 0.7484383958825889	0.169024
C	0.2875584757123906 0.4528629094215178 0.7499005085361276	0.127345
C	0.2180895409945361 0.3872549305824505 0.7498784235861636	0.137980
C	0.1833819917571177 0.3540312411542778 0.7493888427198115	-0.099498
C	0.3515207726095191 0.5155925332148810 0.7482825236115350	-0.105417
C	0.3464242829407145 0.1748804783353848 0.2480968336894337	-0.105332
C	0.1151959524947060 0.9496748158809234 0.2485610437808131	0.162033
C	0.1778798615625850 0.0137819687707832 0.2494964368693905	-0.100409
C	0.3808266036849666 0.2084498917729376 0.2484383798825878	0.169023
C	0.2124415402876107 0.0471370735784772 0.2499004925361263	0.127318
C	0.2819104590054640 0.1127450854175509 0.2498784075861622	0.137970
C	0.3166180242428837 0.1459687588457222 0.2493888267198105	-0.099500
C	0.1484792433904753 0.9844074667851190 0.2482825076115336	-0.105414
C	0.8464242189407160 0.6748804953353897 0.2480968336894337	-0.105332
C	0.6151959364947052 0.4496748158809238 0.2485610437808131	0.162033
C	0.6778798615625853 0.5137819877707882 0.2494964368693905	-0.100402
C	0.8808265716849641 0.7084498917729377 0.2484383798825878	0.169027
C	0.7124415562876054 0.5471370905784819 0.2499004925361263	0.127314
C	0.7819104270054617 0.6127451024175488 0.2498784075861622	0.137982
C	0.8166180242428839 0.6459687588457220 0.2493888267198105	-0.099499
C	0.6484792593904760 0.4844074997851183 0.2482825076115336	-0.105418
C	0.3464242829407145 0.8251195046646103 0.7480968496894355	-0.105333
C	0.1151959524947060 0.0503252091190749 0.7485610597808143	0.161990
C	0.1778798615625850 0.9862180122292118 0.7494964528693920	-0.100341
C	0.3808266036849666 0.7915501082270623 0.7484383958825889	0.169027
C	0.2124415402876107 0.9528629094215181 0.7499005085361276	0.127335
C	0.2819104590054640 0.8872548975824512 0.7498784235861636	0.137967
C	0.3166180242428837 0.8540312411542780 0.7493888427198115	-0.099500
C	0.1484792433904752 0.0155924972148778 0.7482825236115350	-0.105446
C	0.8464242189407160 0.3251195376646094 0.7480968496894355	-0.105333
C	0.6151959364947052 0.5503251841190766 0.7485610597808143	0.162033
C	0.6778798615625853 0.4862180452292180 0.7494964528693920	-0.100404
C	0.8808265716849641 0.2915501082270625 0.7484383958825889	0.169024
C	0.7124415562876054 0.4528629094215178 0.7499005085361276	0.127345
C	0.7819104270054617 0.3872549305824505 0.7498784235861636	0.137980
C	0.8166180242428839 0.3540312411542778 0.7493888427198115	-0.099498
C	0.6484792593904760 0.5155925332148810 0.7482825236115350	-0.105416
C	0.6535757810592840 0.1748804783353848 0.2480968336894337	-0.105332
C	0.8848040635052948 0.9496748158809234 0.2485610437808131	0.162034
C	0.8221201384374147 0.0137819687707832 0.2494964368693905	-0.100401
C	0.6191734283150359 0.2084498917729376 0.2484383798825878	0.169023
C	0.7875584437123946 0.0471370735784772 0.2499004925361263	0.127314
C	0.7180895729945383 0.1127450854175509 0.2498784075861622	0.137982
C	0.6833819757571161 0.1459687588457222 0.2493888267198105	-0.099499
C	0.8515207406095240 0.9844074667851190 0.2482825076115336	-0.105418
C	0.1535757330592872 0.6748804953353897 0.2480968336894337	-0.105332
C	0.3848040315052925 0.4496748158809238 0.2485610437808131	0.162034
C	0.3221201704374178 0.5137819877707882 0.2494964368693905	-0.100401
C	0.1191734043150339 0.7084498917729377 0.2484383798825878	0.169026
C	0.2875584757123906 0.5471370905784819 0.2499004925361263	0.127314
C	0.2180895409945361 0.6127451024175488 0.2498784075861622	0.137982
C	0.1833819917571177 0.6459687588457220 0.2493888267198105	-0.099499
C	0.3515207726095191 0.4844074997851183 0.2482825076115336	-0.105418
H	0.9472438524617007 0.1173992036210646 0.0066319807241638	0.082170
H	0.8894880615163264 0.0551386834184909 0.0166737557858340	0.120332
H	0.7838467234341684 0.9491715889741357 0.0175548610727489	0.106593
H	0.7220387734250141 0.8909865662803599 0.0173347547103930	0.115541
H	0.5537711905429276 0.7273588151825748 0.0065181358309003	0.081104
H	0.6141455477336741 0.7866886378594158 0.0162842877737502	0.125090
H	0.4472439174616954 0.6173991786210661 0.0066319807241638	0.082170
H	0.3894880615163267 0.5551386504184918 0.0166737557858340	0.120332
H	0.2838466914341731 0.4491716219741348 0.0175548610727489	0.106593
H	0.2220387734250141 0.3909865332803606 0.0173347547103930	0.115541
H	0.0537711425429305 0.2273588311825760 0.0065181358309003	0.081104
H	0.1141455957336781 0.2866885718594174 0.0162842877737502	0.125090
H	0.0527560995383026 0.8826008213789339 0.5066319657241660	0.082169
H	0.1105119384836737 0.9448613495815082 0.5166737557858341	0.120335
H	0.2161533085658271 0.0508283820258657 0.5175548610727487	0.106590
H	0.2779612265749860 0.1090134747196401 0.5173347237103868	0.115542
H	0.4462288744570674 0.2726411688174240 0.5065181438309010	0.081105
H	0.3858543882663276 0.2133114111405848 0.5162843147737559	0.125089
H	0.5527561475382993 0.3826008213789340 0.5066319657241660	0.082169
H	0.6105119384836736 0.4448613165815091 0.5166737557858341	0.120333
H	0.7161532765658316 0.5508283780258652 0.5175548610727487	0.106592
H	0.7779612265749859 0.6090134337196401 0.5173347237103868	0.115542
H	0.9462288094570724 0.7726411848174252 0.5065181438309010	0.081105
H	0.8858544522663259 0.7133113621405842 0.5162843147737559	0.125089
H	0.0522368700524487 0.1179579387205166 0.4934103340659121	0.091071
H	0.1099304329344169 0.0557641405770380 0.4808061932196648	0.120396
H	0.2161492714709454 0.9491797926368116 0.4822904768161237	0.106584
H	0.2779685842613134 0.8909833833295421 0.4825286163415169	0.115596
H	0.4467814212389181 0.7267995603993186 0.4933929037733187	0.090287
H	0.3864593889311838 0.7860605062667522 0.4809634630329793	0.125551
H	0.5522369180524457 0.6179579137205183 0.4934103340659121	0.091071
H	0.6099304329344171 0.5557641075770389 0.4808061932196648	0.120397
H	0.7161492394709498 0.4491798256368107 0.4822904768161237	0.106616
H	0.7779685842613133 0.3909833503295433 0.4825286163415169	0.115604
H	0.9467813562389233 0.2267995763993201 0.4933929037733187	0.090288
H	0.8864594529311820 0.2860604402667540 0.4809634630329793	0.125530
H	0.9477630819475543 0.8820420862794817 0.9934103030659129	0.091071
H	0.8900695670655829 0.9442358924229611 0.9808061622196662	0.120399
H	0.7838507605290502 0.0508201783631896 0.9822904448161209	0.106608
H	0.7220314157386867 0.1090166576704575 0.9825286163415166	0.115606
H	0.5532186437610767 0.2732004236006799 0.9933929037733187	0.090288
H	0.6135405470688180 0.2139395427332482 0.9809634630329791	0.125529
H	0.4477631469475492 0.3820420862794819 0.9934103030659129	0.091071
H	0.3900695670655833 0.4442358594229620 0.9808061622196662	0.120398
H	0.2838507285290549 0.5508201743631892 0.9822904448161209	0.106610
H	0.2220314157386865 0.6090166166704579 0.9825286163415166	0.115606
H	0.0532185957610799 0.7732004396006814 0.9933929037733187	0.090288
H	0.1135405950688220 0.7139394937332478 0.9809634630329791	0.125550
H	0.0522368700524487 0.8820420862794817 0.9934103030659129	0.091071
H	0.1099304329344169 0.9442358924229611 0.9808061622196662	0.120399
H	0.2161492714709454 0.0508201783631896 0.9822904448161209	0.106575
H	0.2779685842613134 0.1090166576704575 0.9825286163415166	0.115599
H	0.4467814212389181 0.2732004236006799 0.9933929037733187	0.090288
H	0.3864593889311838 0.2139395427332482 0.9809634630329791	0.125530
H	0.5522369180524457 0.3820420862794819 0.9934103030659129	0.091071
H	0.6099304329344171 0.4442358594229620 0.9808061622196662	0.120398
H	0.7161492394709498 0.5508201743631892 0.9822904448161209	0.106610
H	0.7779685842613133 0.6090166166704579 0.9825286163415166	0.115607
H	0.9467813562389233 0.7732004396006814 0.9933929037733187	0.090288
H	0.8864594529311820 0.7139394937332478 0.9809634630329791	0.125551
H	0.9477630819475543 0.1179579387205166 0.4934103340659121	0.091071
H	0.8900695670655829 0.0557641405770380 0.4808061932196648	0.120396
H	0.7838507605290502 0.9491797926368116 0.4822904768161237	0.106615
H	0.7220314157386867 0.8909833833295421 0.4825286163415169	0.115606
H	0.5532186437610767 0.7267995603993186 0.4933929037733187	0.090287
H	0.6135405470688180 0.7860605062667522 0.4809634630329793	0.125552
H	0.4477631469475492 0.6179579137205183 0.4934103340659121	0.091071
H	0.3900695670655833 0.5557641075770389 0.4808061932196648	0.120397
H	0.2838507285290549 0.4491798256368107 0.4822904768161237	0.106616
H	0.2220314157386865 0.3909833503295433 0.4825286163415169	0.115606
H	0.0532185957610799 0.2267995763993201 0.4933929037733187	0.090288
H	0.1135405950688220 0.2860604402667540 0.4809634630329793	0.125531
H	0.9472438524617007 0.8826008213789339 0.5066319657241660	0.082169
H	0.8894880615163264 0.9448613495815082 0.5166737557858341	0.120334
H	0.7838467234341684 0.0508283820258657 0.5175548610727487	0.106590
H	0.7220387734250141 0.1090134747196401 0.5173347237103868	0.115544
H	0.5537711905429276 0.2726411688174240 0.5065181438309010	0.081105
H	0.6141455477336741 0.2133114111405848 0.5162843147737559	0.125090
H	0.4472439174616954 0.3826008213789340 0.5066319657241660	0.082169
H	0.3894880615163267 0.4448613165815091 0.5166737557858341	0.120333
H	0.2838466914341731 0.5508283780258652 0.5175548610727487	0.106592
H	0.2220387734250141 0.6090134337196401 0.5173347237103868	0.115544
H	0.0537711425429305 0.7726411848174252 0.5065181438309010	0.081105
H	0.1141455957336781 0.7133113621405842 0.5162843147737559	0.125090
H	0.0527560995383026 0.1173992036210646 0.0066319807241638	0.082170
H	0.1105119384836737 0.0551386834184909 0.0166737557858340	0.120331
H	0.2161533085658271 0.9491715889741357 0.0175548610727489	0.106593
H	0.2779612265749860 0.8909865662803599 0.0173347547103930	0.115542
H	0.4462288744570674 0.7273588151825748 0.0065181358309003	0.081104
H	0.3858543882663276 0.7866886378594158 0.0162842877737502	0.125091
H	0.5527561475382993 0.6173991786210661 0.0066319807241638	0.082170
H	0.6105119384836736 0.5551386504184918 0.0166737557858340	0.120332
H	0.7161532765658316 0.4491716219741348 0.0175548610727489	0.106593
H	0.7779612265749859 0.3909865332803606 0.0173347547103930	0.115543
H	0.9462288094570724 0.2273588311825760 0.0065181358309003	0.081104
H	0.8858544522663259 0.2866885718594174 0.0162842877737502	0.125091
Ni	0.5000000000000000 0.6728451331515295 0.7558694200325561	0.799338
Ni	-0.0000000000000000 0.1728451001515305 0.7558694200325561	0.799338
Ni	0.5000000000000000 0.3271548998484692 0.2558694040325551	0.799338
Ni	-0.0000000000000000 0.8271548668484705 0.2558694040325551	0.799338
Nb	0.5000000000000000 0.6729060384131847 0.2323238926228970	2.415234
Nb	-0.0000000000000000 0.1729060874131859 0.2323238926228970	2.415234
Nb	0.5000000000000000 0.3270938965868201 0.7323239086228984	2.415234
Nb	-0.0000000000000000 0.8270939615868153 0.7323239086228984	2.415234
F	0.5000000000000000 0.7399060209025690 0.2603284572610286	-0.575102
F	0.5000000000000000 0.6059429644938470 0.2601149047066087	-0.570932
F	-0.0000000000000000 0.2399059879025695 0.2603284572610286	-0.575102
F	-0.0000000000000000 0.1059429724938474 0.2601149047066087	-0.570932
F	0.5000000000000000 0.2600939960974291 0.7603284732610300	-0.575105
F	0.5000000000000000 0.3940570025061539 0.7601149207066100	-0.570929
F	-0.0000000000000000 0.7600939790974310 0.7603284732610300	-0.575104
F	-0.0000000000000000 0.8940570355061530 0.7601149207066100	-0.570930
F	0.5650821153297363 0.6728589090338125 0.2600687863890068	-0.574203
F	0.0650821073297357 0.1728588920338147 0.2600687863890068	-0.574203
F	0.4349178846702637 0.3271410909661875 0.7600688023890078	-0.574203
F	0.9349178846702637 0.8271410909661875 0.7600688023890078	-0.574203
F	0.4349178846702637 0.6728589090338125 0.2600687863890067	-0.574203
F	0.9349178846702637 0.1728588920338147 0.2600687863890068	-0.574203
F	0.5650821153297363 0.3271410909661875 0.7600688023890078	-0.574203
F	0.0650821073297357 0.8271410909661875 0.7600688023890078	-0.574203
F	0.5000000000000000 0.6728766113127723 0.4975938546628191	-0.610062
F	-0.0000000000000000 0.1728766113127719 0.4975938546628191	-0.610062
F	0.5000000000000000 0.3271233886872280 -0.0024060833371830	-0.610062
F	-0.0000000000000000 0.8271233886872277 -0.0024060833371830	-0.610062
O	0.5000000000000000 0.6729352970290079 0.0095173344883353	-0.922418
O	-0.0000000000000000 0.1729352970290081 0.0095173344883353	-0.922418
O	0.5000000000000000 0.3270647029709920 0.5095173154883375	-0.922418
O	-0.0000000000000000 0.8270647029709921 0.5095173154883375	-0.922418
N	0.5508136678351462 0.7243907869989180 0.7504191342270161	-0.229839
N	0.9499568141059931 0.1204482950073507 0.7504812732054810	-0.228705
N	0.0508137078351425 0.2243908029989191 0.7504191342270161	-0.229839
N	0.4499567821059979 0.6204482710073490 0.7504812732054810	-0.228705
N	0.4491863001648582 0.2756091970010809 0.2504191182270151	-0.229837
N	0.0500432138940016 0.8795517289926510 0.2504812572054795	-0.228707
N	0.9491863321648538 0.7756092130010820 0.2504191182270151	-0.229837
N	0.5500431858940069 0.3795516959926520 0.2504812572054795	-0.228707
N	0.4491863001648582 0.7243907869989180 0.7504191342270161	-0.229839
N	0.0500432138940016 0.1204482950073507 0.7504812732054810	-0.228705
N	0.9491863321648538 0.2243908029989191 0.7504191342270161	-0.229839
N	0.5500431858940069 0.6204482710073490 0.7504812732054810	-0.228705
N	0.5508136678351462 0.2756091970010809 0.2504191182270151	-0.229837
N	0.9499568141059931 0.8795517289926510 0.2504812572054795	-0.228707
N	0.0508137078351425 0.7756092130010820 0.2504191182270151	-0.229837
N	0.4499567821059979 0.3795516959926520 0.2504812572054795	-0.228707
	  	
