#======================================================================

# CRYSTAL DATA

#----------------------------------------------------------------------

data_VESTA_phase_1


_pd_phase_name                         NbOFFIVE_14_Co_i
_cell_length_a                         12.95859
_cell_length_b                         12.94697
_cell_length_c                         8.20974
_cell_angle_alpha                      86.91899
_cell_angle_beta                       86.81638
_cell_angle_gamma                      87.53567
_symmetry_space_group_name_H-M         P 1
_symmetry_Int_Tables_number            1

loop_
_symmetry_equiv_pos_as_xyz
   x, y, z

loop_
   _atom_site_label
   _atom_site_fract_x
   _atom_site_fract_y
   _atom_site_fract_z
   _atom_site_charge
C	0.5639252961504629 0.2723144525460299 0.3568684030948838	-0.176729
C	0.4569728284723283 0.2752575572786117 0.3634930586076769	0.098025
C	0.9376912262225550 0.2995658032210277 0.4076204159127125	-0.164281
C	0.0448066894841608 0.2925081460480717 0.3957439792768915	0.104334
C	0.2699576412999674 0.5636423633102109 0.3586662615488158	-0.177193
C	0.2730546887689293 0.4565942477843637 0.3658293256333209	0.100472
C	0.3055361798726616 0.9370233959336177 0.4019091895117815	-0.164272
C	0.2975617751000427 0.0441724863939346 0.3909169954770776	0.103399
C	0.9375588212594544 0.2307837943378901 0.1406337963903722	-0.175590
C	0.0445566658328842 0.2277958972414700 0.1366689698446250	0.095065
C	0.5608421495510114 0.2006898367065190 0.0923034461247542	-0.162907
C	0.4536539679029328 0.2073343923623500 0.1069856682777251	0.099961
C	0.2023629795711566 0.5596180860881659 0.0914699034785814	-0.165142
C	0.2094740041237762 0.4524339404148806 0.1065322189500470	0.099661
C	0.2281113921472732 0.9367171336138134 0.1416312305203020	-0.174995
C	0.2247720469709592 0.0438181748776443 0.1380019040915948	0.095705
C	0.4374216725511564 0.7293861943620592 0.6404075525500982	-0.174329
C	0.5444001986838773 0.7264745502879156 0.6371712302960328	0.094700
C	0.0595314622050149 0.7124860272364797 0.5835883035767654	-0.160687
C	0.9523989687562432 0.7164846319304266 0.6007976581428881	0.099307
C	0.7313831658592117 0.4375614124992500 0.6399313432998538	-0.174180
C	0.7288211011774037 0.5446417295756225 0.6361720170344346	0.096691
C	0.7012520364272551 0.0602041755198023 0.5915695660379026	-0.161601
C	0.7070988833475554 0.9529659970099962 0.6069295829036458	0.098228
C	0.0635533607194517 0.7673482136555124 0.8590833048414470	-0.175050
C	0.9566064095590084 0.7696586017623120 0.8667926760621502	0.099222
C	0.4369131234754849 0.7975449524055993 0.9079460949169657	-0.162001
C	0.5440132092982153 0.7920838077464845 0.8957330159441815	0.104991
C	0.7974072955675175 0.4375834482754087 0.9087865115364245	-0.163500
C	0.7916125619232136 0.5447683925978838 0.8964036677229692	0.103192
C	0.7713077784046498 0.0637461008333187 0.8570567208060684	-0.176724
C	0.7744611095254843 0.9567370906664898 0.8637736680408176	0.101803
C	0.6179392654773067 0.2352803655496636 0.2172421037126045	0.193379
C	0.8820589429757123 0.2658795122336071 0.2802503376741230	0.193937
C	0.2350064782548651 0.6171271056846200 0.2174672154313485	0.194770
C	0.2680100561138806 0.8813250840016668 0.2775908807007746	0.191359
C	0.3815986819041074 0.7641568685629502 0.7800812993317904	0.193302
C	0.1170319781172138 0.7394645689553611 0.7132879263557607	0.192294
C	0.7647407450528341 0.3819918376300817 0.7805315637769297	0.193938
C	0.7352337310003377 0.1175189848480479 0.7167786951045860	0.193687
H	0.6049292785660262 0.2946676512340217 0.4607264411808616	0.113241
H	0.4130138737309825 0.3006132499236061 0.4717480102786143	0.093783
H	0.8974128500182578 0.3301567197371955 0.5155002256613614	0.126102
H	0.0903056663261338 0.3161537620173654 0.4936949595488442	0.100759
H	0.2903479674286731 0.6053819255841548 0.4630541722819302	0.112884
H	0.2967105444558215 0.4128051837893676 0.4750860366397865	0.092964
H	0.3397795939461929 0.8967527336937304 0.5067141020527396	0.126751
H	0.3236864177764397 0.0898416103967701 0.4869318671090733	0.100952
H	0.8978257245851836 0.2095918422709840 0.0347806200228924	0.114581
H	0.0894520313390735 0.2042057254985780 0.0282116025346369	0.098226
H	0.5999577112994489 0.1692971030891537 0.9841233108608146	0.127069
H	0.4071450194555864 0.1826795210229097 0.0108838733339864	0.104853
H	0.1725612542394478 0.5982915762926293 0.9819192883108850	0.127383
H	0.1868568722150051 0.4054433381578492 0.0094917823084925	0.105523
H	0.2036303433955754 0.8966872240444735 0.0381297498870107	0.116139
H	0.1977045969417094 0.0886030882606252 0.0318617958225972	0.098050
H	0.3982708463920874 0.7078839615795751 0.5341112704839528	0.113934
H	0.5896596212197659 0.7022226392110736 0.5294391211543393	0.097679
H	0.0981347445509750 0.6889554403367140 0.4697941991372250	0.126644
H	0.9056460130648657 0.6960859852285363 0.5022894514905943	0.104648
H	0.7111879304439075 0.3979115313022190 0.5332691863159083	0.113481
H	0.7059334517198057 0.5898194452903216 0.5277583618721283	0.097549
H	0.6706898905728561 0.0991573751970343 0.4828147106029254	0.126892
H	0.6823911128272088 0.9062301187434332 0.5110875481830818	0.105815
H	0.1047475788511943 0.7836652077536301 0.9662288059432234	0.109676
H	0.9126332587869347 0.7892338831131351 0.9782703571123271	0.093151
H	0.3963969061831938 0.8272797413020176 0.0161806413669016	0.125788
H	0.5892037468109166 0.8168873512413684 -0.0068751286853721	0.099798
H	0.8262600431171587 0.3973004532728542 0.0177636509250509	0.125825
H	0.8149489410255145 0.5903359945037797 -0.0055178383601645	0.100800
H	0.7930669840501867 0.1048849921829284 0.9612109847774498	0.112197
H	0.7999576403487608 0.9126805663200016 0.9716886252463627	0.093862
N	0.7735161965478417 0.2744494615985875 0.2993494842864418	-0.117217
N	0.2777815946029655 0.7726838987544082 0.2952344874743383	-0.116596
N	0.7265512098171035 0.2261373271843048 0.1968992264065484	-0.115122
N	0.2255861997558463 0.7257318363787009 0.1977196615464119	-0.118021
N	0.2254937464530037 0.7325054619193136 0.6898301228253720	-0.112508
N	0.7270595039519017 0.2261382689785851 0.6951495296724300	-0.114608
N	0.2731229157302219 0.7717540663655246 0.8011043305789988	-0.114063
N	0.7723050796527550 0.2734301101815155 0.8007368782849151	-0.116217
N	0.4019178075522581 0.2448887707399763 0.2402267822495377	-0.171622
N	0.0981039044915420 0.2555189751348418 0.2634194074187086	-0.171753
N	0.2451260825824658 0.4011459872642799 0.2413378920894440	-0.173424
N	0.2564573928223185 0.0973953117248962 0.2620584535307284	-0.170162
N	0.5976157934449327 0.7553348730656239 0.7636279197294427	-0.170488
N	0.9011337929176487 0.7460205054548974 0.7397122466350258	-0.171964
N	0.7560192626267295 0.5981132572432545 0.7634355234479960	-0.171452
N	0.7442785273139511 0.9015437357010430 0.7404448186613581	-0.172687
F	0.3559775075583401 0.1351673123553215 0.7594016442375113	-0.583584
F	0.1428734066488427 0.3577072446457277 0.7574317787647572	-0.583473
F	0.3568204350524540 0.3489953733775940 0.7270447040666663	-0.579840
F	0.1431261969202135 0.1447640360650359 0.7902562879222991	-0.579968
F	0.6366985890746850 0.8572808424311884 0.2594609457480542	-0.581651
F	0.8556527379279985 0.6404842805679528 0.2577063066157508	-0.581392
F	0.6435286077732447 0.6440775652424645 0.2898866798320235	-0.577956
F	0.8511677189565804 0.8540507010012034 0.2265528285268085	-0.578585
F	0.2531144594489560 0.2517971172559708 -0.0111893422710871	-0.618978
F	0.7515285576518631 0.7535409262548527 0.4884436409303836	-0.617434
O	0.2466379841321300 0.2438771123110978 0.5160702327393112	-0.932452
O	0.7442804181544896 0.7463980261186335 0.0160128095735578	-0.931156
Nb	0.2495386149733333 0.2463544356178136 0.7336143614344082	2.408939
Nb	0.7462607295159459 0.7490950218358389 0.2335957677839741	2.405616
Co	0.2501488773417711 0.2492418200570551 0.2560767886071191	0.645307
Co	0.7495075248132173 0.7499699075912752 0.7563582447085817	0.645270
	  	
