#======================================================================

# CRYSTAL DATA

#----------------------------------------------------------------------

data_VESTA_phase_1


_pd_phase_name                         NbOFFIVE_2_Co
_cell_length_a                         13.71467
_cell_length_b                         13.71467
_cell_length_c                         8.10734
_cell_angle_alpha                      90
_cell_angle_beta                       90
_cell_angle_gamma                      90
_symmetry_space_group_name_H-M         P 1
_symmetry_Int_Tables_number            1

loop_
_symmetry_equiv_pos_as_xyz
   x, y, z

loop_
   _atom_site_label
   _atom_site_fract_x
   _atom_site_fract_y
   _atom_site_fract_z
   _atom_site_charge
C	0.5319464153974967 0.6986161529215787 0.1328914271433676	0.097320
C	0.5317494109935605 0.7995589276463594 0.1380788174629458	-0.165301
C	0.4680535846025039 0.3013838820784207 0.1328914271433676	0.097316
C	0.4682505890064393 0.2004411073536399 0.1380788174629458	-0.165297
C	0.3013838820784207 0.5319464153974967 0.1328914271433676	0.097317
C	0.2004411073536399 0.5317494109935605 0.1380788174629458	-0.165300
C	0.6986161529215787 0.4680535846025039 0.1328914271433676	0.097314
C	0.7995589276463594 0.4682505890064393 0.1380788174629458	-0.165297
C	0.4690009324359395 0.6978981967068341 0.8663923721293528	0.092909
C	0.4683330229057854 0.7989749740570377 0.8609404224361419	-0.162313
C	0.5309990675640606 0.3021018382931654 0.8663923721293528	0.092906
C	0.5316669770942142 0.2010250609429618 0.8609404224361419	-0.162309
C	0.6978981967068341 0.5309990675640606 0.8663923721293528	0.092903
C	0.7989749740570377 0.5316669770942142 0.8609404224361419	-0.162309
C	0.3021018382931654 0.4690009324359395 0.8663923721293528	0.092907
C	0.2010250609429618 0.4683330229057854 0.8609404224361419	-0.162312
C	0.5001828227580699 0.1473932547602295 -0.0007015179418519	0.165836
C	0.5001504848070629 0.0444676612408575 -0.0008978635287043	-0.092141
C	0.4998171772419301 0.8526067452397704 -0.0007015179418519	0.165793
C	0.4998495151929370 0.9555323307591419 -0.0008978635287043	-0.091800
C	0.8526067452397704 0.5001828227580699 -0.0007015179418519	0.165836
C	0.9555323307591419 0.5001504848070629 -0.0008978635287043	-0.092141
C	0.1473932547602295 0.4998171772419301 -0.0007015179418519	0.165793
C	0.0444676612408575 0.4998495151929370 -0.0008978635287043	-0.091800
H	0.5572582113503265 0.6559150859272210 0.2376061166349819	0.098593
H	0.5569003934698805 0.8368276306945185 0.2486572112459646	0.129252
H	0.4427417886496734 0.3440848440727735 0.2376061166349819	0.098593
H	0.4430996065301194 0.1631723693054820 0.2486572112459646	0.129253
H	0.3440848440727735 0.5572582113503265 0.2376061166349819	0.098593
H	0.1631723693054820 0.5569003934698805 0.2486572112459646	0.129253
H	0.6559150859272210 0.4427417886496734 0.2376061166349819	0.098593
H	0.8368276306945185 0.4430996065301194 0.2486572112459646	0.129254
H	0.4441074347333664 0.6550551658894566 0.7615211650148046	0.105178
H	0.4430428705241995 0.8361232748691821 0.7502507097722004	0.129203
H	0.5558925652666334 0.3449447641105374 0.7615211650148046	0.105177
H	0.5569571294758004 0.1638767251308176 0.7502507097722004	0.129204
H	0.6550551658894566 0.5558925652666334 0.7615211650148046	0.105178
H	0.8361232748691821 0.5569571294758004 0.7502507097722004	0.129205
H	0.3449447641105374 0.4441074347333664 0.7615211650148046	0.105178
H	0.1638767251308176 0.4430428705241995 0.7502507097722004	0.129203
Co	0.5000000000000000 0.5000000000000000 0.0046868303865855	0.617281
Nb	0.5000000000000000 0.5000000000000000 0.4825233931628078	2.412511
F	0.5000000000000000 0.5000000000000000 0.7410342222309227	-0.614149
F	0.5997895614585886 0.6014421528901185 0.5077291853285593	-0.589169
F	0.3985578821098806 0.5997895614585886 0.5077291853285593	-0.589169
F	0.4002104735414109 0.3985578821098806 0.5077291853285593	-0.589169
F	0.6014421528901185 0.4002104735414109 0.5077291853285593	-0.589169
O	0.5000000000000000 0.5000000000000000 0.2617341113749771	-0.930292
N	0.4994069443442671 0.3519739002107553 0.0000373450134169	-0.180854
N	0.5005930556557329 0.6480261347892445 0.0000373450134169	-0.180853
N	0.6480261347892445 0.4994069443442671 0.0000373450134169	-0.180853
N	0.3519739002107553 0.5005930556557329 0.0000373450134169	-0.180853
	  	
