#======================================================================

# CRYSTAL DATA

#----------------------------------------------------------------------

data_VESTA_phase_1


_pd_phase_name                         NbOFFIVE_14_Ni_i
_cell_length_a                         13.28400
_cell_length_b                         13.26703
_cell_length_c                         7.99407
_cell_angle_alpha                      87.14904
_cell_angle_beta                       87.13676
_cell_angle_gamma                      89.38984
_symmetry_space_group_name_H-M         P 1
_symmetry_Int_Tables_number            1

loop_
_symmetry_equiv_pos_as_xyz
   x, y, z

loop_
   _atom_site_label
   _atom_site_fract_x
   _atom_site_fract_y
   _atom_site_fract_z
   _atom_site_charge
C	0.5691329952775336 0.2712219979847217 0.3615249296472725	-0.181942
C	0.4645429202097919 0.2753853290568491 0.3670023784764786	0.113973
C	0.9354279724437479 0.2940578558828484 0.4118367900518136	-0.171187
C	0.0398703459648169 0.2864296794095251 0.3997009341986317	0.113752
C	0.2694592863807511 0.5686112462441301 0.3636996453907661	-0.182712
C	0.2736509151646572 0.4638772769430318 0.3694764720287110	0.115591
C	0.3015397824914741 0.9351134445115870 0.4057983986249626	-0.172332
C	0.2928771499875762 0.0396237293239945 0.3949035621422408	0.112909
C	0.9327233560940964 0.2312445645151503 0.1342073994804930	-0.181049
C	0.0373818311521862 0.2276047519561213 0.1317602982624943	0.109523
C	0.5628693915949671 0.2033001064652204 0.0878976804589486	-0.167330
C	0.4583863170182083 0.2113942736708832 0.1030237122514156	0.109800
C	0.2045257526191636 0.5622419361716235 0.0880015807300926	-0.173558
C	0.2129253184065912 0.4577109892771407 0.1032786700134359	0.110323
C	0.2277271029343082 0.9322453187399522 0.1364580008906059	-0.178789
C	0.2239259920669105 0.0370204513924262 0.1344119090745625	0.111368
C	0.4326759964110784 0.7322561569633848 0.6336347846590342	-0.177025
C	0.5373044860686312 0.7295361302254759 0.6304323800594278	0.110953
C	0.0623287846239596 0.7243570807609039 0.5746638966973925	-0.163222
C	0.9577703618387996 0.7273880554994998 0.5941389508791850	0.114314
C	0.7332933758096789 0.4329566706381746 0.6335182068579688	-0.177745
C	0.7307337341535287 0.5377139264178163 0.6303495422164428	0.112059
C	0.7108629955918324 0.0624022051403309 0.5816905652061903	-0.163669
C	0.7162432894564433 0.9577104711161774 0.5993323180115078	0.110957
C	0.0691773504565890 0.7645030003681068 0.8648611154980860	-0.181324
C	0.9646148895558964 0.7668271537907086 0.8725307105121276	0.116281
C	0.4353659107693687 0.7841533941124436 0.9182475095944833	-0.163713
C	0.5399214378085264 0.7804221063794077 0.9033600264125827	0.115707
C	0.7848561891617870 0.4354724616881707 0.9183044542433485	-0.166026
C	0.7804307328633628 0.5401416137591359 0.9039689602323702	0.114202
C	0.7694787525905253 0.0689708332810073 0.8617956348477415	-0.179784
C	0.7731751759841653 0.9643147003635087 0.8681249050868826	0.115017
C	0.6197909626767562 0.2350360564555101 0.2179471088525828	0.189599
C	0.8802127408045316 0.2643016728969467 0.2783667897894097	0.190943
C	0.2347413327248649 0.6192047555354788 0.2191023555260595	0.192140
C	0.2666970673353726 0.8798197383023917 0.2760614283227481	0.188692
C	0.3802081664908372 0.7591962630902490 0.7819266965430290	0.187939
C	0.1195007155491153 0.7435892269249208 0.7115874672895556	0.189858
C	0.7599354054505670 0.3803300557232859 0.7818156717783761	0.188852
C	0.7385845674181095 0.1194831057539762 0.7142308342504609	0.188885
H	0.6105388785984845 0.2915229683674330 0.4687687706833494	0.108809
H	0.4227258230593198 0.3012028458617836 0.4777135516630869	0.088458
H	0.8970767600672603 0.3224479822545414 0.5235003926364117	0.123781
H	0.0848595865258118 0.3078318219929274 0.5022584259704265	0.091816
H	0.2884875615126853 0.6103837172528068 0.4713271712238973	0.110973
H	0.2983442684737519 0.4220446346139937 0.4809368170892172	0.087542
H	0.3345475564786009 0.8966657798834794 0.5135101501390444	0.124326
H	0.3175809083477490 0.0847501354802814 0.4951494452885829	0.093024
H	0.8928158735241450 0.2128357001434652 0.0242333875844308	0.112099
H	0.0805504403746079 0.2041855042053773 0.0207486997135090	0.093645
H	0.5997931893889120 0.1728811144394608 0.9765987211843429	0.124010
H	0.4118616994036772 0.1883896968714261 0.0033795669925587	0.097697
H	0.1754618157824500 0.5991634748552728 0.9755732590253554	0.125699
H	0.1914611512793920 0.4111249686957503 0.0026277342635594	0.097730
H	0.2049006064122331 0.8921946711346931 0.0292694281407915	0.113614
H	0.1965471406449103 0.0802462594794266 0.0263010022633136	0.093828
H	0.3930563464309765 0.7165093515475299 0.5219596488984654	0.106829
H	0.5806429734747988 0.7089410213884304 0.5178998797754883	0.093384
H	0.0988111376266517 0.7072876387984712 0.4545380928985629	0.123078
H	0.9111687545203954 0.7118026808766226 0.4905734944402093	0.094285
H	0.7182616665310150 0.3931672236196571 0.5216731060157348	0.108027
H	0.7108420083185163 0.5811685468083594 0.5175401209542416	0.093256
H	0.6853638612600785 0.0992037458127357 0.4666488975495896	0.124141
H	0.6948625718564327 0.9110438134344038 0.4988898478840230	0.096231
H	0.1106225444376303 0.7757364248436046 0.9765745145722955	0.102403
H	0.9228647511169407 0.7828585455698679 0.9889551509791978	0.086059
H	0.3971317332356591 0.8063143003622647 0.0341580100131519	0.121506
H	0.5848476488189829 0.8003351922055882 0.0067173130267997	0.089034
H	0.8073036293047180 0.3970627566252291 0.0339190169316079	0.122690
H	0.7996206879580157 0.5850843338924089 0.0078273692641130	0.089072
H	0.7868893089301165 0.1103981697181540 0.9707181495436300	0.104947
H	0.7966187459842821 0.9224162258785618 0.9803827991653785	0.088911
N	0.7742528682259607 0.2755361414081434 0.2955881588323707	-0.106943
N	0.2792851599487423 0.7737669501395043 0.2908384803257413	-0.109556
N	0.7257838750985531 0.2232323218990385 0.1992594648618795	-0.107470
N	0.2221840391381497 0.7252155950712407 0.2022671608676236	-0.106965
N	0.2254595825130362 0.7374864288350403 0.6850713526833972	-0.101645
N	0.7301407895688509 0.2256148825304827 0.6903362630120337	-0.103101
N	0.2742209753334849 0.7657705038376950 0.8059863174904890	-0.101926
N	0.7675867557112188 0.2742314633524912 0.8040131694701483	-0.104088
N	0.4096255487545006 0.2468669519132559 0.2401883043432992	-0.221504
N	0.0905868842497777 0.2533908650283671 0.2624575243486796	-0.220904
N	0.2468748914733323 0.4088693781214759 0.2416392967348209	-0.223546
N	0.2546116374481424 0.0902391790838876 0.2617614608771056	-0.221758
N	0.5906068237002521 0.7527461159654077 0.7627378497000629	-0.218599
N	0.9092158106789389 0.7488618527769408 0.7401251007815147	-0.221316
N	0.7531507191255494 0.5909810254987976 0.7631624666588311	-0.218727
N	0.7473527128644457 0.9091018582763029 0.7396581934683294	-0.220628
F	0.3524585015897043 0.1414941966752412 0.7601357862224944	-0.577097
F	0.1467211269327638 0.3529048809423115 0.7578260272159908	-0.576465
F	0.3546451456421542 0.3496387885043610 0.7372161831375744	-0.575908
F	0.1456978666565431 0.1461440302514794 0.7820784163630191	-0.574730
F	0.6416772484221124 0.8520346312319543 0.2612260137342127	-0.572388
F	0.8530994546427907 0.6466331489946060 0.2587483583242121	-0.572129
F	0.6467976242174654 0.6454181081843547 0.2795460075674419	-0.570521
F	0.8499245168511892 0.8542379942884621 0.2413630798330338	-0.572338
F	0.2507506301752838 0.2499211695230663 -0.0014881453821742	-0.620455
F	0.7489919595733329 0.7499430797659351 0.4992085930374889	-0.616474
O	0.2498131751337969 0.2472847789950666 0.5084025405572544	-0.941484
O	0.7487207696425840 0.7505071583427355 0.0085805961105779	-0.937837
Nb	0.2501469208256527 0.2475997754467837 0.7326327011078061	2.428155
Nb	0.7480236554155447 0.7501057570304333 0.2330126473339494	2.419891
Ni	0.2502613958872423 0.2496232762739233 0.2561561635006822	0.799399
Ni	0.7500188544785961 0.7502165521649599 0.7564477880158268	0.795920
	  	
