#======================================================================

# CRYSTAL DATA

#----------------------------------------------------------------------

data_VESTA_phase_1


_pd_phase_name                         NbOFFIVE_6_Cu_i
_cell_length_a                         17.59354
_cell_length_b                         17.59354
_cell_length_c                         16.10753
_cell_angle_alpha                      90
_cell_angle_beta                       90
_cell_angle_gamma                      90
_symmetry_space_group_name_H-M         P 1
_symmetry_Int_Tables_number            1

loop_
_symmetry_equiv_pos_as_xyz
   x, y, z

loop_
   _atom_site_label
   _atom_site_fract_x
   _atom_site_fract_y
   _atom_site_fract_z
   _atom_site_charge
N	0.2436430183836673 0.1341009062718063 0.1275065910129502	-0.225374
N	0.2563569816163327 0.3658991067281984 0.1275065910129502	-0.225374
N	0.3658991067281984 0.2436430183836673 0.1275065910129502	-0.225374
N	0.1341009062718063 0.2563569816163327 0.1275065910129502	-0.225374
N	0.7556511647546078 0.6340213267682474 0.3713601638194310	-0.224982
N	0.7443488352453922 0.8659786732317526 0.3713601638194310	-0.224983
N	0.6340213267682474 0.7443488352453922 0.3713601638194310	-0.224983
N	0.8659786732317526 0.7556511647546078 0.3713601638194310	-0.224982
N	0.7556511647546078 0.8659786732317526 0.8713601638194310	-0.224983
N	0.7443488352453922 0.6340213267682474 0.8713601638194310	-0.224983
N	0.6340213267682474 0.7556511647546078 0.8713601638194310	-0.224983
N	0.8659786732317526 0.7443488352453922 0.8713601638194310	-0.224983
N	0.2436430183836673 0.3658991067281984 0.6275065910129503	-0.225375
N	0.2563569816163327 0.1341009062718063 0.6275065910129503	-0.225374
N	0.3658991067281984 0.2563569816163327 0.6275065910129503	-0.225374
N	0.1341009062718063 0.2436430183836673 0.6275065910129503	-0.225375
C	0.2013391380627229 0.0976957357294231 0.1845741130432862	0.102576
C	0.1930464251844017 0.0192243268469723 0.1841251675134794	-0.179483
C	0.2320993726507671 0.9758679183289461 0.1248171125528474	0.111040
C	0.2772300979716498 0.0147945225932001 0.0669653717580603	-0.176309
C	0.2805183725160058 0.0937138833552994 0.0691658155125275	0.105578
C	0.2262516004216393 0.8923211289406662 0.1237387666934020	0.061544
C	0.2912301330788787 0.8479929654199587 0.1209052398850941	-0.174348
C	0.2867255098587189 0.7677659501705009 0.1221518906771887	0.084490
C	0.1474050097532471 0.7787848656414889 0.1246926206352039	-0.123484
C	0.1537356444021601 0.8566870772422170 0.1268138515687127	-0.135832
C	0.2986608749372818 0.4023042442705751 0.1845741130432862	0.102576
C	0.3069535878156028 0.4807756831530216 0.1841251675134794	-0.179483
C	0.2679006273492329 0.5241320816710539 0.1248171125528474	0.111040
C	0.2227699020283501 0.4852054924067976 0.0669653717580603	-0.176309
C	0.2194816274839944 0.4062861096446965 0.0691658155125275	0.105579
C	0.2737483995783608 0.6076788710593338 0.1237387666934020	0.061545
C	0.2087698539211237 0.6520070345800413 0.1209052398850941	-0.174349
C	0.2132744901412810 0.7322340498294991 0.1221518906771887	0.084501
C	0.3525949902467529 0.7212151343585111 0.1246926206352039	-0.123477
C	0.3462643555978400 0.6433129227577830 0.1268138515687127	-0.135834
C	0.4023042442705751 0.2013391380627229 0.1845741130432862	0.102575
C	0.4807756831530216 0.1930464251844017 0.1841251675134794	-0.179483
C	0.5241320816710539 0.2320993726507671 0.1248171125528474	0.111040
C	0.4852054924067976 0.2772300979716498 0.0669653717580603	-0.176310
C	0.4062861096446965 0.2805183725160058 0.0691658155125275	0.105579
C	0.6076788710593338 0.2262516004216393 0.1237387666934020	0.061544
C	0.6520070345800413 0.2912301330788787 0.1209052398850941	-0.174349
C	0.7322340498294991 0.2867255098587189 0.1221518906771887	0.084490
C	0.7212151343585111 0.1474050097532471 0.1246926206352039	-0.123484
C	0.6433129227577830 0.1537356444021601 0.1268138515687127	-0.135833
C	0.0976957357294231 0.2986608749372818 0.1845741130432862	0.102575
C	0.0192243268469723 0.3069535878156028 0.1841251675134794	-0.179483
C	0.9758679183289461 0.2679006273492329 0.1248171125528474	0.111040
C	0.0147945225932001 0.2227699020283501 0.0669653717580603	-0.176309
C	0.0937138833552994 0.2194816274839944 0.0691658155125275	0.105578
C	0.8923211289406662 0.2737483995783608 0.1237387666934020	0.061545
C	0.8479929654199587 0.2087698539211237 0.1209052398850941	-0.174348
C	0.7677659501705009 0.2132744901412810 0.1221518906771887	0.084501
C	0.7787848656414889 0.3525949902467529 0.1246926206352039	-0.123477
C	0.8566870772422170 0.3462643555978400 0.1268138515687127	-0.135834
C	0.7980343704536048 0.5978238580993056 0.3141611361806317	0.102906
C	0.8067520052523955 0.5193126654658238 0.3149850174985694	-0.180341
C	0.7680670224020746 0.4758394932969248 0.3745435476957255	0.112213
C	0.7225732681704026 0.5146080814132952 0.4321294675402609	-0.177890
C	0.7188433674440278 0.5934001341099407 0.4295278695598752	0.104071
C	0.7740512273595486 0.3923027781070930 0.3759365643152310	0.061176
C	0.7089819912069303 0.3480960924160213 0.3790114549377198	-0.173623
C	0.7133169543252291 0.2678415485805224 0.3779864554470156	0.084575
C	0.8526291409596013 0.2785921766687392 0.3754316511943462	-0.122733
C	0.8464867562359764 0.3565156830509494 0.3730737600848221	-0.136330
C	0.7019656295463952 0.9021761419006944 0.3141611361806317	0.102907
C	0.6932479947476045 0.9806873345341762 0.3149850174985694	-0.180341
C	0.7319329775979254 0.0241605287030768 0.3745435476957255	0.112212
C	0.7774267318295974 0.9853919715867057 0.4321294675402609	-0.177891
C	0.7811566325559722 0.9065998658900593 0.4295278695598752	0.104071
C	0.7259487726404514 0.1076972218929070 0.3759365643152310	0.061177
C	0.7910180087930697 0.1519038945839810 0.3790114549377198	-0.173623
C	0.7866830456747709 0.2321584514194776 0.3779864554470156	0.084587
C	0.6473708590403987 0.2214078233312609 0.3754316511943462	-0.122725
C	0.6535132437640236 0.1434842909490484 0.3730737600848221	-0.136332
C	0.5978238580993056 0.7019656295463952 0.3141611361806317	0.102906
C	0.5193126654658238 0.6932479947476045 0.3149850174985694	-0.180340
C	0.4758394932969248 0.7319329775979254 0.3745435476957255	0.112212
C	0.5146080814132952 0.7774267318295974 0.4321294675402609	-0.177891
C	0.5934001341099407 0.7811566325559722 0.4295278695598752	0.104071
C	0.3923027781070930 0.7259487726404514 0.3759365643152310	0.061177
C	0.3480960924160213 0.7910180087930697 0.3790114549377198	-0.173623
C	0.2678415485805224 0.7866830456747709 0.3779864554470156	0.084576
C	0.2785921766687392 0.6473708590403987 0.3754316511943462	-0.122733
C	0.3565156830509494 0.6535132437640236 0.3730737600848221	-0.136330
C	0.9021761419006944 0.7980343704536048 0.3141611361806317	0.102907
C	0.9806873345341762 0.8067520052523955 0.3149850174985694	-0.180341
C	0.0241605287030768 0.7680670224020746 0.3745435476957255	0.112213
C	0.9853919715867057 0.7225732681704026 0.4321294675402609	-0.177890
C	0.9065998658900593 0.7188433674440278 0.4295278695598752	0.104071
C	0.1076972218929070 0.7740512273595486 0.3759365643152310	0.061177
C	0.1519038945839810 0.7089819912069303 0.3790114549377198	-0.173623
C	0.2321584514194776 0.7133169543252291 0.3779864554470156	0.084587
C	0.2214078233312609 0.8526291409596013 0.3754316511943462	-0.122725
C	0.1434842909490484 0.8464867562359764 0.3730737600848221	-0.136332
C	0.7980343704536048 0.9021761419006944 0.8141611041806285	0.102907
C	0.8067520052523955 0.9806873345341762 0.8149850494985648	-0.180341
C	0.7680670224020746 0.0241605287030768 0.8745435476957251	0.112212
C	0.7225732681704026 0.9853919715867057 0.9321294995402566	-0.177890
C	0.7188433674440278 0.9065998658900593 0.9295278375598724	0.104071
C	0.7740512273595486 0.1076972218929070 0.8759365003152325	0.061176
C	0.7089819912069303 0.1519038945839810 0.8790114869377226	-0.173623
C	0.7133169543252291 0.2321584514194776 0.8779863924470209	0.084575
C	0.8526291409596013 0.2214078233312609 0.8754316511943462	-0.122733
C	0.8464867562359764 0.1434842909490484 0.8730737600848224	-0.136331
C	0.7019656295463952 0.5978238580993056 0.8141611041806285	0.102907
C	0.6932479947476045 0.5193126654658238 0.8149850494985648	-0.180341
C	0.7319329775979254 0.4758394932969248 0.8745435476957251	0.112212
C	0.7774267318295974 0.5146080814132952 0.9321294995402566	-0.177891
C	0.7811566325559722 0.5934001341099407 0.9295278375598724	0.104070
C	0.7259487726404514 0.3923027781070930 0.8759365003152325	0.061177
C	0.7910180087930697 0.3480960924160213 0.8790114869377226	-0.173622
C	0.7866830456747709 0.2678415485805224 0.8779863924470209	0.084586
C	0.6473708590403987 0.2785921766687392 0.8754316511943462	-0.122726
C	0.6535132437640236 0.3565156830509494 0.8730737600848224	-0.136332
C	0.5978238580993056 0.7980343704536048 0.8141611041806285	0.102907
C	0.5193126654658238 0.8067520052523955 0.8149850494985648	-0.180341
C	0.4758394932969248 0.7680670224020746 0.8745435476957251	0.112212
C	0.5146080814132952 0.7225732681704026 0.9321294995402566	-0.177890
C	0.5934001341099407 0.7188433674440278 0.9295278375598724	0.104070
C	0.3923027781070930 0.7740512273595486 0.8759365003152325	0.061176
C	0.3480960924160213 0.7089819912069303 0.8790114869377226	-0.173622
C	0.2678415485805224 0.7133169543252291 0.8779863924470209	0.084575
C	0.2785921766687392 0.8526291409596013 0.8754316511943462	-0.122733
C	0.3565156830509494 0.8464867562359764 0.8730737600848224	-0.136331
C	0.9021761419006944 0.7019656295463952 0.8141611041806285	0.102906
C	0.9806873345341762 0.6932479947476045 0.8149850494985648	-0.180340
C	0.0241605287030768 0.7319329775979254 0.8745435476957251	0.112212
C	0.9853919715867057 0.7774267318295974 0.9321294995402566	-0.177891
C	0.9065998658900593 0.7811566325559722 0.9295278375598724	0.104071
C	0.1076972218929070 0.7259487726404514 0.8759365003152325	0.061177
C	0.1519038945839810 0.7910180087930697 0.8790114869377226	-0.173623
C	0.2321584514194776 0.7866830456747709 0.8779863924470209	0.084586
C	0.2214078233312609 0.6473708590403987 0.8754316511943462	-0.122726
C	0.1434842909490484 0.6535132437640236 0.8730737600848224	-0.136333
C	0.2013391380627229 0.4023042442705751 0.6845741130432857	0.102576
C	0.1930464251844017 0.4807756831530216 0.6841251355134839	-0.179483
C	0.2320993726507671 0.5241320816710539 0.6248171045528466	0.111039
C	0.2772300979716498 0.4852054924067976 0.5669653357580645	-0.176309
C	0.2805183725160058 0.4062861096446965 0.5691658475125305	0.105579
C	0.2262516004216393 0.6076788710593338 0.6237388226933995	0.061545
C	0.2912301330788787 0.6520070345800413 0.6209052238850928	-0.174346
C	0.2867255098587189 0.7322340498294991 0.6221519376771891	0.084492
C	0.1474050097532471 0.7212151343585111 0.6246926286352045	-0.123481
C	0.1537356444021601 0.6433129227577830 0.6268138665687175	-0.135832
C	0.2986608749372818 0.0976957357294231 0.6845741130432857	0.102575
C	0.3069535878156028 0.0192243268469723 0.6841251355134839	-0.179483
C	0.2679006273492329 0.9758679183289461 0.6248171045528466	0.111040
C	0.2227699020283501 0.0147945225932001 0.5669653357580645	-0.176308
C	0.2194816274839944 0.0937138833552994 0.5691658475125305	0.105578
C	0.2737483995783608 0.8923211289406662 0.6237388226933995	0.061546
C	0.2087698539211237 0.8479929654199587 0.6209052238850928	-0.174347
C	0.2132744901412810 0.7677659501705009 0.6221519376771891	0.084502
C	0.3525949902467529 0.7787848656414889 0.6246926286352045	-0.123474
C	0.3462643555978400 0.8566870772422170 0.6268138665687175	-0.135832
C	0.4023042442705751 0.2986608749372818 0.6845741130432857	0.102576
C	0.4807756831530216 0.3069535878156028 0.6841251355134839	-0.179483
C	0.5241320816710539 0.2679006273492329 0.6248171045528466	0.111040
C	0.4852054924067976 0.2227699020283501 0.5669653357580645	-0.176308
C	0.4062861096446965 0.2194816274839944 0.5691658475125305	0.105578
C	0.6076788710593338 0.2737483995783608 0.6237388226933995	0.061545
C	0.6520070345800413 0.2087698539211237 0.6209052238850928	-0.174346
C	0.7322340498294991 0.2132744901412810 0.6221519376771891	0.084492
C	0.7212151343585111 0.3525949902467529 0.6246926286352045	-0.123481
C	0.6433129227577830 0.3462643555978400 0.6268138665687175	-0.135832
C	0.0976957357294231 0.2013391380627229 0.6845741130432857	0.102575
C	0.0192243268469723 0.1930464251844017 0.6841251355134839	-0.179482
C	0.9758679183289461 0.2320993726507671 0.6248171045528466	0.111039
C	0.0147945225932001 0.2772300979716498 0.5669653357580645	-0.176309
C	0.0937138833552994 0.2805183725160058 0.5691658475125305	0.105578
C	0.8923211289406662 0.2262516004216393 0.6237388226933995	0.061546
C	0.8479929654199587 0.2912301330788787 0.6209052238850928	-0.174346
C	0.7677659501705009 0.2867255098587189 0.6221519376771891	0.084502
C	0.7787848656414889 0.1474050097532471 0.6246926286352045	-0.123474
C	0.8566870772422170 0.1537356444021601 0.6268138665687175	-0.135833
H	0.1747841617121338 0.1332303564519489 0.2319906834783635	0.101718
H	0.1581206449328476 0.9917962630392902 0.2312144202709677	0.115709
H	0.3079010083332517 0.9837693084239817 0.0189971191069122	0.115753
H	0.3119757291566211 0.1262007066221326 0.0228092527844147	0.104561
H	0.3470432232308000 0.8751544516818859 0.1201961951513384	0.109043
H	0.0915905200021331 0.7517276165608716 0.1252785873089766	0.109280
H	0.1027690753844325 0.8919818445143013 0.1289068245369452	0.101115
H	0.3252158252878686 0.3667696705480495 0.2319906834783635	0.101718
H	0.3418793680671500 0.5082037899607106 0.2312144202709677	0.115709
H	0.1920989786667509 0.5162306375760138 0.0189971191069122	0.115752
H	0.1880242708433789 0.3737992793778662 0.0228092527844147	0.104561
H	0.1529567767692001 0.6248455483181141 0.1201961951513384	0.109045
H	0.4084094599978723 0.7482723834391284 0.1252785873089766	0.109280
H	0.3972309246155675 0.6080181554856987 0.1289068245369452	0.101115
H	0.3667696705480495 0.1747841617121338 0.2319906834783635	0.101718
H	0.5082037899607106 0.1581206449328476 0.2312144202709677	0.115709
H	0.5162306375760138 0.3079010083332517 0.0189971191069122	0.115753
H	0.3737992793778662 0.3119757291566211 0.0228092527844147	0.104561
H	0.6248455483181141 0.3470432232308000 0.1201961951513384	0.109044
H	0.7482723834391284 0.0915905200021331 0.1252785873089766	0.109280
H	0.6080181554856987 0.1027690753844325 0.1289068245369452	0.101115
H	0.1332303564519489 0.3252158252878686 0.2319906834783635	0.101718
H	0.9917962630392902 0.3418793680671500 0.2312144202709677	0.115709
H	0.9837693084239817 0.1920989786667509 0.0189971191069122	0.115753
H	0.1262007066221326 0.1880242708433789 0.0228092527844147	0.104561
H	0.8751544516818859 0.1529567767692001 0.1201961951513384	0.109045
H	0.7517276165608716 0.4084094599978723 0.1252785873089766	0.109280
H	0.8919818445143013 0.3972309246155675 0.1289068245369452	0.101115
H	0.8241613361375816 0.6332129870751891 0.2663790750384857	0.106372
H	0.8416371594674724 0.4918961302586658 0.2678281944431818	0.116566
H	0.6918111637128354 0.4835937874993431 0.4800141573149982	0.115594
H	0.6868991743520771 0.6259370581608865 0.4754776467821365	0.101459
H	0.6532094349185958 0.3753385594894726 0.3797048024806280	0.108747
H	0.9083942047146273 0.2514431231433833 0.3748854121809301	0.108710
H	0.8975335129336136 0.3917129089952476 0.3710001102704702	0.101382
H	0.6758386638624184 0.8667870129248109 0.2663790750384857	0.106373
H	0.6583628405325276 0.0081038347413277 0.2678281944431818	0.116566
H	0.8081888362871646 0.0164062395006627 0.4800141573149982	0.115594
H	0.8131008256479229 0.8740629418391135 0.4754776467821365	0.101459
H	0.8467905650814042 0.1246614405105271 0.3797048024806280	0.108747
H	0.5916057952853727 0.2485568768566168 0.3748854121809301	0.108711
H	0.6024664870663864 0.1082870910047524 0.3710001102704702	0.101383
H	0.6332129870751891 0.6758386638624184 0.2663790750384857	0.106372
H	0.4918961302586658 0.6583628405325276 0.2678281944431818	0.116566
H	0.4835937874993431 0.8081888362871646 0.4800141573149982	0.115595
H	0.6259370581608865 0.8131008256479229 0.4754776467821365	0.101459
H	0.3753385594894726 0.8467905650814042 0.3797048024806280	0.108747
H	0.2514431231433833 0.5916057952853727 0.3748854121809301	0.108711
H	0.3917129089952476 0.6024664870663864 0.3710001102704702	0.101383
H	0.8667870129248109 0.8241613361375816 0.2663790750384857	0.106373
H	0.0081038347413277 0.8416371594674724 0.2678281944431818	0.116566
H	0.0164062395006627 0.6918111637128354 0.4800141573149982	0.115594
H	0.8740629418391135 0.6868991743520771 0.4754776467821365	0.101459
H	0.1246614405105271 0.6532094349185958 0.3797048024806280	0.108748
H	0.2485568768566168 0.9083942047146273 0.3748854121809301	0.108710
H	0.1082870910047524 0.8975335129336136 0.3710001102704702	0.101383
H	0.8241613361375816 0.8667870129248109 0.7663790600384811	0.106373
H	0.8416371594674724 0.0081038347413277 0.7678282104431833	0.116567
H	0.6918111637128354 0.0164062395006627 0.9800141573149985	0.115593
H	0.6868991743520771 0.8740629418391135 0.9754776467821364	0.101459
H	0.6532094349185958 0.1246614405105271 0.8797047714806221	0.108746
H	0.9083942047146273 0.2485568768566168 0.8748854121809299	0.108710
H	0.8975335129336136 0.1082870910047524 0.8710001422704654	0.101383
H	0.6758386638624184 0.6332129870751891 0.7663790600384811	0.106372
H	0.6583628405325276 0.4918961302586658 0.7678282104431833	0.116566
H	0.8081888362871646 0.4835937874993431 0.9800141573149985	0.115594
H	0.8131008256479229 0.6259370581608865 0.9754776467821364	0.101459
H	0.8467905650814042 0.3753385594894726 0.8797047714806221	0.108747
H	0.5916057952853727 0.2514431231433833 0.8748854121809299	0.108711
H	0.6024664870663864 0.3917129089952476 0.8710001422704654	0.101383
H	0.6332129870751891 0.8241613361375816 0.7663790600384811	0.106372
H	0.4918961302586658 0.8416371594674724 0.7678282104431833	0.116567
H	0.4835937874993431 0.6918111637128354 0.9800141573149985	0.115594
H	0.6259370581608865 0.6868991743520771 0.9754776467821364	0.101459
H	0.3753385594894726 0.6532094349185958 0.8797047714806221	0.108746
H	0.2514431231433833 0.9083942047146273 0.8748854121809299	0.108710
H	0.3917129089952476 0.8975335129336136 0.8710001422704654	0.101383
H	0.8667870129248109 0.6758386638624184 0.7663790600384811	0.106373
H	0.0081038347413277 0.6583628405325276 0.7678282104431833	0.116566
H	0.0164062395006627 0.8081888362871646 0.9800141573149985	0.115594
H	0.8740629418391135 0.8131008256479229 0.9754776467821364	0.101459
H	0.1246614405105271 0.8467905650814042 0.8797047714806221	0.108747
H	0.2485568768566168 0.5916057952853727 0.8748854121809299	0.108711
H	0.1082870910047524 0.6024664870663864 0.8710001422704654	0.101383
H	0.1747841617121338 0.3667696705480495 0.7319906984783686	0.101718
H	0.1581206449328476 0.5082037899607106 0.7312144042709665	0.115708
H	0.3079010083332517 0.5162306375760138 0.5189971561069118	0.115752
H	0.3119757291566211 0.3737992793778662 0.5228092387844137	0.104561
H	0.3470432232308000 0.6248455483181141 0.6201962191513402	0.109044
H	0.0915905200021331 0.7482723834391284 0.6252785793089759	0.109278
H	0.1027690753844325 0.6080181554856987 0.6289068085369508	0.101115
H	0.3252158252878686 0.1332303564519489 0.7319906984783686	0.101718
H	0.3418793680671500 0.9917962630392902 0.7312144042709665	0.115708
H	0.1920989786667509 0.9837693084239817 0.5189971561069118	0.115751
H	0.1880242708433789 0.1262007066221326 0.5228092387844137	0.104561
H	0.1529567767692001 0.8751544516818859 0.6201962191513402	0.109046
H	0.4084094599978723 0.7517276165608716 0.6252785793089759	0.109278
H	0.3972309246155675 0.8919818445143013 0.6289068085369508	0.101114
H	0.3667696705480495 0.3252158252878686 0.7319906984783686	0.101718
H	0.5082037899607106 0.3418793680671500 0.7312144042709665	0.115708
H	0.5162306375760138 0.1920989786667509 0.5189971561069118	0.115751
H	0.3737992793778662 0.1880242708433789 0.5228092387844137	0.104561
H	0.6248455483181141 0.1529567767692001 0.6201962191513402	0.109045
H	0.7482723834391284 0.4084094599978723 0.6252785793089759	0.109278
H	0.6080181554856987 0.3972309246155675 0.6289068085369508	0.101114
H	0.1332303564519489 0.1747841617121338 0.7319906984783686	0.101718
H	0.9917962630392902 0.1581206449328476 0.7312144042709665	0.115708
H	0.9837693084239817 0.3079010083332517 0.5189971561069118	0.115752
H	0.1262007066221326 0.3119757291566211 0.5228092387844137	0.104560
H	0.8751544516818859 0.3470432232308000 0.6201962191513402	0.109046
H	0.7517276165608716 0.0915905200021331 0.6252785793089759	0.109279
H	0.8919818445143013 0.1027690753844325 0.6289068085369508	0.101115
F	0.3151897760556665 0.1596033814501279 0.3840272966559503	-0.612556
F	0.1848102239443336 0.3403966185498722 0.3840272966559503	-0.612556
F	0.3403966185498722 0.3151897760556665 0.3840272966559503	-0.612556
F	0.1596033814501279 0.1848102239443336 0.3840272966559503	-0.612556
F	0.6852135957556155 0.6593307747639255 0.1277815481192752	-0.612514
F	0.8147864042443845 0.8406692252360745 0.1277815481192752	-0.612514
F	0.6593307747639255 0.8147864042443845 0.1277815481192752	-0.612515
F	0.8406692252360745 0.6852135957556155 0.1277815481192752	-0.612514
F	0.6852135957556155 0.8406692252360745 0.6277815401192747	-0.612514
F	0.8147864042443845 0.6593307747639255 0.6277815401192747	-0.612514
F	0.6593307747639255 0.6852135957556155 0.6277815401192747	-0.612514
F	0.8406692252360745 0.8147864042443845 0.6277815401192747	-0.612514
F	0.3151897760556665 0.3403966185498722 0.8840272966559506	-0.612556
F	0.1848102239443336 0.1596033814501279 0.8840272966559506	-0.612556
F	0.3403966185498722 0.1848102239443336 0.8840272966559506	-0.612556
F	0.1596033814501279 0.3151897760556665 0.8840272966559506	-0.612557
F	0.2500000000000000 0.2500000000000000 0.4990151841136058	-0.650137
F	0.7500000000000000 0.7500000000000000 0.2425077164002583	-0.648144
F	0.7500000000000000 0.7500000000000000 0.7425077474002574	-0.648145
F	0.2500000000000000 0.2500000000000000 -0.0009847838863989	-0.650136
O	0.2500000000000000 0.2500000000000000 0.2609771343137698	-0.980231
O	0.7500000000000000 0.7500000000000000 0.0044930129604439	-0.980852
O	0.7500000000000000 0.7500000000000000 0.5044930179604409	-0.980852
O	0.2500000000000000 0.2500000000000000 0.7609771193137651	-0.980232
Cu	0.2500000000000000 0.2500000000000000 0.1313767845979492	0.774832
Cu	0.7500000000000000 0.7500000000000000 0.3746931398032906	0.770978
Cu	0.7500000000000000 0.7500000000000000 0.8746930758032854	0.770980
Cu	0.2500000000000000 0.2500000000000000 0.6313768325979533	0.774833
Nb	0.2500000000000000 0.2500000000000000 0.3714903939111468	2.475416
Nb	0.7500000000000000 0.7500000000000000 0.1150669726980885	2.476539
Nb	0.7500000000000000 0.7500000000000000 0.6150669886980830	2.476539
Nb	0.2500000000000000 0.2500000000000000 0.8714903939111466	2.475416
	  	
