#======================================================================

# CRYSTAL DATA

#----------------------------------------------------------------------

data_VESTA_phase_1


_pd_phase_name                         NbOFFIVE_14_Fe_i
_cell_length_a                         13.42624
_cell_length_b                         13.41504
_cell_length_c                         8.00150
_cell_angle_alpha                      87.60081
_cell_angle_beta                       87.59077
_cell_angle_gamma                      89.52279
_symmetry_space_group_name_H-M         P 1
_symmetry_Int_Tables_number            1

loop_
_symmetry_equiv_pos_as_xyz
   x, y, z

loop_
   _atom_site_label
   _atom_site_fract_x
   _atom_site_fract_y
   _atom_site_fract_z
   _atom_site_charge
C	0.5718635741126178 0.2694492303435281 0.3617220845432816	-0.184039
C	0.4685594029312160 0.2738324958507264 0.3674285170579219	0.113032
C	0.9344500619228786 0.2911339772141366 0.4139060200772681	-0.173472
C	0.0375637268786981 0.2847043540063712 0.3998532642654876	0.112249
C	0.2677982882251371 0.5719379602932506 0.3638094844993533	-0.185235
C	0.2720289113863310 0.4684998575188998 0.3700889135369580	0.114003
C	0.2987736107929671 0.9344759562898087 0.4086003647279761	-0.174569
C	0.2913417812017121 0.0376252181385843 0.3955900324022700	0.110316
C	0.9297004280059521 0.2332800663808056 0.1327386707094320	-0.180722
C	0.0331135383780400 0.2300064517739860 0.1292360968607791	0.109782
C	0.5639105960063244 0.2053199476114168 0.0851503444622101	-0.172335
C	0.4608169952164353 0.2131220276904021 0.1011769141831257	0.110905
C	0.2065376740416739 0.5637205261023858 0.0853854483757908	-0.174823
C	0.2144265843464349 0.4606139909612081 0.1017722250405306	0.107768
C	0.2298611932465088 0.9295547912199322 0.1352210986592724	-0.182202
C	0.2262551733906636 0.0330371609669652 0.1320828691252083	0.111426
C	0.4301291300582973 0.7350044506776213 0.6323136304002789	-0.181581
C	0.5334855611110784 0.7323595927742175 0.6286435857044175	0.110775
C	0.0639103962331404 0.7254013812930649 0.5735714918522905	-0.167289
C	0.9607874853243571 0.7295194481544383 0.5924071262636628	0.112345
C	0.7351544344249580 0.4300642705806433 0.6322340926751794	-0.180469
C	0.7328568775103758 0.5335332161735128 0.6285164779094711	0.111383
C	0.7131177784859573 0.0637195897595512 0.5793461619376873	-0.170555
C	0.7190787296656556 0.9605230786817084 0.5966805820835531	0.110962
C	0.0718575740422928 0.7627107759273969 0.8651935790775959	-0.185539
C	0.9685745709584268 0.7652769566289096 0.8724617104576473	0.114272
C	0.4345379550321969 0.7814245315336211 0.9201037047293663	-0.168666
C	0.5376762508075478 0.7774064518944613 0.9047990148259912	0.112874
C	0.7820649997244208 0.4343120031131573 0.9197381604432470	-0.171321
C	0.7778384616084576 0.5375248823650454 0.9047578796418855	0.113672
C	0.7675843871692101 0.0715610804915840 0.8621707208827631	-0.183043
C	0.7713978781656096 0.9681830982211407 0.8683453653021271	0.113906
C	0.6212596403929728 0.2351905010116483 0.2164146719663265	0.192218
C	0.8786247276187770 0.2633907703652089 0.2793648268057303	0.190833
C	0.2350395171039267 0.6211595342696450 0.2174858768159271	0.194278
C	0.2659368851834147 0.8786071785784230 0.2776060495340811	0.191616
C	0.3788849635086848 0.7592536205305070 0.7823930014685335	0.191610
C	0.1212537835007563 0.7427624339215617 0.7115218299421467	0.192836
C	0.7594481925699200 0.3787236902495346 0.7821029296215114	0.192579
C	0.7384198303882357 0.1210290257375981 0.7134569001471405	0.193131
H	0.6137119127390196 0.2880086693848768 0.4695635672922935	0.107040
H	0.4278590696316786 0.2988108568501874 0.4789810991316114	0.086189
H	0.8973830285872881 0.3167233795768963 0.5277831964081030	0.124218
H	0.0828167106279125 0.3054357308702877 0.5025836433456965	0.086041
H	0.2851928456884485 0.6142414771042776 0.4718459301644011	0.109409
H	0.2956657733801847 0.4278601462073884 0.4825779653481085	0.085059
H	0.3290216559682418 0.8974308308562720 0.5190038690040008	0.124846
H	0.3155288261558886 0.0830352651793313 0.4958864594333183	0.087826
H	0.8891292350149338 0.2168009778101365 0.0223746677701105	0.109771
H	0.0749720181094071 0.2081894392366291 0.0168427913850665	0.092298
H	0.5996707132408531 0.1767566726590713 0.9723011816170903	0.124885
H	0.4143863681831127 0.1909554002183355 0.0008401462136363	0.093723
H	0.1793217662966267 0.5993386839545068 0.9713701652817381	0.125720
H	0.1936378113276161 0.4140586195670386 0.0006568475564713	0.094392
H	0.2089961304061812 0.8888109168092232 0.0274119879674250	0.112832
H	0.2002133453573593 0.0749217137451023 0.0225409740782047	0.092622
H	0.3900336991225082 0.7214769093062829 0.5199974682069447	0.106155
H	0.5755289494586125 0.7139173033633579 0.5146629172503224	0.092125
H	0.0995875644993780 0.7092506421122882 0.4531795087858511	0.123113
H	0.9145809911609890 0.7158849720553934 0.4874991087162591	0.090050
H	0.7218601152360700 0.3898067116289833 0.5199409883873619	0.106520
H	0.7147221922172420 0.5756704815821291 0.5144370993235827	0.092385
H	0.6891834977029917 0.0995671251362470 0.4633102137660925	0.124819
H	0.6996332681086419 0.9142101374958108 0.4946112813636344	0.090933
H	0.1135143867646272 0.7727507361739361 0.9771684731983477	0.102524
H	0.9277923531781898 0.7801476513228077 0.9893603969236293	0.083405
H	0.3973342850095403 0.8012943156489581 0.0373643886824992	0.123282
H	0.5826302846580858 0.7950050304126669 0.0094443743237123	0.082940
H	0.8022647293504991 0.3969724140329918 0.0367483777579163	0.123394
H	0.7953695742262338 0.5824973311483553 0.0095164206724391	0.083131
H	0.7831643489040055 0.1131916639445014 0.9719246765880442	0.104428
H	0.7933274635434373 0.9273436539575953 0.9816630285345976	0.085499
N	0.7743083040535738 0.2733774694464974 0.2979844161320258	-0.115775
N	0.2772389430939398 0.7741783632250846 0.2940143485447269	-0.117582
N	0.7256092963649092 0.2241637372556988 0.1969220817279525	-0.116699
N	0.2234999102641802 0.7255348542009437 0.1994798894622856	-0.116496
N	0.2255045378319749 0.7358366979771214 0.6861291100304813	-0.111593
N	0.7293424987394603 0.2254221543690205 0.6904119402958232	-0.114571
N	0.2746005952111840 0.7662082169394173 0.8060221966112772	-0.113593
N	0.7673276308196559 0.2743512794487432 0.8040324705315494	-0.113346
N	0.4131420542012171 0.2469835582823129 0.2397195159980961	-0.245910
N	0.0869811040541740 0.2539706841660831 0.2607012513607938	-0.244694
N	0.2467234105723395 0.4129898136623019 0.2416082726920515	-0.244660
N	0.2551626411568267 0.0869008946633896 0.2603799652908680	-0.244146
N	0.5873000352158716 0.7526261621770872 0.7623047280591060	-0.243187
N	0.9129671708678417 0.7492003732450104 0.7391705516016057	-0.244927
N	0.7530864988761716 0.5872883294946011 0.7622857352467818	-0.245374
N	0.7478696572002504 0.9127154049024356 0.7385465587266143	-0.244462
F	0.3498174644629539 0.1426089709092928 0.7632661754850002	-0.568666
F	0.1479256311945192 0.3508534760672767 0.7617355207670199	-0.568793
F	0.3528310643431238 0.3474612944983467 0.7464515070302088	-0.570363
F	0.1465277009106346 0.1477785530677066 0.7814405981722917	-0.569211
F	0.6440009579068047 0.8500583029997127 0.2629155560604121	-0.564323
F	0.8509830129930671 0.6474062261121054 0.2622136121230431	-0.564156
F	0.6481526338724691 0.6470645838929806 0.2798387008188771	-0.565205
F	0.8488640529936861 0.8518809315186706 0.2488153284507233	-0.566119
F	0.2495608816058614 0.2485878188693200 0.0018150347132584	-0.598814
F	0.7480993817367708 0.7492228661095862 0.5025438584644317	-0.595984
O	0.2502345350821221 0.2482225262800885 0.5089453033097207	-0.930822
O	0.7498211927716785 0.7505598570570806 0.0088511265873585	-0.925836
Nb	0.2497746266727071 0.2474947296371659 0.7343130887731104	2.437913
Nb	0.7484087908183096 0.7496738827423548 0.2342469468214043	2.432604
Fe	0.2501870770851147 0.2499358949556757 0.2570183878533843	0.912214
Fe	0.7502106434985176 0.7501105311784106 0.7571212207638203	0.918093
	  	
