#======================================================================

# CRYSTAL DATA

#----------------------------------------------------------------------

data_VESTA_phase_1


_pd_phase_name                         NbOFFIVE_1_Ni
_cell_length_a                         11.29856
_cell_length_b                         11.29856
_cell_length_c                         7.94268
_cell_angle_alpha                      90
_cell_angle_beta                       90
_cell_angle_gamma                      90
_symmetry_space_group_name_H-M         P 1
_symmetry_Int_Tables_number            1

loop_
_symmetry_equiv_pos_as_xyz
   x, y, z

loop_
   _atom_site_label
   _atom_site_fract_x
   _atom_site_fract_y
   _atom_site_fract_z
   _atom_site_charge
C	0.2527497545924450 0.4573128931318464 0.3675049882267789	0.104740
C	0.1297095043635001 0.4566537869956021 0.3618309244881440	-0.174541
C	0.7472502884075547 0.5426871498681535 0.3675049882267789	0.104740
C	0.8702904416364952 0.5433462130043976 0.3618309244881440	-0.174541
C	0.5426871498681535 0.2527497545924450 0.3675049882267789	0.104740
C	0.5433462130043976 0.1297095043635001 0.3618309244881440	-0.174541
C	0.4573128931318464 0.7472502884075547 0.3675049882267789	0.104740
C	0.4566537869956021 0.8702904416364952 0.3618309244881440	-0.174541
C	0.7478633233646631 0.4562551520734695 0.6318505991236029	0.107458
C	0.8707879682933385 0.4562854486521955 0.6371424368486115	-0.176630
C	0.2521367196353366 0.5437448909265306 0.6318505991236029	0.107458
C	0.1292119777066572 0.5437145513478042 0.6371424368486115	-0.176631
C	0.4562551520734695 0.2521367196353366 0.6318505991236029	0.107459
C	0.4562854486521955 0.1292119777066572 0.6371424368486115	-0.176631
C	0.5437448909265306 0.7478633233646631 0.6318505991236029	0.107458
C	0.5437145513478042 0.8707879682933385 0.6371424368486115	-0.176630
C	0.0653474284983703 0.5000339392178966 0.4993076526263049	0.101525
C	0.9346525925016353 0.4999660607821031 0.4993076526263049	0.101523
C	0.4999660607821031 0.0653474284983703 0.4993076526263049	0.101525
C	0.5000339392178966 0.9346525925016353 0.4993076526263049	0.101523
H	0.3046485573274491 0.4228868037893284 0.2627985089802816	0.097286
H	0.0845844640292542 0.4205086265151290 0.2521242951914019	0.121191
H	0.6953514216725460 0.5771131962106720 0.2627985089802816	0.097286
H	0.9154155199707446 0.5794913734848710 0.2521242951914019	0.121191
H	0.5771131962106720 0.3046485573274491 0.2627985089802816	0.097285
H	0.5794913734848710 0.0845844640292542 0.2521242951914019	0.121192
H	0.4228868037893284 0.6953514216725460 0.2627985089802816	0.097286
H	0.4205086265151290 0.9154155199707446 0.2521242951914019	0.121191
H	0.6962863036967915 0.4214688002772849 0.7365616127445526	0.092569
H	0.9161780131228021 0.4203418044736297 0.7466540349326329	0.121432
H	0.3037136753032033 0.5785311997227153 0.7365616127445526	0.092569
H	0.0838219708771967 0.5796581955263702 0.7466540349326329	0.121431
H	0.4214688002772849 0.3037136753032033 0.7365616127445526	0.092569
H	0.4203418044736297 0.0838219708771967 0.7466540349326329	0.121432
H	0.5785311997227153 0.6962863036967915 0.7365616127445526	0.092569
H	0.5796581955263702 0.9161780131228021 0.7466540349326329	0.121432
Ni	0.5000000000000000 0.5000000000000000 0.5044640155846655	0.801145
Nb	0.5000000000000000 0.5000000000000000 -0.0185516520394419	2.436481
O	0.5000000000000000 0.5000000000000000 0.7561244844124736	-0.942597
F	0.5000000000000000 0.5000000000000000 0.2478045760249848	-0.620577
F	0.3789647911588159 0.3772236731122779 0.0068597804160026	-0.583656
F	0.6210352518411840 0.6227763698877222 0.0068597804160026	-0.583656
F	0.6227763698877222 0.3789647911588159 0.0068597804160026	-0.583656
F	0.3772236731122779 0.6210352518411840 0.0068597804160026	-0.583656
N	0.3133178454686169 0.5006093705034750 0.4999048394260144	-0.229985
N	0.6866821975313834 0.4993906294965253 0.4999048394260144	-0.229985
N	0.4993906294965253 0.3133178454686169 0.4999048394260144	-0.229985
N	0.5006093705034750 0.6866821975313834 0.4999048394260144	-0.229985
	  	
