#======================================================================

# CRYSTAL DATA

#----------------------------------------------------------------------

data_VESTA_phase_1


_pd_phase_name                         NbOFFIVE_18_Cd
_cell_length_a                         14.78176
_cell_length_b                         14.10367
_cell_length_c                         8.37402
_cell_angle_alpha                      89.63056
_cell_angle_beta                       95.83640
_cell_angle_gamma                      90.20055
_symmetry_space_group_name_H-M         P 1
_symmetry_Int_Tables_number            1

loop_
_symmetry_equiv_pos_as_xyz
   x, y, z

loop_
   _atom_site_label
   _atom_site_fract_x
   _atom_site_fract_y
   _atom_site_fract_z
   _atom_site_charge
F	0.4056296377243729 0.3686116137709931 0.5152736307333847	-0.580005
F	0.5189981475985395 0.4762474106116891 0.7328757510460141	-0.628032
F	0.4055490913594450 0.5631407528350091 0.5170409587519005	-0.569063
F	0.9056297047243757 0.8686115797709972 0.5152736307333847	-0.580000
F	0.0189981205985408 0.9762473416116954 0.7328757510460141	-0.628029
F	0.9055490243594433 0.0631407738350064 0.5170409587519005	-0.569060
F	0.5823932256749881 0.3591597739165633 0.4984268673996522	-0.581616
F	0.6017684390101602 0.5540832319058464 0.4943361795153176	-0.572561
F	0.0823932516749907 0.8591597399165671 0.4984268673996522	-0.581612
F	0.1017684310101589 0.0540832529058452 0.4943361795153176	-0.572556
O	0.4799577117768745 0.4749589076477354 0.2698819322546839	-0.921154
O	0.9799576787768757 0.9749588386477408 0.2698819322546839	-0.921147
C	0.6810141233189093 0.1591396199736094 0.6599185733320508	-0.425121
C	0.7535625572335463 0.1578049098150267 0.7968382306210745	0.206367
C	0.7560111744578693 0.1980560669189741 0.9499145298739181	-0.150613
C	0.6877822367981075 0.2595080860999437 0.0098536024813740	-0.146898
C	0.6738496983010086 0.3567628583304066 0.9699241746139496	0.217921
C	0.7248819258541872 0.4178580764532067 0.8638417428573595	-0.425187
C	0.8812137445975240 0.1993231391024681 0.1943772866095629	-0.433077
C	0.8422937149726720 0.1741794968656891 0.0289763234772181	0.211529
C	0.6255454065987361 0.2379789856669337 0.1206773914893305	0.203864
C	0.6055751585094025 0.1481785124312968 0.2052231738330912	-0.424998
C	0.1810141403189076 0.6591396539736051 0.6599185733320508	-0.425118
C	0.2535625912335427 0.6578049438150290 0.7968382306210745	0.206364
C	0.2560112254578708 0.6980561009189700 0.9499145298739181	-0.150611
C	0.1877822707981033 0.7595080860999426 0.0098536024813740	-0.146896
C	0.1738496733010031 0.8567628923304090 0.9699241746139496	0.217924
C	0.2248819758541843 0.9178581104532022 0.8638417428573595	-0.425187
C	0.3812136775975213 0.6993231221024626 0.1943772866095629	-0.433076
C	0.3422937819726730 0.6741794968656895 0.0289763234772181	0.211525
C	0.1255454065987437 0.7379790026669313 0.1206773914893305	0.203864
C	0.1055750995094081 0.6481785294312947 0.2052231738330912	-0.424995
C	0.3204784365702532 0.1598515239746181 0.3414225790433109	-0.423489
C	0.2473587307336503 0.1581883518138034 0.2053289970271351	0.207213
C	0.2447149104318131 0.1973805622919576 0.0505936975653183	-0.148837
C	0.3127911489546225 0.2589927263142580 0.9881593845658517	-0.147204
C	0.3257698479013035 0.3566295889568797 0.0243399064012723	0.215600
C	0.2732364033801874 0.4177558567756920 0.1262848234940372	-0.423533
C	0.1185190615184202 0.1979066364973977 0.8076250417606934	-0.434725
C	0.1579476732787476 0.1735911038757188 0.9734896534680793	0.211155
C	0.3758543296720354 0.2377349175378841 0.8793228073539376	0.203264
C	0.3957370457578257 0.1480832367938026 0.7966214979228737	-0.423394
C	0.8204784695702523 0.6598515579746138 0.3414225790433109	-0.423492
C	0.7473587637336498 0.6581883858138061 0.2053289970271351	0.207214
C	0.7447149444318159 0.6973805962919531 0.0505936975653183	-0.148840
C	0.8127911829546260 0.7589927263142575 0.9881593845658517	-0.147203
C	0.8257698139013082 0.8566296229568823 0.0243399064012723	0.215599
C	0.7732364713801866 0.9177558907756872 0.1262848234940372	-0.423535
C	0.6185189985184188 0.6979066194973924 0.8076250417606934	-0.434725
C	0.6579477242787484 0.6735911038757187 0.9734896534680793	0.211156
C	0.8758543296720349 0.7377349345378823 0.8793228073539376	0.203263
C	0.8957369787578240 0.6480832537938005 0.7966214979228737	-0.423395
H	0.7086542773441357 0.1759244183471899 0.5462408680642747	0.148187
H	0.6303549407019953 0.2132922890479505 0.6793154939037099	0.147679
H	0.6465342595793385 0.0898739915479171 0.6463281678865253	0.132767
H	0.6781506819461565 0.4566597716906576 0.7768696914270515	0.145036
H	0.7698422225045957 0.3743503949046012 0.7981018241451457	0.137352
H	0.7667395994096892 0.4698896743256287 0.9359508232892979	0.128083
H	0.8592681072540659 0.0837252544161416 0.6928955281063912	0.286206
H	0.8784855299501259 0.1394324370261503 0.2784004516084093	0.146224
H	0.8426882613526404 0.2580521584550594 0.2395653539722118	0.136728
H	0.9529018337564255 0.2204586141731582 0.1959181765204127	0.139392
H	0.5859458048680545 0.1624232047983067 0.3257382593053608	0.144582
H	0.6654638765631256 0.1020068340376288 0.2172196206143951	0.149914
H	0.5492849470766608 0.1089206158992593 0.1389704065568309	0.131768
H	0.5331778188445470 0.3339397734808249 0.2176370572683659	0.266737
H	0.2086542433441398 0.6759244183471899 0.5462408680642747	0.148186
H	0.1303549497019923 0.7132922380479498 0.6793154939037099	0.147678
H	0.1465342335793358 0.5898739745479196 0.6463281678865253	0.132766
H	0.1781507159461522 0.9566598056906601 0.7768696914270515	0.145035
H	0.2698422725045931 0.8743504289046037 0.7981018241451457	0.137351
H	0.2667395994096882 0.9698896393256222 0.9359508232892979	0.128081
H	0.3592681742540680 0.5837252454161440 0.6928955281063912	0.286207
H	0.3784855299501259 0.6394324370261499 0.2784004516084093	0.146224
H	0.3426882613526406 0.7580521234550591 0.2395653539722118	0.136726
H	0.4529018337564256 0.7204586311731562 0.1959181765204127	0.139395
H	0.0859457838680562 0.6624232217983045 0.3257382593053608	0.144580
H	0.1654639265631220 0.6020068260376358 0.2172196206143951	0.149913
H	0.0492849090766581 0.6089205638992551 0.1389704065568310	0.131767
H	0.0331778048445461 0.8339398084808244 0.2176370572683659	0.266737
H	0.2935948435187212 0.1775796745174696 0.4549115363880404	0.149223
H	0.3717194138331222 0.2134016333207546 0.3192023560347997	0.143960
H	0.3542514357908580 0.0904341692794980 0.3571110674497229	0.132875
H	0.3190194156581680 0.4575092063453479 0.2130503928887856	0.142030
H	0.2277595412798771 0.3741712675971791 0.1921944917420410	0.137371
H	0.2319021095693969 0.4691347720132852 0.0512621163331412	0.128639
H	0.1422656564126419 0.0840291541456898 0.3132631860140126	0.281210
H	0.1200506730189391 0.1372881614266611 0.7260738699784093	0.149716
H	0.1573790066612921 0.2560669987568839 0.7594478220623191	0.136473
H	0.0471726851501873 0.2196547208175582 0.8068142243224624	0.139043
H	0.4161571135952911 0.1625108794664598 0.6764164752415590	0.144496
H	0.3354539681817712 0.1021217542615768 0.7840034362271191	0.149258
H	0.4513011656357107 0.1084590098729310 0.8642670457916978	0.130977
H	0.4678871867865138 0.3341998308464830 0.7801240541879846	0.272974
H	0.7935948775187239 0.6775796745174694 0.4549115363880404	0.149224
H	0.8717194138331223 0.7134015823207539 0.3192023560347997	0.143959
H	0.8542514027908585 0.5904341522795000 0.3571110674497229	0.132875
H	0.8190194486581670 0.9575092403453506 0.2130503928887856	0.142028
H	0.7277595752798797 0.8741713015971818 0.1921944917420410	0.137374
H	0.7319020925693988 0.9691347370132789 0.0512621163331412	0.128639
H	0.6422656984126448 0.5840291451456927 0.3132631860140126	0.281211
H	0.6200507150189424 0.6372881614266614 0.7260738699784093	0.149717
H	0.6573790236612894 0.7560669637568849 0.7594478220623191	0.136473
H	0.5471726641501889 0.7196547378175558 0.8068142243224624	0.139042
H	0.9161571135952911 0.6625108964664581 0.6764164752415591	0.144495
H	0.8354540361817695 0.6021217462615829 0.7840034362271191	0.149258
H	0.9513011656357104 0.6084589578729268 0.8642670457916978	0.130979
H	0.9678871867865141 0.8341998658464824 0.7801240541879846	0.272973
N	0.8338732177525658 0.1131549368261595 0.7915328598896072	-0.146567
N	0.6073081330644828 0.3915618545202135 0.0501658728636987	-0.251599
N	0.8889037234220025 0.1229243607730930 0.9301332364941793	-0.260169
N	0.5793293740623945 0.3188936258199194 0.1391341543131489	-0.141779
N	0.3338731507525637 0.6131549198261549 0.7915328598896072	-0.146567
N	0.1073081500644804 0.8915618895202128 0.0501658728636987	-0.251604
N	0.3889036894220002 0.6229243947730890 0.9301332364941793	-0.260167
N	0.0793293740623947 0.8188936258199200 0.1391341543131489	-0.141778
N	0.1666294070781463 0.1140850527963348 0.2133993212495018	-0.147257
N	0.3927177170474963 0.3918088953558713 0.9442002014562710	-0.249856
N	0.1112128382270871 0.1232093408868959 0.0747104749907798	-0.260327
N	0.4219798304684528 0.3189902839863816 0.8591836814987711	-0.139260
N	0.6666294070781462 0.6140850357963302 0.2133993212495018	-0.147257
N	0.8927177170474965 0.8918089303558705 0.9442002014562710	-0.249858
N	0.6112128632270857 0.6232093748868911 0.0747104749907798	-0.260324
N	0.9219798304684530 0.8189902839863816 0.8591836814987711	-0.139260
Nb	0.4970045864468205 0.4645443665227886 0.4836607078119276	2.416977
Nb	-0.0029954115531793 0.9645444355227837 0.4836607078119275	2.416960
Cd	0.4992011792013237 0.5129406465167046 0.0060172666092490	0.883529
Cd	-0.0007988207986763 0.0129406505167048 0.0060172666092490	0.883529
	  	
