#======================================================================

# CRYSTAL DATA

#----------------------------------------------------------------------

data_VESTA_phase_1


_pd_phase_name                         NbOFFIVE_13_Cu_i
_cell_length_a                         15.18296
_cell_length_b                         15.18208
_cell_length_c                         8.14009
_cell_angle_alpha                      90.31786
_cell_angle_beta                       89.75648
_cell_angle_gamma                      89.53629
_symmetry_space_group_name_H-M         P 1
_symmetry_Int_Tables_number            1

loop_
_symmetry_equiv_pos_as_xyz
   x, y, z

loop_
   _atom_site_label
   _atom_site_fract_x
   _atom_site_fract_y
   _atom_site_fract_z
   _atom_site_charge
C	0.5409320477744695 0.6808810882158485 0.8754825016833940	0.106015
C	0.5449040065787841 0.7724866079358614 0.8741121118736784	-0.146762
C	0.4627659809161988 0.3216222463637355 0.8808595289537114	0.107050
C	0.4594056700957499 0.2300493973835728 0.8799996449467051	-0.139477
C	0.8210518104746369 0.9720541573423123 0.3685149171540162	0.109357
C	0.7296242161667797 0.9697524820355271 0.3627011514031954	-0.133083
C	0.3208593989404039 0.5424138109267594 0.8742410781925976	0.106137
C	0.2292210481007750 0.5464381114858795 0.8713740274143806	-0.145054
C	0.1812172153906775 0.9727042351650551 0.3623980904320064	0.104962
C	0.2727180491270096 0.9711490709157395 0.3582102123176118	-0.134246
C	0.6807053334455769 0.4622544328853859 0.8840115809997285	0.106634
C	0.7722938121711656 0.4592394974600507 0.8822019179027181	-0.137878
C	0.4539157668955618 0.6828870269137656 0.1117054140327117	0.108212
C	0.4512290707603073 0.7744148581903236 0.1141735429663310	-0.137973
C	0.5428654367634377 0.3226444889158840 0.1242314070422809	0.106334
C	0.5458314295664890 0.2310511732610937 0.1278099579141190	-0.148539
C	0.1796533161071784 0.0233212776068383 0.6327160073741250	0.113239
C	0.2709864793380083 0.0245875068608795 0.6384127699176254	-0.136944
C	0.6789947941920377 0.5461240658033828 0.1244493529723626	0.108139
C	0.7705593071500774 0.5496648526063843 0.1267930033931824	-0.148056
C	0.8184826294930092 0.0285745732355813 0.6348252026260759	0.105133
C	0.7270549363044614 0.0296472342656985 0.6385041806639588	-0.135417
C	0.3192593087038730 0.4576420518415594 0.1117324221659267	0.107990
C	0.2277668213537496 0.4549292057033924 0.1126015939869515	-0.138249
C	0.9650802034478545 0.8176430535567175 0.6279432307811761	0.112472
C	0.9635298245753959 0.7262127321410462 0.6322345456378565	-0.136565
C	0.9810538449604838 0.1793563433679387 0.6390186934068297	0.104121
C	0.9794820375572124 0.2707168058737456 0.6424124121193385	-0.137019
C	0.0223092525537914 0.8168180052211071 0.3624162768395887	0.103942
C	0.0241912091603719 0.7253635585112529 0.3572408414707320	-0.134748
C	0.0290221522855359 0.1764317034046516 0.3670779175037347	0.110835
C	0.0302548983124187 0.2678993670495099 0.3605146971132573	-0.132744
C	0.0042097213550602 0.3159467659988171 0.5001826396005444	0.043512
C	0.0022398194043325 0.4124026499859417 0.4986497827802310	0.253009
C	0.4987022770390446 0.8201757172916162 0.9946053593701598	0.058589
C	0.4999518675313790 0.9173774853134716 0.9988425260861935	0.247738
C	0.9947843474810579 0.6790494835156052 0.4950740500077817	0.039195
C	0.9973020782552434 0.5824860900941294 0.4961610582633016	0.249638
C	0.5023769318258643 0.1838314427680015 0.0048854737878538	0.058685
C	0.5015793445659114 0.0865488144770084 0.0063708439728628	0.250354
C	0.6816368334174600 -0.0008769738244507 0.5001633368344108	0.039054
C	0.5851000744089346 0.9969943768858370 0.5012624148030571	0.248798
C	0.1817790838838093 0.5012946342227889 0.9915704953349519	0.056179
C	0.0845632591993926 0.5024051682252594 0.9937762521983667	0.248313
C	0.3185457171012038 0.9972423262090665 0.4990608942733332	0.043084
C	0.4149967458293614 0.9960259068026122 0.5011445457203249	0.254076
C	0.8181248869817095 0.5044628794086314 0.0048388458653488	0.057397
C	0.9153907206403571 0.5039848433923791 0.0032766220150790	0.249227
H	0.5722642477834412 0.6410351142711219 0.7794095713324590	0.109177
H	0.5825679700904178 0.8056766692660287 0.7788449418930894	0.125788
H	0.4339273788757478 0.3604859825400689 0.7820061584720369	0.109520
H	0.4259876170238512 0.1950234208775339 0.7814824922176249	0.121136
H	0.8609825916120071 0.9505849061209857 0.2640526696404837	0.106377
H	0.6966910423207343 0.9458672574651077 0.2526904332961277	0.123559
H	0.3604867067270294 0.5729022214571751 0.7782643631185264	0.108768
H	0.1958899326214339 0.5833132564193466 0.7751322421115964	0.126691
H	0.1433570486998270 0.9546016879744222 0.2542723439923250	0.099559
H	0.3071552097729389 0.9510233894284663 0.2463382182953362	0.119278
H	0.6419357820296346 0.4320308042370385 0.7865806940669946	0.110576
H	0.8077101295125916 0.4245986027549090 0.7844350408478852	0.120516
H	0.4221849787071560 0.6440392837771154 0.2071386566424201	0.107236
H	0.4158057876252615 0.8098426063247043 0.2108844258098892	0.118183
H	0.5720169780113913 0.3621653806767433 0.2219711138670756	0.104726
H	0.5801962943863813 0.1974762988904436 0.2269054245417933	0.126717
H	0.1399370528288668 0.0428665111576585 0.7386579067012498	0.100662
H	0.3042193363290510 0.0452267801552882 0.7502704946639021	0.121090
H	0.6391152125458039 0.5766156459664852 0.2213756250702761	0.104851
H	0.8038278654208904 0.5858334941820278 0.2241058180770788	0.126208
H	0.8560974710628514 0.0491991908180995 0.7416938773753756	0.094679
H	0.6921314029422915 0.0525428323485729 0.7479414497918968	0.122035
H	0.3580603924525850 0.4267667024328436 0.2084276982400794	0.105919
H	0.1924431615419220 0.4201395318207847 0.2088435648820367	0.118345
H	0.9432864955568279 0.8571264817622600 0.7327922129317930	0.102490
H	0.9398106961059777 0.6925818464130962 0.7414136351717164	0.122110
H	0.9639626117755073 0.1416574341291467 0.7477423486719609	0.093831
H	0.9600757175530140 0.3056642169688786 0.7541293467299196	0.121418
H	0.0429767184506436 0.8549323420827570 0.2563913890299027	0.098759
H	0.0478730099667572 0.6913059730133146 0.2473896807585199	0.122043
H	0.0475282905866824 0.1363438434515227 0.2608618889714890	0.107163
H	0.0495990471703452 0.3008018882539835 0.2475247872650409	0.121595
N	0.9508968441152563 0.5406286689644710 0.6141878382817025	-0.134023
N	0.4222308312736966 0.0469018634202698 0.0079396092427595	-0.148752
N	0.5423989681622432 0.0431498194024688 0.6204260868952064	-0.134392
N	0.9563754318566058 0.4246593686466643 0.0009720225674206	-0.147903
N	0.0465306051913225 0.5408769199216158 0.3799855118126266	-0.134082
N	0.5800643574722490 0.0440901709912870 0.0083059827203673	-0.148323
N	0.9565171768788484 0.5825364889494387 0.0020576042420274	-0.146824
N	0.5444185723688515 0.9471384899926847 0.3866212919199438	-0.133509
N	0.0497926542923933 0.4542300726341947 0.3824804144053941	-0.130610
N	0.5792791227640224 0.9570596873028544 0.0002001693923014	-0.147165
N	0.4577073778264936 0.9462782157143602 0.3873224444181705	-0.130083
N	0.0435131164290321 0.5816881794326082 0.9931931404523512	-0.146092
N	0.9526952063226718 0.4540157487896577 0.6142641775965892	-0.131060
N	0.4215045625428577 0.9598232641155392 0.0076827190731580	-0.143922
N	0.0434748715988718 0.4238585820002665 0.9994202820126443	-0.146908
N	0.4558232938393710 0.0430959597304934 0.6196459231647077	-0.133634
N	0.0042915470099646 0.1332818642403877 0.5036734855648961	-0.205592
N	0.4973611254236611 0.6373504330999074 0.9939033859018477	-0.213712
N	0.9946333189477928 0.8619403462357996 0.4960436935308337	-0.205350
N	0.5027154350688219 0.3666663277304648 0.0021437619260772	-0.216185
N	0.8644291795699065 0.0006834519731622 0.5023737181680097	-0.205607
N	0.3645885672064331 0.4998695321606112 0.9938621124928977	-0.215635
N	0.1357451246595207 0.9972591686185287 0.4976879697139511	-0.205865
N	0.6353277320693900 0.5039437186399699 0.0042819797755156	-0.215745
Cu	0.0000581956362947 0.9976819797059506 0.5064161197840719	0.748609
Cu	0.4998918636176576 0.5021211970987823 0.0053093821816438	0.760269
Nb	0.0001865874158160 0.9954324966657215 0.9854300368299986	2.430749
Nb	0.4991269686043345 0.5032533573942006 0.4843035145757121	2.458657
F	0.9979453648223227 -0.0001111810994057 0.2398489702416551	-0.643047
F	0.5044484921128394 0.4993930243568530 0.7388366785173619	-0.652746
F	0.0924696449379495 0.0845671875348062 0.0090875413684537	-0.585351
F	0.5906943516396111 0.5935810767044095 0.5066869647743905	-0.603213
F	0.9083665862884802 0.9062749429636691 0.0123019429969482	-0.585449
F	0.4085115338239894 0.4124964004720154 0.5115034408554785	-0.604090
F	0.9105119200170564 0.0890423260437284 0.9994375080505188	-0.585321
F	0.4088923108632526 0.5951076266745761 0.5217992899661037	-0.602720
F	0.0901021193469778 0.9036700580242532 0.0211912878675216	-0.582286
F	0.5909638903158186 0.4113776515143588 0.4971703925181343	-0.603501
O	0.0019527804853489 0.9930085136899883 0.7662292447927895	-0.964940
O	0.4949931465084759 0.5055185708972947 0.2649965718142114	-0.980317
	  	
