#======================================================================

# CRYSTAL DATA

#----------------------------------------------------------------------

data_VESTA_phase_1


_pd_phase_name                         NbOFFIVE_2_Co_i
_cell_length_a                         13.61032
_cell_length_b                         13.61032
_cell_length_c                         8.32877
_cell_angle_alpha                      90
_cell_angle_beta                       90
_cell_angle_gamma                      90
_symmetry_space_group_name_H-M         P 1
_symmetry_Int_Tables_number            1

loop_
_symmetry_equiv_pos_as_xyz
   x, y, z

loop_
   _atom_site_label
   _atom_site_fract_x
   _atom_site_fract_y
   _atom_site_fract_z
   _atom_site_charge
C	0.0000000000000000 0.2973003618221760 0.3543463327132313	-0.155569
C	0.0000000000000000 0.1955801758391554 0.3604249644192879	0.095005
C	0.5000000000000000 0.7973003618221759 0.8543463027132362	-0.155570
C	0.5000000000000000 0.6955801758391553 0.8604249054192865	0.095005
C	0.0000000000000000 0.7026996381778241 0.3543463327132313	-0.155572
C	0.0000000000000000 0.8044198241608447 0.3604249644192879	0.095007
C	0.5000000000000000 0.2026996381778240 0.8543463027132362	-0.155572
C	0.5000000000000000 0.3044198241608447 0.8604249054192865	0.095007
C	0.7026996381778241 -0.0000000000000000 0.3543463327132313	-0.155569
C	0.8044198241608447 -0.0000000000000000 0.3604249644192879	0.095005
C	0.2026996381778240 0.5000000000000000 0.8543463027132362	-0.155569
C	0.3044198241608447 0.5000000000000000 0.8604249054192865	0.095005
C	0.2973003618221760 -0.0000000000000000 0.3543463327132313	-0.155571
C	0.1955801758391554 -0.0000000000000000 0.3604249644192879	0.095007
C	0.7973003618221759 0.5000000000000000 0.8543463027132362	-0.155571
C	0.6955801758391553 0.5000000000000000 0.8604249054192865	0.095007
C	0.0000000000000000 0.2985805911981393 0.6437533450049969	-0.158119
C	0.0000000000000000 0.1969611902339084 0.6393415850549928	0.099540
C	0.5000000000000000 0.7985805911981395 0.1437533150050013	-0.158119
C	0.5000000000000000 0.6969611902339083 0.1393415410549962	0.099540
C	0.0000000000000000 0.7014194088018605 0.6437533450049969	-0.158121
C	0.0000000000000000 0.8030388097660917 0.6393415850549928	0.099542
C	0.5000000000000000 0.2014194088018606 0.1437533150050013	-0.158121
C	0.5000000000000000 0.3030388097660916 0.1393415410549962	0.099542
C	0.2985805911981393 -0.0000000000000000 0.6437533450049969	-0.158121
C	0.1969611902339084 -0.0000000000000000 0.6393415850549928	0.099542
C	0.7985805911981395 0.5000000000000000 0.1437533150050013	-0.158121
C	0.6969611902339083 0.5000000000000000 0.1393415410549962	0.099542
C	0.7014194088018605 -0.0000000000000000 0.6437533450049969	-0.158118
C	0.8030388097660917 -0.0000000000000000 0.6393415850549928	0.099540
C	0.2014194088018606 0.5000000000000000 0.1437533150050013	-0.158118
C	0.3030388097660916 0.5000000000000000 0.1393415410549962	0.099540
C	0.0000000000000000 0.4551473970308502 0.4975976095187057	-0.095302
C	0.0000000000000000 0.3514661215535039 0.4984624472063912	0.159792
C	0.5000000000000000 0.9551473620308506 0.9975976095187057	-0.095302
C	0.5000000000000000 0.8514660865535045 0.9984624472063914	0.159792
C	0.0000000000000000 0.5448526029691501 0.4975976095187057	-0.095058
C	0.0000000000000000 0.6485339134464955 0.4984624472063911	0.159762
C	0.5000000000000000 0.0448526159691545 0.9975976095187057	-0.095058
C	0.5000000000000000 0.1485338964464978 0.9984624472063914	0.159762
C	0.5448526029691501 -0.0000000000000000 0.4975976095187057	-0.095302
C	0.6485339134464955 -0.0000000000000000 0.4984624472063911	0.159792
C	0.0448526159691545 0.5000000000000000 0.9975976095187057	-0.095302
C	0.1485338964464978 0.5000000000000000 0.9984624472063914	0.159792
C	0.4551473970308502 -0.0000000000000000 0.4975976095187057	-0.095058
C	0.3514661215535039 -0.0000000000000000 0.4984624472063911	0.159762
C	0.9551473620308506 0.5000000000000000 0.9975976095187057	-0.095058
C	0.8514660865535045 0.5000000000000000 0.9984624472063914	0.159762
H	0.0000000000000000 0.3341613513512780 0.2382941056024922	0.123126
H	0.0000000000000000 0.1519743051728636 0.2513084581674888	0.099110
H	0.5000000000000000 0.8341613853512808 0.7382941206024899	0.123126
H	0.5000000000000000 0.6519743401728628 0.7513084431674913	0.099110
H	0.0000000000000000 0.6658386146487192 0.2382941056024922	0.123125
H	0.0000000000000000 0.8480256598271372 0.2513084581674888	0.099110
H	0.5000000000000000 0.1658386316487243 0.7382941206024899	0.123125
H	0.5000000000000000 0.3480256948271364 0.7513084431674913	0.099110
H	0.6658386146487192 -0.0000000000000000 0.2382941056024922	0.123126
H	0.8480256598271372 -0.0000000000000000 0.2513084581674888	0.099109
H	0.1658386316487243 0.5000000000000000 0.7382941206024899	0.123126
H	0.3480256948271364 0.5000000000000000 0.7513084431674913	0.099109
H	0.3341613513512780 -0.0000000000000000 0.2382941056024922	0.123125
H	0.1519743051728636 -0.0000000000000000 0.2513084581674888	0.099109
H	0.8341613853512808 0.5000000000000000 0.7382941206024899	0.123125
H	0.6519743401728628 0.5000000000000000 0.7513084431674913	0.099109
H	0.0000000000000000 0.3361438737172527 0.7591865413721949	0.122502
H	0.0000000000000000 0.1538392112236125 0.7488745931128291	0.092451
H	0.5000000000000000 0.8361439077172554 0.2591865703721863	0.122502
H	0.5000000000000000 0.6538392462236117 0.2488745641128303	0.092451
H	0.0000000000000000 0.6638560922827446 0.7591865413721949	0.122501
H	0.0000000000000000 0.8461607537763883 0.7488745931128291	0.092451
H	0.5000000000000000 0.1638561092827494 0.2591865703721863	0.122501
H	0.5000000000000000 0.3461607887763874 0.2488745641128303	0.092451
H	0.3361438737172527 -0.0000000000000000 0.7591865413721949	0.122501
H	0.1538392112236125 -0.0000000000000000 0.7488745931128291	0.092450
H	0.8361439077172554 0.5000000000000000 0.2591865703721863	0.122501
H	0.6538392462236117 0.5000000000000000 0.2488745641128303	0.092450
H	0.6638560922827446 -0.0000000000000000 0.7591865413721949	0.122502
H	0.8461607537763883 -0.0000000000000000 0.7488745931128291	0.092450
H	0.1638561092827494 0.5000000000000000 0.2591865703721863	0.122502
H	0.3461607887763874 0.5000000000000000 0.2488745641128303	0.092450
Co	0.0000000000000000 -0.0000000000000000 0.5044768848219483	0.611057
Co	0.5000000000000000 0.5000000000000000 0.0044768848219553	0.611057
Nb	0.0000000000000000 -0.0000000000000000 0.9840178026792077	2.392328
Nb	0.5000000000000000 0.5000000000000000 0.4840178026792075	2.392328
N	0.0000000000000000 0.1453215217870811 0.5006094922926156	-0.174706
N	0.5000000000000000 0.6453215217870811 0.0006094922926156	-0.174706
N	0.0000000000000000 0.8546784782129189 0.5006094922926156	-0.174705
N	0.5000000000000000 0.3546784782129189 0.0006094922926156	-0.174705
N	0.8546784782129189 -0.0000000000000000 0.5006094922926156	-0.174706
N	0.3546784782129189 0.5000000000000000 0.0006094922926156	-0.174706
N	0.1453215217870811 -0.0000000000000000 0.5006094922926156	-0.174706
N	0.6453215217870811 0.5000000000000000 0.0006094922926156	-0.174706
O	0.0000000000000000 -0.0000000000000000 0.7686469323357243	-0.907857
O	0.5000000000000000 0.5000000000000000 0.2686469033357255	-0.907857
F	0.0000000000000000 -0.0000000000000000 0.2365159017879233	-0.602982
F	0.5000000000000000 0.5000000000000000 0.7365158577879196	-0.602982
F	0.6011421886892865 0.6011421886892865 0.5093862451285764	-0.581071
F	0.6011421886892865 0.3988577763107141 0.5093862451285764	-0.581071
F	0.3988577763107141 0.6011421886892865 0.5093862451285764	-0.581071
F	0.3988577763107141 0.3988577763107141 0.5093862451285764	-0.581071
F	0.1011421966892873 0.1011421966892873 0.0093862451285761	-0.581071
F	0.8988578113107135 0.8988578113107135 0.0093862451285761	-0.581071
F	0.8988578113107135 0.1011421966892873 0.0093862451285761	-0.581071
F	0.1011421966892873 0.8988578113107135 0.0093862451285761	-0.581071
	  	
