#======================================================================

# CRYSTAL DATA

#----------------------------------------------------------------------

data_VESTA_phase_1


_pd_phase_name                         NbOFFIVE_6_Cd_i
_cell_length_a                         18.24275
_cell_length_b                         18.24275
_cell_length_c                         16.39501
_cell_angle_alpha                      90
_cell_angle_beta                       90
_cell_angle_gamma                      90
_symmetry_space_group_name_H-M         P 1
_symmetry_Int_Tables_number            1

loop_
_symmetry_equiv_pos_as_xyz
   x, y, z

loop_
   _atom_site_label
   _atom_site_fract_x
   _atom_site_fract_y
   _atom_site_fract_z
   _atom_site_charge
N	0.2404015415553414 0.1205632583654229 0.1276456766141717	-0.241779
N	0.2595984584446587 0.3794367546345814 0.1276456766141717	-0.241783
N	0.3794367546345814 0.2404015415553414 0.1276456766141717	-0.241784
N	0.1205632583654229 0.2595984584446587 0.1276456766141717	-0.241778
N	0.7561975696250285 0.6204230240773977 0.3727025549580665	-0.240876
N	0.7438024303749715 0.8795769759226023 0.3727025549580665	-0.240876
N	0.6204230240773977 0.7438024303749715 0.3727025549580665	-0.240876
N	0.8795769759226023 0.7561975696250285 0.3727025549580665	-0.240876
N	0.7561975696250285 0.8795769759226023 0.8727025549580663	-0.240877
N	0.7438024303749715 0.6204230240773977 0.8727025549580663	-0.240876
N	0.6204230240773977 0.7561975696250285 0.8727025549580663	-0.240877
N	0.8795769759226023 0.7438024303749715 0.8727025549580663	-0.240877
N	0.2404015415553414 0.3794367546345814 0.6276456766141717	-0.241769
N	0.2595984584446587 0.1205632583654229 0.6276456766141717	-0.241763
N	0.3794367546345814 0.2595984584446587 0.6276456766141717	-0.241768
N	0.1205632583654229 0.2404015415553414 0.6276456766141717	-0.241764
C	0.2026088545028320 0.0846864458060576 0.1856550327803488	0.099748
C	0.1949350453135328 0.0088314756388629 0.1851913660225672	-0.183520
C	0.2301092196753896 0.9677366953124594 0.1243750358751260	0.109196
C	0.2704976712470156 0.0059004041006986 0.0652448547994266	-0.180451
C	0.2732337515078241 0.0820886457643943 0.0680104858383282	0.101923
C	0.2252616622161369 0.8869871583425458 0.1229839064357037	0.063481
C	0.2884253323051080 0.8449696462882715 0.1195745855960625	-0.176268
C	0.2851913097476010 0.7675565668431803 0.1206300833892938	0.085883
C	0.1506891223936406 0.7765262162534232 0.1234374498227236	-0.125604
C	0.1557768943431913 0.8517277750908749 0.1260843046831984	-0.136477
C	0.2973911584971722 0.4153135341939403 0.1856550327803488	0.099765
C	0.3050649676864720 0.4911685343611309 0.1851913660225672	-0.183520
C	0.2698907803246104 0.5322633046875406 0.1243750358751260	0.109195
C	0.2295023287529842 0.4940996108992992 0.0652448547994266	-0.180451
C	0.2267662484921759 0.4179113472356014 0.0680104858383282	0.101925
C	0.2747383377838631 0.6130128416574542 0.1229839064357037	0.063481
C	0.2115746546948945 0.6550303537117285 0.1195745855960625	-0.176269
C	0.2148086902523992 0.7324434331568196 0.1206300833892938	0.085882
C	0.3493108776063593 0.7234737837465768 0.1234374498227236	-0.125604
C	0.3442231056568088 0.6482722249091251 0.1260843046831984	-0.136477
C	0.4153135341939403 0.2026088545028320 0.1856550327803488	0.099766
C	0.4911685343611309 0.1949350453135328 0.1851913660225672	-0.183520
C	0.5322633046875406 0.2301092196753896 0.1243750358751260	0.109195
C	0.4940996108992992 0.2704976712470156 0.0652448547994266	-0.180452
C	0.4179113472356014 0.2732337515078241 0.0680104858383282	0.101926
C	0.6130128416574542 0.2252616622161369 0.1229839064357037	0.063481
C	0.6550303537117285 0.2884253323051080 0.1195745855960625	-0.176269
C	0.7324434331568196 0.2851913097476010 0.1206300833892938	0.085883
C	0.7234737837465768 0.1506891223936406 0.1234374498227236	-0.125604
C	0.6482722249091251 0.1557768943431913 0.1260843046831984	-0.136478
C	0.0846864458060576 0.2973911584971722 0.1856550327803488	0.099749
C	0.0088314756388629 0.3050649676864720 0.1851913660225672	-0.183520
C	0.9677366953124594 0.2698907803246104 0.1243750358751260	0.109195
C	0.0059004041006986 0.2295023287529842 0.0652448547994266	-0.180451
C	0.0820886457643943 0.2267662484921759 0.0680104858383282	0.101924
C	0.8869871583425458 0.2747383377838631 0.1229839064357037	0.063481
C	0.8449696462882715 0.2115746546948945 0.1195745855960625	-0.176268
C	0.7675565668431804 0.2148086902523992 0.1206300833892938	0.085882
C	0.7765262162534232 0.3493108776063593 0.1234374498227236	-0.125604
C	0.8517277750908749 0.3442231056568088 0.1260843046831984	-0.136477
C	0.7947736298698275 0.5854609736948393 0.3146519435922377	0.100119
C	0.8033384830866821 0.5096782713637141 0.3147655185294139	-0.180986
C	0.7683467280115971 0.4677866678558371 0.3750134632587337	0.108714
C	0.7272573345774341 0.5050503745680989 0.4342865967799889	-0.181234
C	0.7236610931822985 0.5811668253606728 0.4318934189997200	0.100734
C	0.7738625098904218 0.3871031429011559 0.3755068383158905	0.062112
C	0.7109517506737356 0.3446694834356932 0.3782733028673227	-0.175846
C	0.7146929707501521 0.2672956914058822 0.3767513582969607	0.085991
C	0.8491492393911396 0.2771868230690385 0.3740223976718015	-0.125628
C	0.8435802666383424 0.3523843188089592 0.3720616712508708	-0.135976
C	0.7052263701301725 0.9145390263051607 0.3146519435922377	0.100120
C	0.6966615169133179 0.9903217286362859 0.3147655185294139	-0.180986
C	0.7316532719884029 0.0322133541441648 0.3750134632587337	0.108714
C	0.7727426654225659 0.9949496784319020 0.4342865967799889	-0.181234
C	0.7763389068177015 0.9188331746393272 0.4318934189997200	0.100734
C	0.7261374901095782 0.1128968570988438 0.3755068383158905	0.062112
C	0.7890482493262644 0.1553305035643092 0.3782733028673227	-0.175846
C	0.7853070292498479 0.2327043085941180 0.3767513582969607	0.085991
C	0.6508507606088604 0.2228131769309614 0.3740223976718015	-0.125629
C	0.6564197333616576 0.1476156551910388 0.3720616712508708	-0.135977
C	0.5854609736948393 0.7052263701301725 0.3146519435922377	0.100119
C	0.5096782713637141 0.6966615169133179 0.3147655185294139	-0.180985
C	0.4677866678558371 0.7316532719884029 0.3750134632587337	0.108714
C	0.5050503745680989 0.7727426654225659 0.4342865967799889	-0.181234
C	0.5811668253606728 0.7763389068177015 0.4318934189997200	0.100734
C	0.3871031429011559 0.7261374901095782 0.3755068383158905	0.062112
C	0.3446694834356932 0.7890482493262644 0.3782733028673227	-0.175846
C	0.2672956914058822 0.7853070292498479 0.3767513582969607	0.085991
C	0.2771868230690385 0.6508507606088604 0.3740223976718015	-0.125628
C	0.3523843188089592 0.6564197333616576 0.3720616712508708	-0.135977
C	0.9145390263051607 0.7947736298698275 0.3146519435922377	0.100120
C	0.9903217286362859 0.8033384830866821 0.3147655185294139	-0.180986
C	0.0322133541441648 0.7683467280115971 0.3750134632587337	0.108714
C	0.9949496784319020 0.7272573345774341 0.4342865967799889	-0.181233
C	0.9188331746393272 0.7236610931822985 0.4318934189997200	0.100735
C	0.1128968570988438 0.7738625098904218 0.3755068383158905	0.062112
C	0.1553305035643092 0.7109517506737356 0.3782733028673227	-0.175846
C	0.2327043085941180 0.7146929707501521 0.3767513582969607	0.085990
C	0.2228131769309614 0.8491492393911396 0.3740223976718015	-0.125629
C	0.1476156551910388 0.8435802666383424 0.3720616712508708	-0.135977
C	0.7947736298698275 0.9145390263051607 0.8146519115922352	0.100119
C	0.8033384830866821 0.9903217286362859 0.8147655505294097	-0.180986
C	0.7683467280115971 0.0322133541441648 0.8750134632587333	0.108713
C	0.7272573345774341 0.9949496784319020 0.9342866287799845	-0.181233
C	0.7236610931822985 0.9188331746393272 0.9318933869997176	0.100735
C	0.7738625098904218 0.1128968570988438 0.8755067743158919	0.062112
C	0.7109517506737356 0.1553305035643092 0.8782733348673253	-0.175847
C	0.7146929707501521 0.2327043085941180 0.8767512952969660	0.085991
C	0.8491492393911396 0.2228131769309614 0.8740223976718010	-0.125628
C	0.8435802666383424 0.1476156551910388 0.8720616712508710	-0.135977
C	0.7052263701301725 0.5854609736948393 0.8146519115922352	0.100119
C	0.6966615169133179 0.5096782713637141 0.8147655505294097	-0.180986
C	0.7316532719884029 0.4677866678558371 0.8750134632587333	0.108714
C	0.7727426654225659 0.5050503745680989 0.9342866287799845	-0.181234
C	0.7763389068177015 0.5811668253606728 0.9318933869997176	0.100733
C	0.7261374901095782 0.3871031429011559 0.8755067743158919	0.062112
C	0.7890482493262644 0.3446694834356932 0.8782733348673253	-0.175845
C	0.7853070292498479 0.2672956914058822 0.8767512952969660	0.085990
C	0.6508507606088604 0.2771868230690385 0.8740223976718010	-0.125629
C	0.6564197333616576 0.3523843188089592 0.8720616712508710	-0.135977
C	0.5854609736948393 0.7947736298698275 0.8146519115922352	0.100120
C	0.5096782713637141 0.8033384830866821 0.8147655505294097	-0.180986
C	0.4677866678558371 0.7683467280115971 0.8750134632587333	0.108713
C	0.5050503745680989 0.7272573345774341 0.9342866287799845	-0.181233
C	0.5811668253606728 0.7236610931822985 0.9318933869997176	0.100734
C	0.3871031429011559 0.7738625098904218 0.8755067743158919	0.062112
C	0.3446694834356932 0.7109517506737356 0.8782733348673253	-0.175846
C	0.2672956914058822 0.7146929707501521 0.8767512952969660	0.085991
C	0.2771868230690385 0.8491492393911396 0.8740223976718010	-0.125628
C	0.3523843188089592 0.8435802666383424 0.8720616712508710	-0.135977
C	0.9145390263051607 0.7052263701301725 0.8146519115922352	0.100120
C	0.9903217286362859 0.6966615169133179 0.8147655505294097	-0.180985
C	0.0322133541441648 0.7316532719884029 0.8750134632587333	0.108714
C	0.9949496784319020 0.7727426654225659 0.9342866287799845	-0.181234
C	0.9188331746393272 0.7763389068177015 0.9318933869997176	0.100735
C	0.1128968570988438 0.7261374901095782 0.8755067743158919	0.062112
C	0.1553305035643092 0.7890482493262644 0.8782733348673253	-0.175846
C	0.2327043085941180 0.7853070292498479 0.8767512952969660	0.085990
C	0.2228131769309614 0.6508507606088604 0.8740223976718010	-0.125629
C	0.1476156551910388 0.6564197333616576 0.8720616712508710	-0.135977
C	0.2026088545028320 0.4153135341939403 0.6856550327803488	0.099764
C	0.1949350453135328 0.4911685343611309 0.6851913340225708	-0.183518
C	0.2301092196753896 0.5322633046875406 0.6243750278751254	0.109192
C	0.2704976712470156 0.4940996108992992 0.5652448187994308	-0.180437
C	0.2732337515078241 0.4179113472356014 0.5680105178383313	0.101911
C	0.2252616622161369 0.6130128416574542 0.6229839624357010	0.063480
C	0.2884253323051080 0.6550303537117285 0.6195745695960612	-0.176269
C	0.2851913097476010 0.7324434331568197 0.6206301303892936	0.085883
C	0.1506891223936406 0.7234737837465768 0.6234374578227252	-0.125603
C	0.1557768943431913 0.6482722249091251 0.6260843196832033	-0.136478
C	0.2973911584971722 0.0846864458060576 0.6856550327803488	0.099746
C	0.3050649676864720 0.0088314756388629 0.6851913340225708	-0.183518
C	0.2698907803246104 0.9677366953124594 0.6243750278751254	0.109193
C	0.2295023287529842 0.0059004041006986 0.5652448187994308	-0.180436
C	0.2267662484921759 0.0820886457643943 0.5680105178383313	0.101910
C	0.2747383377838631 0.8869871583425458 0.6229839624357010	0.063480
C	0.2115746546948945 0.8449696462882715 0.6195745695960612	-0.176269
C	0.2148086902523992 0.7675565668431804 0.6206301303892936	0.085882
C	0.3493108776063593 0.7765262162534232 0.6234374578227252	-0.125604
C	0.3442231056568088 0.8517277750908749 0.6260843196832033	-0.136477
C	0.4153135341939403 0.2973911584971722 0.6856550327803488	0.099764
C	0.4911685343611309 0.3050649676864720 0.6851913340225707	-0.183518
C	0.5322633046875406 0.2698907803246104 0.6243750278751254	0.109193
C	0.4940996108992992 0.2295023287529842 0.5652448187994308	-0.180436
C	0.4179113472356014 0.2267662484921759 0.5680105178383313	0.101912
C	0.6130128416574542 0.2747383377838631 0.6229839624357010	0.063480
C	0.6550303537117285 0.2115746546948945 0.6195745695960612	-0.176269
C	0.7324434331568196 0.2148086902523992 0.6206301303892936	0.085883
C	0.7234737837465768 0.3493108776063593 0.6234374578227252	-0.125603
C	0.6482722249091251 0.3442231056568088 0.6260843196832033	-0.136478
C	0.0846864458060576 0.2026088545028320 0.6856550327803488	0.099746
C	0.0088314756388629 0.1949350453135328 0.6851913340225708	-0.183517
C	0.9677366953124594 0.2301092196753896 0.6243750278751254	0.109192
C	0.0059004041006986 0.2704976712470156 0.5652448187994308	-0.180437
C	0.0820886457643943 0.2732337515078241 0.5680105178383313	0.101911
C	0.8869871583425458 0.2252616622161369 0.6229839624357010	0.063481
C	0.8449696462882715 0.2884253323051080 0.6195745695960612	-0.176268
C	0.7675565668431804 0.2851913097476010 0.6206301303892936	0.085882
C	0.7765262162534232 0.1506891223936406 0.6234374578227252	-0.125604
C	0.8517277750908749 0.1557768943431913 0.6260843196832033	-0.136477
H	0.1790682010694789 0.1181205074938212 0.2343667464777309	0.098319
H	0.1637624973674007 0.9815776853599559 0.2331414147410559	0.114103
H	0.2979533975590727 0.9763016219581037 0.0162430065275474	0.114438
H	0.3012703320850544 0.1137072067978021 0.0207599894745433	0.102318
H	0.3419483672234687 0.8717135140160889 0.1186710661052933	0.108460
H	0.0971742318419421 0.7497045078073790 0.1241515153651146	0.107797
H	0.1063991819447530 0.8853978878618112 0.1286181455452673	0.102149
H	0.3209317859305236 0.3818795195061775 0.2343667464777309	0.098308
H	0.3362375156325968 0.5184223676400449 0.2331414147410559	0.114103
H	0.2020465894409297 0.5236983240418919 0.0162430065275474	0.114438
H	0.1987296679149456 0.3862927792021966 0.0207599894745433	0.102318
H	0.1580516327765315 0.6282864859839111 0.1186710661052933	0.108459
H	0.4028257481580633 0.7502954921926210 0.1241515153651146	0.107795
H	0.3936008180552467 0.6146021121381888 0.1286181455452673	0.102149
H	0.3818795195061775 0.1790682010694789 0.2343667464777309	0.098308
H	0.5184223676400449 0.1637624973674007 0.2331414147410559	0.114102
H	0.5236983240418919 0.2979533975590727 0.0162430065275474	0.114438
H	0.3862927792021966 0.3012703320850544 0.0207599894745433	0.102318
H	0.6282864859839111 0.3419483672234687 0.1186710661052933	0.108460
H	0.7502954921926210 0.0971742318419421 0.1241515153651146	0.107798
H	0.6146021121381888 0.1063991819447530 0.1286181455452673	0.102149
H	0.1181205074938212 0.3209317859305236 0.2343667464777309	0.098320
H	0.9815776853599559 0.3362375156325968 0.2331414147410559	0.114103
H	0.9763016219581037 0.2020465894409297 0.0162430065275474	0.114438
H	0.1137072067978021 0.1987296679149456 0.0207599894745433	0.102318
H	0.8717135140160889 0.1580516327765315 0.1186710661052933	0.108460
H	0.7497045078073790 0.4028257481580633 0.1241515153651146	0.107795
H	0.8853978878618112 0.3936008180552466 0.1286181455452673	0.102149
H	0.8179965564378806 0.6194327259070720 0.2662442212491873	0.102543
H	0.8350441621592687 0.4830710040656914 0.2667837906272474	0.114091
H	0.6999284868721510 0.4747950052499673 0.4828677917211042	0.113939
H	0.6949415953527668 0.6122453062690710 0.4791095208917375	0.097708
H	0.6572616792327172 0.3710653967906738 0.3792599707536303	0.108626
H	0.9028306491615589 0.2507075776640091 0.3730512809410451	0.107747
H	0.8927240379761976 0.3863915201365652 0.3698630538811822	0.102199
H	0.6820034435621194 0.8805672740929280 0.2662442212491873	0.102543
H	0.6649558378407313 0.0169289609343020 0.2667837906272474	0.114091
H	0.8000715131278490 0.0252050217500383 0.4828677917211042	0.113939
H	0.8050584046472332 0.8877546937309290 0.4791095208917375	0.097708
H	0.8427383207672828 0.1289346032093263 0.3792599707536303	0.108623
H	0.5971693508384412 0.2492924223359911 0.3730512809410451	0.107746
H	0.6072759620238024 0.1136084798634347 0.3698630538811822	0.102201
H	0.6194327259070720 0.6820034435621194 0.2662442212491873	0.102543
H	0.4830710040656914 0.6649558378407313 0.2667837906272474	0.114091
H	0.4747950052499673 0.8000715131278490 0.4828677917211042	0.113940
H	0.6122453062690710 0.8050584046472332 0.4791095208917375	0.097708
H	0.3710653967906738 0.8427383207672828 0.3792599707536303	0.108625
H	0.2507075776640091 0.5971693508384412 0.3730512809410451	0.107748
H	0.3863915201365652 0.6072759620238024 0.3698630538811822	0.102201
H	0.8805672740929280 0.8179965564378806 0.2662442212491873	0.102543
H	0.0169289609343020 0.8350441621592687 0.2667837906272474	0.114091
H	0.0252050217500383 0.6999284868721510 0.4828677917211042	0.113939
H	0.8877546937309290 0.6949415953527668 0.4791095208917375	0.097708
H	0.1289346032093263 0.6572616792327172 0.3792599707536303	0.108624
H	0.2492924223359911 0.9028306491615588 0.3730512809410451	0.107746
H	0.1136084798634347 0.8927240379761976 0.3698630538811822	0.102200
H	0.8179965564378806 0.8805672740929280 0.7662442062491821	0.102544
H	0.8350441621592687 0.0169289609343020 0.7667838066272488	0.114091
H	0.6999284868721510 0.0252050217500383 0.9828677917211048	0.113939
H	0.6949415953527668 0.8877546937309290 0.9791095208917376	0.097708
H	0.6572616792327172 0.1289346032093263 0.8792599397536242	0.108625
H	0.9028306491615589 0.2492924223359911 0.8730512809410447	0.107747
H	0.8927240379761976 0.1136084798634347 0.8698630858811789	0.102200
H	0.6820034435621194 0.6194327259070720 0.7662442062491821	0.102543
H	0.6649558378407313 0.4830710040656914 0.7667838066272488	0.114091
H	0.8000715131278490 0.4747950052499673 0.9828677917211048	0.113939
H	0.8050584046472332 0.6122453062690710 0.9791095208917376	0.097708
H	0.8427383207672828 0.3710653967906738 0.8792599397536242	0.108624
H	0.5971693508384412 0.2507075776640091 0.8730512809410447	0.107746
H	0.6072759620238024 0.3863915201365652 0.8698630858811789	0.102200
H	0.6194327259070720 0.8179965564378806 0.7662442062491821	0.102543
H	0.4830710040656914 0.8350441621592687 0.7667838066272488	0.114091
H	0.4747950052499673 0.6999284868721510 0.9828677917211048	0.113939
H	0.6122453062690710 0.6949415953527668 0.9791095208917376	0.097708
H	0.3710653967906738 0.6572616792327172 0.8792599397536242	0.108626
H	0.2507075776640091 0.9028306491615589 0.8730512809410447	0.107747
H	0.3863915201365652 0.8927240379761976 0.8698630858811789	0.102200
H	0.8805672740929280 0.6820034435621194 0.7662442062491821	0.102543
H	0.0169289609343020 0.6649558378407313 0.7667838066272488	0.114091
H	0.0252050217500383 0.8000715131278490 0.9828677917211048	0.113939
H	0.8877546937309290 0.8050584046472332 0.9791095208917376	0.097708
H	0.1289346032093263 0.8427383207672828 0.8792599397536242	0.108624
H	0.2492924223359911 0.5971693508384412 0.8730512809410447	0.107746
H	0.1136084798634347 0.6072759620238024 0.8698630858811789	0.102200
H	0.1790682010694789 0.3818795195061775 0.7343667614777351	0.098308
H	0.1637624973674007 0.5184223676400449 0.7331413987410539	0.114103
H	0.2979533975590727 0.5236983240418919 0.5162430435275472	0.114434
H	0.3012703320850544 0.3862927792021966 0.5207599754745423	0.102312
H	0.3419483672234687 0.6282864859839111 0.6186710901052954	0.108460
H	0.0971742318419421 0.7502954921926210 0.6241515073651138	0.107796
H	0.1063991819447530 0.6146021121381888 0.6286181295452730	0.102150
H	0.3209317859305236 0.1181205074938212 0.7343667614777351	0.098319
H	0.3362375156325968 0.9815776853599559 0.7331413987410539	0.114103
H	0.2020465894409297 0.9763016219581037 0.5162430435275472	0.114434
H	0.1987296679149456 0.1137072067978021 0.5207599754745423	0.102312
H	0.1580516327765315 0.8717135140160889 0.6186710901052954	0.108460
H	0.4028257481580633 0.7497045078073790 0.6241515073651138	0.107795
H	0.3936008180552466 0.8853978878618112 0.6286181295452730	0.102148
H	0.3818795195061775 0.3209317859305236 0.7343667614777351	0.098308
H	0.5184223676400449 0.3362375156325968 0.7331413987410539	0.114103
H	0.5236983240418919 0.2020465894409297 0.5162430435275472	0.114434
H	0.3862927792021966 0.1987296679149456 0.5207599754745423	0.102312
H	0.6282864859839111 0.1580516327765315 0.6186710901052954	0.108461
H	0.7502954921926210 0.4028257481580633 0.6241515073651138	0.107796
H	0.6146021121381888 0.3936008180552466 0.6286181295452730	0.102149
H	0.1181205074938212 0.1790682010694789 0.7343667614777351	0.098319
H	0.9815776853599559 0.1637624973674007 0.7331413987410539	0.114102
H	0.9763016219581037 0.2979533975590727 0.5162430435275472	0.114434
H	0.1137072067978021 0.3012703320850544 0.5207599754745423	0.102312
H	0.8717135140160889 0.3419483672234687 0.6186710901052954	0.108459
H	0.7497045078073790 0.0971742318419421 0.6241515073651138	0.107795
H	0.8853978878618112 0.1063991819447530 0.6286181295452730	0.102150
F	0.3356390400299295 0.1856735928003895 0.3856634853205778	-0.610360
F	0.1643609599700710 0.3143264071996103 0.3856634853205778	-0.610359
F	0.3143264071996103 0.3356390400299295 0.3856634853205778	-0.610361
F	0.1856735928003895 0.1643609599700710 0.3856634853205778	-0.610358
F	0.6663089204100824 0.6831578257278936 0.1288989717140874	-0.610790
F	0.8336910795899176 0.8168421742721064 0.1288989717140874	-0.610790
F	0.6831578257278936 0.8336910795899176 0.1288989717140874	-0.610791
F	0.8168421742721064 0.6663089204100824 0.1288989717140874	-0.610789
F	0.6663089204100824 0.8168421742721064 0.6288989637140863	-0.610790
F	0.8336910795899176 0.6831578257278936 0.6288989637140863	-0.610790
F	0.6831578257278936 0.6663089204100824 0.6288989637140863	-0.610790
F	0.8168421742721064 0.8336910795899176 0.6288989637140863	-0.610790
F	0.3356390400299294 0.3143264071996103 0.8856634853205783	-0.610360
F	0.1643609599700710 0.1856735928003895 0.8856634853205783	-0.610359
F	0.3143264071996103 0.1643609599700710 0.8856634853205783	-0.610358
F	0.1856735928003895 0.3356390400299295 0.8856634853205783	-0.610361
F	0.2500000000000000 0.2500000000000000 0.4990069184296732	-0.615597
F	0.7500000000000000 0.7500000000000000 0.2424118789227283	-0.615807
F	0.7500000000000000 0.7500000000000000 0.7424119099227275	-0.615808
F	0.2500000000000000 0.2500000000000000 -0.0009930495703313	-0.615597
O	0.2500000000000000 0.2500000000000000 0.2646927200871326	-0.947437
O	0.7500000000000000 0.7500000000000000 0.0081017838028553	-0.947273
O	0.7500000000000000 0.7500000000000000 0.5081017888028523	-0.947273
O	0.2500000000000000 0.2500000000000000 0.7646927050871283	-0.947437
Cd	0.2500000000000000 0.2500000000000000 0.1332283030973928	0.863920
Cd	0.7500000000000000 0.7500000000000000 0.3765188409752222	0.863989
Cd	0.7500000000000000 0.7500000000000000 0.8765187769752176	0.863990
Cd	0.2500000000000000 0.2500000000000000 0.6332283510973965	0.863908
Nb	0.2500000000000000 0.2500000000000000 0.3734024152102041	2.486223
Nb	0.7500000000000000 0.7500000000000000 0.1168140276175755	2.485814
Nb	0.7500000000000000 0.7500000000000000 0.6168140436175694	2.485814
Nb	0.2500000000000000 0.2500000000000000 0.8734024152102047	2.486223
	  	
