#======================================================================

# CRYSTAL DATA

#----------------------------------------------------------------------

data_VESTA_phase_1


_pd_phase_name                         SIFSIX_15_Fe_i
_cell_length_a                         29.96884
_cell_length_b                         29.20307
_cell_length_c                         7.72451
_cell_angle_alpha                      90
_cell_angle_beta                       90
_cell_angle_gamma                      90
_symmetry_space_group_name_H-M         P 1
_symmetry_Int_Tables_number            1

loop_
_symmetry_equiv_pos_as_xyz
   x, y, z

loop_
   _atom_site_label
   _atom_site_fract_x
   _atom_site_fract_y
   _atom_site_fract_z
   _atom_site_charge
C	0.9325587879289359 0.1019456130876224 0.9000024750709745	0.104023
C	0.9008653278232477 0.0673603546910261 0.9059570953873778	-0.166246
C	0.7697813593615843 0.9362753805226411 0.9077914405027629	-0.115660
C	0.7356783435963244 0.9042891651799368 0.9075608605693426	-0.118632
C	0.5688117289253665 0.7423943049120434 0.8998904736690793	0.100709
C	0.6024499940783453 0.7749684500613698 0.9056316852869259	-0.171421
C	0.4325588199289314 0.6019456290876234 0.9000024750709745	0.104023
C	0.4008653598232508 0.5673603176910268 0.9059570953873778	-0.166245
C	0.2697812953615860 0.4362754135226402 0.9077914405027629	-0.115660
C	0.2356783115963218 0.4042892311799423 0.9075608605693426	-0.118632
C	0.0688117529253685 0.2423942879120456 0.8998904736690793	0.100709
C	0.1024499700783435 0.2749684830613692 0.9056316852869259	-0.171421
C	0.0674411800710686 0.8980543709123766 0.4000025060709739	0.104002
C	0.0991346481767499 0.9326396823089732 0.4059571273873733	-0.166247
C	0.2302186566384171 0.0637245824773594 0.4077915025027610	-0.115682
C	0.2643216724036770 0.0957107848200591 0.4075608605693425	-0.118623
C	0.4311882390746308 0.2576057450879535 0.3998905046690784	0.100721
C	0.3975500059216545 0.2250315169386309 0.4056316852869258	-0.171442
C	0.5674412120710641 0.3980544039123754 0.4000025060709739	0.104002
C	0.5991346721767523 0.4326396823089734 0.4059571273873733	-0.166247
C	0.7302186406384157 0.5637246194773589 0.4077915025027610	-0.115682
C	0.7643216564036756 0.5957108348200632 0.4075608605693425	-0.118623
C	0.9311882710746335 0.7576056950879566 0.3998905046690784	0.100721
C	0.8975500059216547 0.7250315499386302 0.4056316852869258	-0.171442
C	0.0674411800710686 0.1019456130876224 0.5999974939290265	0.104001
C	0.0991346481767499 0.0673603546910261 0.5940428106126215	-0.166246
C	0.2302186566384171 0.9362753805226411 0.5922085284972380	-0.115660
C	0.2643216724036770 0.9042891651799368 0.5924391704306564	-0.118632
C	0.4311882390746308 0.7423943049120434 0.6001094323309201	0.100722
C	0.3975500059216545 0.7749684500613698 0.5943682837130750	-0.171441
C	0.5674412120710641 0.6019456290876234 0.5999974939290265	0.104002
C	0.5991346721767523 0.5673603176910268 0.5940428106126215	-0.166246
C	0.7302186406384157 0.4362754135226402 0.5922085284972380	-0.115660
C	0.7643216564036756 0.4042892311799423 0.5924391704306564	-0.118632
C	0.9311882710746335 0.2423942879120456 0.6001094323309201	0.100722
C	0.8975500059216547 0.2749684830613692 0.5943682837130750	-0.171441
C	0.9325587879289359 0.8980543709123766 0.0999975099290275	0.104023
C	0.9008653278232477 0.9326396823089732 0.0940428496126213	-0.166246
C	0.7697813593615843 0.0637245824773594 0.0922085284972379	-0.115657
C	0.7356783435963244 0.0957107848200591 0.0924391554306517	-0.118633
C	0.5688117289253665 0.2576057450879535 0.1001094873309210	0.100721
C	0.6024499940783453 0.2250315169386309 0.0943683297130719	-0.171441
C	0.4325588199289314 0.3980544039123754 0.0999975099290275	0.104023
C	0.4008653598232508 0.4326396823089734 0.0940428496126213	-0.166246
C	0.2697812953615860 0.5637246194773589 0.0922085284972379	-0.115657
C	0.2356783115963218 0.5957108348200632 0.0924391554306517	-0.118633
C	0.0688117529253685 0.7576056950879566 0.1001094873309210	0.100721
C	0.1024499700783435 0.7250315499386302 0.0943683297130719	-0.171442
C	0.0674411800710686 0.8980543709123766 0.0999975099290275	0.104023
C	0.0991346481767499 0.9326396823089732 0.0940428496126213	-0.166246
C	0.2302186566384171 0.0637245824773594 0.0922085284972379	-0.115657
C	0.2643216724036770 0.0957107848200591 0.0924391554306517	-0.118633
C	0.4311882390746308 0.2576057450879535 0.1001094873309210	0.100721
C	0.3975500059216545 0.2250315169386309 0.0943683297130719	-0.171441
C	0.5674412120710641 0.3980544039123754 0.0999975099290275	0.104023
C	0.5991346721767523 0.4326396823089734 0.0940428496126213	-0.166246
C	0.7302186406384157 0.5637246194773589 0.0922085284972379	-0.115657
C	0.7643216564036756 0.5957108348200632 0.0924391554306517	-0.118633
C	0.9311882710746335 0.7576056950879566 0.1001094873309210	0.100721
C	0.8975500059216547 0.7250315499386302 0.0943683297130719	-0.171441
C	0.9325587879289359 0.1019456130876224 0.5999974939290265	0.104001
C	0.9008653278232477 0.0673603546910261 0.5940428106126215	-0.166246
C	0.7697813593615843 0.9362753805226411 0.5922085284972380	-0.115659
C	0.7356783435963244 0.9042891651799368 0.5924391704306564	-0.118632
C	0.5688117289253665 0.7423943049120434 0.6001094323309201	0.100721
C	0.6024499940783453 0.7749684500613698 0.5943682837130750	-0.171441
C	0.4325588199289314 0.6019456290876234 0.5999974939290265	0.104001
C	0.4008653598232508 0.5673603176910268 0.5940428106126215	-0.166246
C	0.2697812953615860 0.4362754135226402 0.5922085284972380	-0.115660
C	0.2356783115963218 0.4042892311799423 0.5924391704306564	-0.118633
C	0.0688117529253685 0.2423942879120456 0.6001094323309201	0.100721
C	0.1024499700783435 0.2749684830613692 0.5943682837130750	-0.171441
C	0.9325587879289359 0.8980543709123766 0.4000025060709739	0.104002
C	0.9008653278232477 0.9326396823089732 0.4059571273873733	-0.166247
C	0.7697813593615843 0.0637245824773594 0.4077915025027610	-0.115682
C	0.7356783435963244 0.0957107848200591 0.4075608605693425	-0.118623
C	0.5688117289253665 0.2576057450879535 0.3998905046690784	0.100721
C	0.6024499940783453 0.2250315169386309 0.4056316852869258	-0.171441
C	0.4325588199289314 0.3980544039123754 0.4000025060709739	0.104002
C	0.4008653598232508 0.4326396823089734 0.4059571273873733	-0.166247
C	0.2697812953615860 0.5637246194773589 0.4077915025027610	-0.115681
C	0.2356783115963218 0.5957108348200632 0.4075608605693425	-0.118623
C	0.0688117529253685 0.7576056950879566 0.3998905046690784	0.100721
C	0.1024499700783435 0.7250315499386302 0.4056316852869258	-0.171442
C	0.0674411800710686 0.1019456130876224 0.9000024750709745	0.104023
C	0.0991346481767499 0.0673603546910261 0.9059570953873778	-0.166245
C	0.2302186566384171 0.9362753805226411 0.9077914405027629	-0.115660
C	0.2643216724036770 0.9042891651799368 0.9075608605693426	-0.118632
C	0.4311882390746308 0.7423943049120434 0.8998904736690793	0.100708
C	0.3975500059216545 0.7749684500613698 0.9056316852869259	-0.171421
C	0.5674412120710641 0.6019456290876234 0.9000024750709745	0.104023
C	0.5991346721767523 0.5673603176910268 0.9059570953873778	-0.166246
C	0.7302186406384157 0.4362754135226402 0.9077914405027629	-0.115660
C	0.7643216564036756 0.4042892311799423 0.9075608605693426	-0.118632
C	0.9311882710746335 0.2423942879120456 0.8998904736690793	0.100709
C	0.8975500059216547 0.2749684830613692 0.9056316852869259	-0.171421
C	0.6543120404912393 0.8255499895089116 0.7500000160000013	-0.107126
C	0.8841413266829576 0.0493198995311271 0.7500000160000013	0.159675
C	0.8219011188263343 0.9856752071355499 0.7500000160000013	-0.097814
C	0.6201864359188706 0.7922035485850950 0.7500000160000013	0.169146
C	0.7874086740230656 0.9527232695406754 0.7500000160000013	0.125553
C	0.7181125544518606 0.8875789808829281 0.7500000160000013	0.138407
C	0.6837266850549563 0.8544694021440649 0.7500000160000013	-0.100214
C	0.8511719902890422 0.0147651027563648 0.7500000160000013	-0.107523
C	0.1543120244912380 0.3255499895089115 0.7500000160000013	-0.107126
C	0.3841412306829568 0.5493199115311280 0.7500000160000013	0.159675
C	0.3219011188263344 0.4856752071355499 0.7500000160000013	-0.097814
C	0.1201864279188698 0.2922035485850950 0.7500000160000013	0.169146
C	0.2874086420230696 0.4527232695406757 0.7500000160000013	0.125554
C	0.2181125384518592 0.3875790138829272 0.7500000160000013	0.138407
C	0.1837266520549571 0.3544693691440654 0.7500000160000013	-0.100213
C	0.3511719582890397 0.5147650977563608 0.7500000160000013	-0.107523
C	0.3456879915087632 0.1744500104910884 0.2500000000000000	-0.107126
C	0.1158587453170483 0.9506800884688720 0.2500000000000000	0.159675
C	0.1780988811736655 0.0143247888644498 0.2500000000000000	-0.097812
C	0.3798135640811297 0.2077964354149038 0.2500000000000000	0.169151
C	0.2125913419769361 0.0472767224593237 0.2500000000000000	0.125538
C	0.2818874455481395 0.1124209781170721 0.2500000000000000	0.138405
C	0.3162733479450428 0.1455305978559353 0.2500000000000000	-0.100214
C	0.1488280417109604 0.9852348692436400 0.2500000000000000	-0.107524
C	0.8456879595087607 0.6744500104910884 0.2500000000000000	-0.107125
C	0.6158586733170424 0.4506801214688712 0.2500000000000000	0.159675
C	0.6780988811736657 0.5143247928644501 0.2500000000000000	-0.097811
C	0.8798135640811294 0.7077964514149050 0.2500000000000000	0.169151
C	0.7125913259769344 0.5472767634593237 0.2500000000000000	0.125538
C	0.7818874455481394 0.6124210191170719 0.2500000000000000	0.138405
C	0.8162733149450437 0.6455305978559351 0.2500000000000000	-0.100214
C	0.6488280097109578 0.4852348692436400 0.2500000000000000	-0.107524
C	0.3456879915087632 0.8255499895089116 0.7500000160000013	-0.107126
C	0.1158587453170483 0.0493198995311271 0.7500000160000013	0.159675
C	0.1780988811736655 0.9856752071355499 0.7500000160000013	-0.097814
C	0.3798135640811297 0.7922035485850950 0.7500000160000013	0.169146
C	0.2125913419769361 0.9527232695406754 0.7500000160000013	0.125553
C	0.2818874455481395 0.8875789808829281 0.7500000160000013	0.138407
C	0.3162733479450428 0.8544694021440649 0.7500000160000013	-0.100213
C	0.1488280417109604 0.0147651027563648 0.7500000160000013	-0.107523
C	0.8456879595087607 0.3255499895089115 0.7500000160000013	-0.107126
C	0.6158586733170424 0.5493199115311280 0.7500000160000013	0.159675
C	0.6780988811736657 0.4856752071355499 0.7500000160000013	-0.097815
C	0.8798135640811294 0.2922035485850950 0.7500000160000013	0.169146
C	0.7125913259769344 0.4527232695406757 0.7500000160000013	0.125553
C	0.7818874455481394 0.3875790138829272 0.7500000160000013	0.138407
C	0.8162733149450437 0.3544693691440654 0.7500000160000013	-0.100213
C	0.6488280097109578 0.5147650977563608 0.7500000160000013	-0.107523
C	0.6543120404912393 0.1744500104910884 0.2500000000000000	-0.107125
C	0.8841413266829576 0.9506800884688720 0.2500000000000000	0.159675
C	0.8219011188263343 0.0143247888644498 0.2500000000000000	-0.097812
C	0.6201864359188706 0.2077964354149038 0.2500000000000000	0.169151
C	0.7874086740230656 0.0472767224593237 0.2500000000000000	0.125538
C	0.7181125544518606 0.1124209781170721 0.2500000000000000	0.138405
C	0.6837266850549563 0.1455305978559353 0.2500000000000000	-0.100214
C	0.8511719902890422 0.9852348692436400 0.2500000000000000	-0.107524
C	0.1543120244912380 0.6744500104910884 0.2500000000000000	-0.107125
C	0.3841412306829568 0.4506801214688712 0.2500000000000000	0.159675
C	0.3219011188263344 0.5143247928644501 0.2500000000000000	-0.097811
C	0.1201864279188698 0.7077964514149050 0.2500000000000000	0.169151
C	0.2874086420230696 0.5472767634593237 0.2500000000000000	0.125539
C	0.2181125384518592 0.6124210191170719 0.2500000000000000	0.138405
C	0.1837266520549571 0.6455305978559351 0.2500000000000000	-0.100214
C	0.3511719582890397 0.4852348692436400 0.2500000000000000	-0.107524
H	0.9457613974631279 0.1164283592632918 0.0193249434462494	0.098567
H	0.8892356906414983 0.0546749640067744 0.0303641314498909	0.118742
H	0.7832864297678300 0.9490203385252836 0.0295150960212366	0.106757
H	0.7221431700296846 0.8917158925136853 0.0293356157300649	0.115728
H	0.5547256269069424 0.7288369891664238 0.0192683714842517	0.098474
H	0.6147421667861205 0.7867968373800904 0.0302070862890984	0.124520
H	0.4457614934631287 0.6164283752632931 0.0193249434462494	0.098567
H	0.3892356266415000 0.5546749930067804 0.0303641314498909	0.118742
H	0.2832864297678303 0.4490203385252833 0.0295150960212366	0.106757
H	0.2221431860296859 0.3917159915136899 0.0293356157300649	0.115728
H	0.0547256349069428 0.2288370381664242 0.0192683714842517	0.098474
H	0.1147421827861149 0.2867967713800920 0.0302070862890984	0.124520
H	0.0542385425368672 0.8835716247367069 0.5193249724462482	0.098592
H	0.1107643573584987 0.9453250069932196 0.5303641664498902	0.118742
H	0.2167136022321723 0.0509796784747217 0.5295151280212390	0.106785
H	0.2778568299703153 0.1082840334863157 0.5293356117300645	0.115727
H	0.4452743730930580 0.2711629448335779 0.5192683714842519	0.098476
H	0.3852578332138794 0.2132031796199075 0.5302071172890974	0.124525
H	0.5542386025368721 0.3835716247367070 0.5193249724462482	0.098592
H	0.6107643093585017 0.4453250399932258 0.5303641664498902	0.118742
H	0.7167135702321700 0.5509796614747164 0.5295151280212390	0.106785
H	0.7778568299703154 0.6082841074863147 0.5293356117300645	0.115727
H	0.9452743730930576 0.7711630108335762 0.5192683714842519	0.098476
H	0.8852578332138795 0.7132031626199096 0.5302071172890974	0.124525
H	0.0542385425368672 0.1164283592632918 0.4806750585537508	0.098592
H	0.1107643573584987 0.0546749640067744 0.4696358335501027	0.118742
H	0.2167136022321723 0.9490203385252836 0.4704849039787633	0.106757
H	0.2778568299703153 0.8917158925136853 0.4706643882699353	0.115728
H	0.4452743730930580 0.7288369891664238 0.4807316605157510	0.098476
H	0.3852578332138794 0.7867968373800904 0.4697929137109016	0.124525
H	0.5542386025368721 0.6164283752632931 0.4806750585537508	0.098592
H	0.6107643093585017 0.5546749930067804 0.4696358335501027	0.118742
H	0.7167135702321700 0.4490203385252833 0.4704849039787633	0.106757
H	0.7778568299703154 0.3917159915136899 0.4706643882699353	0.115728
H	0.9452743730930576 0.2288370381664242 0.4807316605157510	0.098476
H	0.8852578332138795 0.2867967713800920 0.4697929137109016	0.124525
H	0.9457613974631279 0.8835716247367069 0.9806750585537508	0.098567
H	0.8892356906414983 0.9453250069932196 0.9696358025501037	0.118742
H	0.7832864297678300 0.0509796784747217 0.9704849039787636	0.106757
H	0.7221431700296846 0.1082840334863157 0.9706643572699294	0.115728
H	0.5547256269069424 0.2711629448335779 0.9807316285157481	0.098476
H	0.6147421667861205 0.2132031796199075 0.9697929137109016	0.124525
H	0.4457614934631287 0.3835716247367070 0.9806750585537508	0.098567
H	0.3892356266415000 0.4453250399932258 0.9696358025501037	0.118742
H	0.2832864297678303 0.5509796614747164 0.9704849039787636	0.106757
H	0.2221431860296859 0.6082841074863147 0.9706643572699294	0.115728
H	0.0547256349069428 0.7711630108335762 0.9807316285157481	0.098476
H	0.1147421827861149 0.7132031626199096 0.9697929137109016	0.124525
H	0.0542385425368672 0.8835716247367069 0.9806750585537508	0.098567
H	0.1107643573584987 0.9453250069932196 0.9696358025501037	0.118741
H	0.2167136022321723 0.0509796784747217 0.9704849039787636	0.106756
H	0.2778568299703153 0.1082840334863157 0.9706643572699294	0.115730
H	0.4452743730930580 0.2711629448335779 0.9807316285157481	0.098476
H	0.3852578332138794 0.2132031796199075 0.9697929137109016	0.124525
H	0.5542386025368721 0.3835716247367070 0.9806750585537508	0.098567
H	0.6107643093585017 0.4453250399932258 0.9696358025501037	0.118741
H	0.7167135702321700 0.5509796614747164 0.9704849039787636	0.106756
H	0.7778568299703154 0.6082841074863147 0.9706643572699294	0.115730
H	0.9452743730930576 0.7711630108335762 0.9807316285157481	0.098476
H	0.8852578332138795 0.7132031626199096 0.9697929137109016	0.124525
H	0.9457613974631279 0.1164283592632918 0.4806750585537508	0.098592
H	0.8892356906414983 0.0546749640067744 0.4696358335501027	0.118741
H	0.7832864297678300 0.9490203385252836 0.4704849039787633	0.106757
H	0.7221431700296846 0.8917158925136853 0.4706643882699353	0.115730
H	0.5547256269069424 0.7288369891664238 0.4807316605157510	0.098476
H	0.6147421667861205 0.7867968373800904 0.4697929137109016	0.124525
H	0.4457614934631287 0.6164283752632931 0.4806750585537508	0.098592
H	0.3892356266415000 0.5546749930067804 0.4696358335501027	0.118741
H	0.2832864297678303 0.4490203385252833 0.4704849039787633	0.106757
H	0.2221431860296859 0.3917159915136899 0.4706643882699353	0.115730
H	0.0547256349069428 0.2288370381664242 0.4807316605157510	0.098476
H	0.1147421827861149 0.2867967713800920 0.4697929137109016	0.124525
H	0.9457613974631279 0.8835716247367069 0.5193249724462482	0.098592
H	0.8892356906414983 0.9453250069932196 0.5303641664498902	0.118742
H	0.7832864297678300 0.0509796784747217 0.5295151280212390	0.106785
H	0.7221431700296846 0.1082840334863157 0.5293356117300645	0.115729
H	0.5547256269069424 0.2711629448335779 0.5192683714842519	0.098476
H	0.6147421667861205 0.2132031796199075 0.5302071172890974	0.124525
H	0.4457614934631287 0.3835716247367070 0.5193249724462482	0.098592
H	0.3892356266415000 0.4453250399932258 0.5303641664498902	0.118742
H	0.2832864297678303 0.5509796614747164 0.5295151280212390	0.106785
H	0.2221431860296859 0.6082841074863147 0.5293356117300645	0.115729
H	0.0547256349069428 0.7711630108335762 0.5192683714842519	0.098476
H	0.1147421827861149 0.7132031626199096 0.5302071172890974	0.124525
H	0.0542385425368672 0.1164283592632918 0.0193249434462494	0.098567
H	0.1107643573584987 0.0546749640067744 0.0303641314498909	0.118741
H	0.2167136022321723 0.9490203385252836 0.0295150960212366	0.106757
H	0.2778568299703153 0.8917158925136853 0.0293356157300649	0.115730
H	0.4452743730930580 0.7288369891664238 0.0192683714842517	0.098474
H	0.3852578332138794 0.7867968373800904 0.0302070862890984	0.124520
H	0.5542386025368721 0.6164283752632931 0.0193249434462494	0.098567
H	0.6107643093585017 0.5546749930067804 0.0303641314498909	0.118741
H	0.7167135702321700 0.4490203385252833 0.0295150960212366	0.106757
H	0.7778568299703154 0.3917159915136899 0.0293356157300649	0.115730
H	0.9452743730930576 0.2288370381664242 0.0192683714842517	0.098474
H	0.8852578332138795 0.2867967713800920 0.0302070862890984	0.124520
Fe	0.5000000000000000 0.6729410967422044 0.7500000160000013	0.816630
Fe	0.0000000000000000 0.1729411137422023 0.7500000160000013	0.816630
Fe	0.5000000000000000 0.3270589032577954 0.2500000000000000	0.816631
Fe	0.0000000000000000 0.8270589032577956 0.2500000000000000	0.816631
Si	0.5000000000000000 0.6728484463211442 0.2500000000000000	1.720116
Si	0.0000000000000000 0.1728484463211440 0.2500000000000000	1.720116
Si	0.5000000000000000 0.3271515856788587 0.7500000160000013	1.720116
Si	0.0000000000000000 0.8271515536788558 0.7500000160000013	1.720116
F	0.5000000000000000 0.7307723165204904 0.2500000000000000	-0.533528
F	0.5000000000000000 0.6149358624110871 0.2500000000000000	-0.530410
F	0.0000000000000000 0.2307722675204898 0.2500000000000000	-0.533528
F	0.0000000000000000 0.1149358464110857 0.2500000000000000	-0.530410
F	0.5000000000000000 0.2692277324795103 0.7500000160000013	-0.533527
F	0.5000000000000000 0.3850641045889138 0.7500000160000013	-0.530411
F	0.0000000000000000 0.7692276834795096 0.7500000160000013	-0.533527
F	0.0000000000000000 0.8850641375889129 0.7500000160000013	-0.530410
F	0.5564789310377292 0.6728605648599935 0.2500000000000000	-0.533113
F	0.0564789510377311 0.1728605978599927 0.2500000000000000	-0.533113
F	0.4435210369622679 0.3271393691400081 0.7500000160000013	-0.533113
F	0.9435210689622708 0.8271394351400065 0.7500000160000013	-0.533113
F	0.4435210369622679 0.6728605648599935 0.2500000000000000	-0.533113
F	0.9435210689622708 0.1728605978599927 0.2500000000000000	-0.533113
F	0.5564789310377292 0.3271393691400081 0.7500000160000013	-0.533113
F	0.0564789510377311 0.8271394351400065 0.7500000160000013	-0.533113
F	0.5000000000000000 0.6728943943651041 0.4816062566612018	-0.478061
F	0.0000000000000000 0.1728944113651020 0.4816062566612018	-0.478061
F	0.5000000000000000 0.3271056386348951 0.9816062566612023	-0.478060
F	0.0000000000000000 0.8271056056348959 0.9816062566612023	-0.478060
F	0.5000000000000000 0.6728943943651041 0.0183937393387979	-0.478060
F	0.0000000000000000 0.1728944113651020 0.0183937393387979	-0.478060
F	0.5000000000000000 0.3271056386348951 0.5183937113388022	-0.478061
F	0.0000000000000000 0.8271056056348959 0.5183937113388022	-0.478061
N	0.5520237766327560 0.7260173975974924 0.7500000160000013	-0.247939
N	0.9483940113918847 0.1192446062231504 0.7500000160000013	-0.248523
N	0.0520237406327532 0.2260173815974912 0.7500000160000013	-0.247939
N	0.4483940113918846 0.6192445902231490 0.7500000160000013	-0.248523
N	0.4479762873672420 0.2739826024025074 0.2500000000000000	-0.247942
N	0.0516059966081160 0.8807554097768510 0.2500000000000000	-0.248523
N	0.9479762233672440 0.7739826024025076 0.2500000000000000	-0.247941
N	0.5516059886081153 0.3807554097768510 0.2500000000000000	-0.248523
N	0.4479762873672420 0.7260173975974924 0.7500000160000013	-0.247939
N	0.0516059966081160 0.1192446062231504 0.7500000160000013	-0.248523
N	0.9479762233672440 0.2260173815974912 0.7500000160000013	-0.247939
N	0.5516059886081153 0.6192445902231490 0.7500000160000013	-0.248523
N	0.5520237766327560 0.2739826024025074 0.2500000000000000	-0.247941
N	0.9483940113918847 0.8807554097768510 0.2500000000000000	-0.248523
N	0.0520237406327532 0.7739826024025076 0.2500000000000000	-0.247941
N	0.4483940113918846 0.3807554097768510 0.2500000000000000	-0.248523
	  	
