#======================================================================

# CRYSTAL DATA

#----------------------------------------------------------------------

data_VESTA_phase_1


_pd_phase_name                         SIFSIX_18_Zn
_cell_length_a                         14.11446
_cell_length_b                         13.73376
_cell_length_c                         8.08704
_cell_angle_alpha                      90
_cell_angle_beta                       95.17236
_cell_angle_gamma                      90
_symmetry_space_group_name_H-M         P 1
_symmetry_Int_Tables_number            1

loop_
_symmetry_equiv_pos_as_xyz
   x, y, z

loop_
   _atom_site_label
   _atom_site_fract_x
   _atom_site_fract_y
   _atom_site_fract_z
   _atom_site_charge
F	0.4160070621507505 0.3805906299062841 0.5076881370588970	-0.541990
F	0.5183992316195014 0.4729170982507815 0.7170087613793272	-0.511696
F	0.4141267245816073 0.5563845991142362 0.5095132750095102	-0.504408
F	0.9160070961507463 0.8805905609062820 0.5076881370588970	-0.541991
F	0.0183992576194964 0.9729170632507816 0.7170087613793272	-0.511696
F	0.9141267585816106 0.0563845651142407 0.5095132750095102	-0.504408
F	0.5839929008492499 0.3805906299062841 0.4923118629411029	-0.541990
F	0.4816007653805019 0.4729170982507815 0.2829912386206727	-0.511696
F	0.5858732714183918 0.5563845991142362 0.4904867259904934	-0.504408
F	0.0839929218492482 0.8805905609062820 0.4923118629411029	-0.541991
F	0.9816006303805014 0.9729170632507816 0.2829912386206727	-0.511696
F	0.0858732464183937 0.0563845651142407 0.4904867259904934	-0.504408
C	0.6829376666047683 0.1548287214155318 0.6518755192140754	-0.425924
C	0.7564247214051787 0.1512313994521545 0.7956616164692065	0.210190
C	0.7598651072890862 0.1967030397011653 0.9510922043506791	-0.151450
C	0.6883493501373165 0.2608762110919831 0.0124029726541011	-0.148248
C	0.6730665287815180 0.3602766108817875 0.9709293881727593	0.222832
C	0.7285182289974739 0.4224729635375410 0.8633198369792283	-0.430458
C	0.8904318381236278 0.2036856620113845 0.2003884884759798	-0.439515
C	0.8490725372033574 0.1709735792431159 0.0337866312690315	0.217880
C	0.6224849418809596 0.2387155439311030 0.1267199247495125	0.209689
C	0.6015477312677661 0.1466982832179216 0.2139657852572452	-0.425622
C	0.1829377166047658 0.6548287734155294 0.6518755192140754	-0.425939
C	0.2564247554051814 0.6512313824521498 0.7956616164692065	0.210193
C	0.2598650732890834 0.6967030057011622 0.9510922043506791	-0.151444
C	0.1883493501373168 0.7608762280919804 0.0124029726541011	-0.148275
C	0.1730665117815132 0.8602766448817896 0.9709293881727593	0.222840
C	0.2285182449974680 0.9224729285375418 0.8633198369792283	-0.430457
C	0.3904317371236231 0.7036855760113843 0.2003884884759798	-0.439518
C	0.3490726052033556 0.6709735792431161 0.0337866312690315	0.217880
C	0.1224849168809611 0.7387154579311034 0.1267199247495125	0.209732
C	0.1015478152677654 0.6466983522179238 0.2139657852572452	-0.425563
C	0.3170623303952343 0.1548287214155318 0.3481244817859280	-0.425938
C	0.2435752715948171 0.1512313994521545 0.2043383035307937	0.210193
C	0.2401349217109126 0.1967030397011653 0.0489077716493260	-0.151451
C	0.3116506458626828 0.2608762110919831 0.9875970183459023	-0.148248
C	0.3269335372184875 0.3602766108817875 0.0290706628272413	0.222822
C	0.2714817860025311 0.4224729635375410 0.1366801790207725	-0.430518
C	0.1095682448763754 0.2036856620113845 0.7996115595240240	-0.439520
C	0.1509274417966447 0.1709735792431159 0.9662133567309673	0.217881
C	0.3775150891190392 0.2387155439311030 0.8732800992504826	0.209690
C	0.3984521947322358 0.1466982832179216 0.7860341357427587	-0.425619
C	0.8170623303952350 0.6548287734155294 0.3481244817859280	-0.425923
C	0.7435752715948172 0.6512313824521498 0.2043383035307937	0.210189
C	0.7401348877109170 0.6967030057011622 0.0489077716493260	-0.151444
C	0.8116506458626832 0.7608762280919804 0.9875970183459023	-0.148275
C	0.8269334702184855 0.8602766448817896 0.0290706628272413	0.222840
C	0.7714817690025260 0.9224729285375418 0.1366801790207725	-0.430456
C	0.6095681608763757 0.7036855760113843 0.7996115595240240	-0.439517
C	0.6509274587966423 0.6709735792431161 0.9662133567309673	0.217879
C	0.8775150551190366 0.7387154579311034 0.8732800992504826	0.209731
C	0.8984522617322369 0.6466983522179238 0.7860341357427587	-0.425560
H	0.7149034668670204 0.1740512850829637 0.5372412514850410	0.150948
H	0.6291291337497381 0.2100409880796104 0.6727741325363881	0.145268
H	0.6474612624163640 0.0839294001496392 0.6315931118953408	0.133654
H	0.6818922854673735 0.4610187551234668 0.7692632702991433	0.151834
H	0.7784296283288463 0.3773815299461949 0.8004566830145301	0.138269
H	0.7696811482884042 0.4768096220314422 0.9395715353291610	0.126539
H	0.8652422060242234 0.0694478180594663 0.6905875610592356	0.285395
H	0.8965714768003502 0.1442612599421332 0.2914046275876024	0.156303
H	0.8452700426607427 0.2608514409351768 0.2468425153377287	0.134823
H	0.9621962629016093 0.2332437399397558 0.1928369379771407	0.140078
H	0.5738607122054973 0.1622599487026790 0.3337857474087286	0.144514
H	0.6656886881734448 0.1016712148543752 0.2354626351331241	0.149360
H	0.5475666588012547 0.1032644817360906 0.1397258383298071	0.131627
H	0.5273639414856385 0.3372138169382110 0.2331972561833332	0.282455
H	0.2149035178670210 0.6740511820829663 0.5372412514850410	0.150955
H	0.1291292177497378 0.7100409190796075 0.6727741325363881	0.145270
H	0.1474613124163610 0.5839293401496343 0.6315931118953408	0.133656
H	0.1818923024673714 0.9610186871234616 0.7692632702991433	0.151834
H	0.2784296623288499 0.8773815639461977 0.8004566830145301	0.138269
H	0.2696811812884033 0.9768096220314421 0.9395715353291610	0.126538
H	0.3652421720242273 0.5694478610594668 0.6905875610592356	0.285395
H	0.3965715438003519 0.6442612259421306 0.2914046275876024	0.156303
H	0.3452699746607440 0.7608514759351765 0.2468425153377287	0.134824
H	0.4621963299016048 0.7332437909397490 0.1928369379771407	0.140082
H	0.0738607042054967 0.6622599657026769 0.3337857474087286	0.144505
H	0.1656886541734424 0.6016711718543758 0.2354626351331241	0.149351
H	0.0475666948012579 0.6032644297360931 0.1397258383298071	0.131619
H	0.0273639264856408 0.8372138169382104 0.2331972561833332	0.282479
H	0.2850964641329843 0.1740512850829637 0.4627587805149544	0.150955
H	0.3708707652502573 0.2100409880796104 0.3272259324636136	0.145265
H	0.3525386665836409 0.0839294001496392 0.3684068881046592	0.133657
H	0.3181077095326296 0.4610187551234668 0.2307366977008609	0.151844
H	0.2215703666711491 0.3773815299461949 0.1995432849854673	0.138279
H	0.2303188477116025 0.4768096220314422 0.0604284376708404	0.126546
H	0.1347577949757737 0.0694478180594663 0.3094123439407606	0.285395
H	0.1034284461996474 0.1442612599421332 0.7085954044123999	0.156303
H	0.1547300213392557 0.2608514409351768 0.7531574846622714	0.134826
H	0.0378036660983951 0.2332437399397558 0.8071630940228547	0.140085
H	0.4261393177945052 0.1622599487026790 0.6662142525912712	0.144509
H	0.3343113738265600 0.1016712148543752 0.7645373168668711	0.149358
H	0.4524333061987456 0.1032644817360906 0.8602742016701959	0.131620
H	0.4726360195143616 0.3372138169382110 0.7668026968166667	0.282454
H	0.7850965311329794 0.6740511820829663 0.4627587805149544	0.150947
H	0.8708708662502619 0.7100409190796075 0.3272259324636136	0.145263
H	0.8525386665836407 0.5839293401496343 0.3684068881046592	0.133655
H	0.8181077095326297 0.9610186871234616 0.2307366977008609	0.151832
H	0.7215703666711497 0.8773815639461977 0.1995432849854673	0.138271
H	0.7303188477116026 0.9768096220314421 0.0604284376708404	0.126536
H	0.6347577859757759 0.5694478610594668 0.3094123439407606	0.285395
H	0.6034285551996453 0.6442612259421306 0.7085954044123999	0.156304
H	0.6547299543392535 0.7608514759351765 0.7531574846622714	0.134825
H	0.5378037020983913 0.7332437909397490 0.8071630940228547	0.140084
H	0.9261392507945032 0.6622599657026768 0.6662142525912712	0.144500
H	0.8343113068265583 0.6016711718543758 0.7645373168668711	0.149349
H	0.9524333061987460 0.6032644297360931 0.8602742016701959	0.131613
H	0.9726359855143661 0.8372138169382104 0.7668026968166667	0.282477
N	0.8381752056857951 0.1005916527786736 0.7929457178306646	-0.147298
N	0.6018040550869583 0.3955394385235003 0.0534160863987513	-0.247481
N	0.8957078474865124 0.1120790437959572 0.9353619582540116	-0.248748
N	0.5727845016780080 0.3210505198293901 0.1458521294776894	-0.144012
N	0.3381752056857956 0.6005915757786777 0.7929457178306646	-0.147300
N	0.1018041220869602 0.8955394385235004 0.0534160863987513	-0.247510
N	0.3957078814865153 0.6120790947959581 0.9353619582540116	-0.248747
N	0.0727844936780074 0.8210504848293904 0.1458521294776894	-0.144075
N	0.1618247763142031 0.1005916527786736 0.2070543301693321	-0.147299
N	0.3981958389130404 0.3955394385235003 0.9465838896012470	-0.247419
N	0.1042921225134851 0.1120790437959572 0.0646380217459868	-0.248748
N	0.4272154953219955 0.3210505198293901 0.8541478865223114	-0.144028
N	0.6618247933142013 0.6005915757786777 0.2070543301693321	-0.147299
N	0.8981959399130448 0.8955394385235004 0.9465838896012470	-0.247509
N	0.6042921475134907 0.6120790947959581 0.0646380217459868	-0.248745
N	0.9272155293219910 0.8210504848293904 0.8541478865223114	-0.144074
Si	0.4999999979999998 0.4682213116211301 0.5000000000000000	1.699288
Si	0.0000000000000000 0.9682213116211301 0.5000000000000000	1.699288
Zn	0.5000000000000000 0.5083782649714453 0.0000000000000000	0.771099
Zn	0.0000000000000000 0.0083782719714495 0.0000000000000000	0.771120
	  	
