#======================================================================

# CRYSTAL DATA

#----------------------------------------------------------------------

data_VESTA_phase_1


_pd_phase_name                         SIFSIX_2_Zn_i
_cell_length_a                         13.95750
_cell_length_b                         13.95750
_cell_length_c                         7.83828
_cell_angle_alpha                      90
_cell_angle_beta                       90
_cell_angle_gamma                      90
_symmetry_space_group_name_H-M         P 1
_symmetry_Int_Tables_number            1

loop_
_symmetry_equiv_pos_as_xyz
   x, y, z

loop_
   _atom_site_label
   _atom_site_fract_x
   _atom_site_fract_y
   _atom_site_fract_z
   _atom_site_charge
C	-0.0000000000000000 0.3034653087469278 0.3458226979949787	-0.160383
C	-0.0000000000000000 0.2040496891927527 0.3516121610479667	0.106209
C	0.5000000000000000 0.8034653087469283 0.8458227269949774	-0.160383
C	0.5000000000000000 0.7040497071927543 0.8516121610479668	0.106209
C	-0.0000000000000000 0.6965346912530717 0.3458226979949787	-0.160386
C	-0.0000000000000000 0.7959502928072457 0.3516121610479667	0.106211
C	0.5000000000000000 0.1965347082530697 0.8458227269949774	-0.160386
C	0.5000000000000000 0.2959502928072461 0.8516121610479668	0.106211
C	0.6965346912530717 0.0000000000000000 0.3458226979949787	-0.160383
C	0.7959502928072457 0.0000000000000000 0.3516121610479667	0.106212
C	0.1965347082530697 0.5000000000000000 0.8458227269949774	-0.160383
C	0.2959502928072461 0.5000000000000000 0.8516121610479668	0.106211
C	0.3034653087469278 0.0000000000000000 0.3458226979949787	-0.160385
C	0.2040496891927527 0.0000000000000000 0.3516121610479667	0.106214
C	0.8034653087469283 0.5000000000000000 0.8458227269949774	-0.160385
C	0.7040497071927543 0.5000000000000000 0.8516121610479668	0.106214
C	-0.0000000000000000 0.3034653087469278 0.6541772730050226	-0.160380
C	-0.0000000000000000 0.2040496891927527 0.6483878389520332	0.106209
C	0.5000000000000000 0.8034653087469283 0.1541773020050214	-0.160380
C	0.5000000000000000 0.7040497071927543 0.1483878239520355	0.106209
C	-0.0000000000000000 0.6965346912530717 0.6541772730050226	-0.160382
C	-0.0000000000000000 0.7959502928072457 0.6483878389520332	0.106212
C	0.5000000000000000 0.1965347082530697 0.1541773020050214	-0.160382
C	0.5000000000000000 0.2959502928072461 0.1483878239520355	0.106212
C	0.3034653087469278 0.0000000000000000 0.6541772730050226	-0.160382
C	0.2040496891927527 0.0000000000000000 0.6483878389520332	0.106214
C	0.8034653087469283 0.5000000000000000 0.1541773020050214	-0.160382
C	0.7040497071927543 0.5000000000000000 0.1483878239520355	0.106214
C	0.6965346912530717 0.0000000000000000 0.6541772730050226	-0.160380
C	0.7959502928072457 0.0000000000000000 0.6483878389520332	0.106212
C	0.1965347082530697 0.5000000000000000 0.1541773020050214	-0.160380
C	0.2959502928072461 0.5000000000000000 0.1483878239520355	0.106212
C	-0.0000000000000000 0.4563263827009563 0.5000000000000000	-0.096070
C	-0.0000000000000000 0.3551010440916180 0.5000000000000000	0.161736
C	0.5000000000000000 0.9563264167009591 0.0000000000000000	-0.096069
C	0.5000000000000000 0.8551010090916183 0.0000000000000000	0.161736
C	-0.0000000000000000 0.5436736172990437 0.5000000000000000	-0.095814
C	-0.0000000000000000 0.6448989909083817 0.5000000000000000	0.161706
C	0.5000000000000000 0.0436735962990385 0.0000000000000000	-0.095814
C	0.5000000000000000 0.1448989909083816 0.0000000000000000	0.161706
C	0.5436736172990437 0.0000000000000000 0.5000000000000000	-0.096070
C	0.6448989909083817 0.0000000000000000 0.5000000000000000	0.161736
C	0.0436735962990385 0.5000000000000000 0.0000000000000000	-0.096070
C	0.1448989909083816 0.5000000000000000 0.0000000000000000	0.161736
C	0.4563263827009563 0.0000000000000000 0.5000000000000000	-0.095814
C	0.3551010440916180 0.0000000000000000 0.5000000000000000	0.161706
C	0.9563264167009591 0.5000000000000000 0.0000000000000000	-0.095814
C	0.8551010090916183 0.5000000000000000 0.0000000000000000	0.161706
H	-0.0000000000000000 0.3406942175203592 0.2238085593544377	0.119575
H	-0.0000000000000000 0.1617479640400785 0.2348793684434818	0.103481
H	0.5000000000000000 0.8406942175203590 0.7238085593544378	0.119575
H	0.5000000000000000 0.6617479110400778 0.7348793984434845	0.103481
H	-0.0000000000000000 0.6593057824796410 0.2238085593544377	0.119574
H	-0.0000000000000000 0.8382520889599222 0.2348793684434818	0.103481
H	0.5000000000000000 0.1593057824796408 0.7238085593544378	0.119574
H	0.5000000000000000 0.3382520539599160 0.7348793984434845	0.103481
H	0.6593057824796410 0.0000000000000000 0.2238085593544377	0.119575
H	0.8382520889599222 0.0000000000000000 0.2348793684434818	0.103480
H	0.1593057824796408 0.5000000000000000 0.7238085593544378	0.119575
H	0.3382520539599160 0.5000000000000000 0.7348793984434845	0.103481
H	0.3406942175203592 0.0000000000000000 0.2238085593544377	0.119574
H	0.1617479640400785 0.0000000000000000 0.2348793684434818	0.103481
H	0.8406942175203590 0.5000000000000000 0.7238085593544378	0.119574
H	0.6617479110400778 0.5000000000000000 0.7348793984434845	0.103481
H	-0.0000000000000000 0.3406942175203592 0.7761914406455622	0.119571
H	-0.0000000000000000 0.1617479640400785 0.7651205435565178	0.103480
H	0.5000000000000000 0.8406942175203590 0.2761914406455623	0.119571
H	0.5000000000000000 0.6617479110400778 0.2651206315565183	0.103480
H	-0.0000000000000000 0.6593057824796410 0.7761914406455622	0.119570
H	-0.0000000000000000 0.8382520889599222 0.7651205435565178	0.103480
H	0.5000000000000000 0.1593057824796408 0.2761914406455623	0.119570
H	0.5000000000000000 0.3382520539599160 0.2651206315565183	0.103480
H	0.3406942175203592 0.0000000000000000 0.7761914406455622	0.119570
H	0.1617479640400785 0.0000000000000000 0.7651205435565178	0.103480
H	0.8406942175203590 0.5000000000000000 0.2761914406455623	0.119570
H	0.6617479110400778 0.5000000000000000 0.2651206315565183	0.103480
H	0.6593057824796410 0.0000000000000000 0.7761914406455622	0.119571
H	0.8382520889599222 0.0000000000000000 0.7651205435565178	0.103480
H	0.1593057824796408 0.5000000000000000 0.2761914406455623	0.119571
H	0.3382520539599160 0.5000000000000000 0.2651206315565183	0.103480
Zn	-0.0000000000000000 0.0000000000000000 0.5000000000000000	0.736391
Zn	0.5000000000000000 0.5000000000000000 0.0000000000000000	0.736391
Si	-0.0000000000000000 0.0000000000000000 0.0000000000000000	1.719730
Si	0.5000000000000000 0.5000000000000000 0.5000000000000000	1.719730
N	-0.0000000000000000 0.1549982667124668 0.5000000000000000	-0.228367
N	0.5000000000000000 0.6549982487124655 0.0000000000000000	-0.228367
N	-0.0000000000000000 0.8450017512875345 0.5000000000000000	-0.228366
N	0.5000000000000000 0.3450017512875346 0.0000000000000000	-0.228366
N	0.8450017512875345 0.0000000000000000 0.5000000000000000	-0.228367
N	0.3450017512875346 0.5000000000000000 0.0000000000000000	-0.228367
N	0.1549982667124668 0.0000000000000000 0.5000000000000000	-0.228367
N	0.6549982487124655 0.5000000000000000 0.0000000000000000	-0.228367
F	-0.0000000000000000 0.0000000000000000 0.7745716958032224	-0.499533
F	0.5000000000000000 0.5000000000000000 0.2745717848032261	-0.499533
F	-0.0000000000000000 0.0000000000000000 0.2254282301967787	-0.499533
F	0.5000000000000000 0.5000000000000000 0.7254283041967776	-0.499533
F	0.5862157716307878 0.5862157716307878 0.5000000000000000	-0.539439
F	0.5862157716307878 0.4137842283692122 0.5000000000000000	-0.539439
F	0.4137842283692122 0.5862157716307878 0.5000000000000000	-0.539439
F	0.4137842283692122 0.4137842283692122 0.5000000000000000	-0.539439
F	0.0862157886307855 0.0862157886307855 0.0000000000000000	-0.539439
F	0.9137842283692122 0.9137842283692122 0.0000000000000000	-0.539439
F	0.9137842283692122 0.0862157886307855 0.0000000000000000	-0.539439
F	0.0862157886307855 0.9137842283692122 0.0000000000000000	-0.539439
	  	
