#======================================================================

# CRYSTAL DATA

#----------------------------------------------------------------------

data_VESTA_phase_1


_pd_phase_name                         SIFSIX_15_Zn_i
_cell_length_a                         29.86966
_cell_length_b                         29.06222
_cell_length_c                         7.81532
_cell_angle_alpha                      90
_cell_angle_beta                       90
_cell_angle_gamma                      90
_symmetry_space_group_name_H-M         P 1
_symmetry_Int_Tables_number            1

loop_
_symmetry_equiv_pos_as_xyz
   x, y, z

loop_
   _atom_site_label
   _atom_site_fract_x
   _atom_site_fract_y
   _atom_site_fract_z
   _atom_site_charge
C	0.9332338944520668 0.1025406280327156 0.8986141975469967	0.100494
C	0.9013006265393431 0.0678764250105292 0.9044138736416915	-0.165505
C	0.7699130828172838 0.9363044257431852 0.9061267517906797	-0.112472
C	0.7357267262929761 0.9041409474843418 0.9058871967293786	-0.117601
C	0.5682622343326408 0.7417245057182379 0.8985437668104860	0.101476
C	0.6019340982952576 0.7745964931821702 0.9040742385338758	-0.171070
C	0.4332339264520623 0.6025406440327168 0.8986141975469967	0.100494
C	0.4013006585393456 0.5678763880105293 0.9044138736416915	-0.165504
C	0.2699130188172856 0.4363044587431846 0.9061267517906797	-0.112472
C	0.2357266942929733 0.4041410134843472 0.9058871967293786	-0.117601
C	0.0682622583326427 0.2417244887182399 0.8985437668104860	0.101364
C	0.1019340742952554 0.2745965261821692 0.9040742385338758	-0.171125
C	0.0667660735479377 0.8974593559672832 0.3986142285469960	0.100494
C	0.0986993494606548 0.9321236119894707 0.4044139056416874	-0.165505
C	0.2300869331827175 0.0636955372568150 0.4061268137906776	-0.112471
C	0.2642732897070253 0.0958590025156540 0.4058871967293787	-0.117601
C	0.4317377336673567 0.2582755442817593 0.3985437978104848	0.101364
C	0.3980659017047425 0.2254034738178308 0.4040742385338755	-0.171125
C	0.5667661055479332 0.3974593889672823 0.3986142285469960	0.100495
C	0.5986993734606569 0.4321236119894704 0.4044139056416874	-0.165505
C	0.7300869171827162 0.5636955742568148 0.4061268137906776	-0.112471
C	0.7642732737070239 0.5958590525156582 0.4058871967293787	-0.117601
C	0.9317377656673592 0.7582754942817621 0.3985437978104848	0.101476
C	0.8980659017047424 0.7254035068178298 0.4040742385338755	-0.171070
C	0.0667660735479377 0.1025406280327156 0.6013857714530043	0.100494
C	0.0986993494606548 0.0678764250105292 0.5955860323583079	-0.165504
C	0.2300869331827175 0.9363044257431852 0.5938732172093213	-0.112472
C	0.2642732897070253 0.9041409474843418 0.5941128342706204	-0.117601
C	0.4317377336673567 0.7417245057182379 0.6014561391895134	0.101477
C	0.3980659017047425 0.7745964931821702 0.5959257304661252	-0.171070
C	0.5667661055479332 0.6025406440327168 0.6013857714530043	0.100494
C	0.5986993734606569 0.5678763880105293 0.5955860323583079	-0.165504
C	0.7300869171827162 0.4363044587431846 0.5938732172093213	-0.112472
C	0.7642732737070239 0.4041410134843472 0.5941128342706204	-0.117601
C	0.9317377656673592 0.2417244887182399 0.6014561391895134	0.101364
C	0.8980659017047424 0.2745965261821692 0.5959257304661252	-0.171125
C	0.9332338944520668 0.8974593559672832 0.1013857874530055	0.100494
C	0.9013006265393431 0.9321236119894707 0.0955860713583072	-0.165504
C	0.7699130828172838 0.0636955372568150 0.0938732172093214	-0.112471
C	0.7357267262929761 0.0958590025156540 0.0941128192706154	-0.117601
C	0.5682622343326408 0.2582755442817593 0.1014561941895145	0.101364
C	0.6019340982952576 0.2254034738178308 0.0959257764661221	-0.171125
C	0.4332339264520623 0.3974593889672823 0.1013857874530055	0.100495
C	0.4013006585393456 0.4321236119894704 0.0955860713583072	-0.165504
C	0.2699130188172856 0.5636955742568148 0.0938732172093214	-0.112471
C	0.2357266942929733 0.5958590525156582 0.0941128192706154	-0.117602
C	0.0682622583326427 0.7582754942817621 0.1014561941895145	0.101476
C	0.1019340742952554 0.7254035068178298 0.0959257764661221	-0.171070
C	0.0667660735479377 0.8974593559672832 0.1013857874530055	0.100494
C	0.0986993494606548 0.9321236119894707 0.0955860713583072	-0.165504
C	0.2300869331827175 0.0636955372568150 0.0938732172093214	-0.112471
C	0.2642732897070253 0.0958590025156540 0.0941128192706154	-0.117602
C	0.4317377336673567 0.2582755442817593 0.1014561941895145	0.101364
C	0.3980659017047425 0.2254034738178308 0.0959257764661221	-0.171124
C	0.5667661055479332 0.3974593889672823 0.1013857874530055	0.100495
C	0.5986993734606569 0.4321236119894704 0.0955860713583072	-0.165505
C	0.7300869171827162 0.5636955742568148 0.0938732172093214	-0.112471
C	0.7642732737070239 0.5958590525156582 0.0941128192706154	-0.117602
C	0.9317377656673592 0.7582754942817621 0.1014561941895145	0.101476
C	0.8980659017047424 0.7254035068178298 0.0959257764661221	-0.171069
C	0.9332338944520668 0.1025406280327156 0.6013857714530043	0.100495
C	0.9013006265393431 0.0678764250105292 0.5955860323583079	-0.165504
C	0.7699130828172838 0.9363044257431852 0.5938732172093213	-0.112472
C	0.7357267262929761 0.9041409474843418 0.5941128342706204	-0.117601
C	0.5682622343326408 0.7417245057182379 0.6014561391895134	0.101477
C	0.6019340982952576 0.7745964931821702 0.5959257304661252	-0.171070
C	0.4332339264520623 0.6025406440327168 0.6013857714530043	0.100494
C	0.4013006585393456 0.5678763880105293 0.5955860323583079	-0.165504
C	0.2699130188172856 0.4363044587431846 0.5938732172093213	-0.112472
C	0.2357266942929733 0.4041410134843472 0.5941128342706204	-0.117601
C	0.0682622583326427 0.2417244887182399 0.6014561391895134	0.101364
C	0.1019340742952554 0.2745965261821692 0.5959257304661252	-0.171125
C	0.9332338944520668 0.8974593559672832 0.3986142285469960	0.100494
C	0.9013006265393431 0.9321236119894707 0.4044139056416874	-0.165505
C	0.7699130828172838 0.0636955372568150 0.4061268137906776	-0.112471
C	0.7357267262929761 0.0958590025156540 0.4058871967293787	-0.117601
C	0.5682622343326408 0.2582755442817593 0.3985437978104848	0.101364
C	0.6019340982952576 0.2254034738178308 0.4040742385338755	-0.171124
C	0.4332339264520623 0.3974593889672823 0.3986142285469960	0.100495
C	0.4013006585393456 0.4321236119894704 0.4044139056416874	-0.165504
C	0.2699130188172856 0.5636955742568148 0.4061268137906776	-0.112471
C	0.2357266942929733 0.5958590525156582 0.4058871967293787	-0.117602
C	0.0682622583326427 0.7582754942817621 0.3985437978104848	0.101476
C	0.1019340742952554 0.7254035068178298 0.4040742385338755	-0.171069
C	0.0667660735479377 0.1025406280327156 0.8986141975469967	0.100494
C	0.0986993494606548 0.0678764250105292 0.9044138736416915	-0.165504
C	0.2300869331827175 0.9363044257431852 0.9061267517906797	-0.112472
C	0.2642732897070253 0.9041409474843418 0.9058871967293786	-0.117601
C	0.4317377336673567 0.7417245057182379 0.8985437668104860	0.101477
C	0.3980659017047425 0.7745964931821702 0.9040742385338758	-0.171070
C	0.5667661055479332 0.6025406440327168 0.8986141975469967	0.100494
C	0.5986993734606569 0.5678763880105293 0.9044138736416915	-0.165504
C	0.7300869171827162 0.4363044587431846 0.9061267517906797	-0.112472
C	0.7642732737070239 0.4041410134843472 0.9058871967293786	-0.117601
C	0.9317377656673592 0.2417244887182399 0.8985437668104860	0.101364
C	0.8980659017047424 0.2745965261821692 0.9040742385338758	-0.171125
C	0.6538849160796765 0.8254242439450521 0.7500000160000013	-0.107010
C	0.8845064062244598 0.0498634781744389 0.7500000160000013	0.160405
C	0.8220005938996616 0.9859954864477407 0.7500000160000013	-0.101745
C	0.6196305398443983 0.7919147859538389 0.7500000160000013	0.169386
C	0.7874901835248980 0.9528243340835904 0.7500000160000013	0.124496
C	0.7180974944719164 0.8874597756148890 0.7500000160000013	0.137092
C	0.6835094643115175 0.8543383953301152 0.7500000160000013	-0.097534
C	0.8513460868949811 0.0152207221568384 0.7500000160000013	-0.102817
C	0.1538849000796748 0.3254242439450518 0.7500000160000013	-0.106996
C	0.3845063102244589 0.5498634901744401 0.7500000160000013	0.160405
C	0.3220005938996619 0.4859954864477408 0.7500000160000013	-0.101745
C	0.1196305318443981 0.2919147859538389 0.7500000160000013	0.169410
C	0.2874901515249027 0.4528243340835909 0.7500000160000013	0.124496
C	0.2180974784719150 0.3874598086148883 0.7500000160000013	0.137093
C	0.1835094313115183 0.3543383623301162 0.7500000160000013	-0.097539
C	0.3513460548949789 0.5152207171568346 0.7500000160000013	-0.102818
C	0.3461151159203264 0.1745757560549482 0.2500000000000000	-0.106995
C	0.1154936657755463 0.9501365098255599 0.2500000000000000	0.160405
C	0.1779994061003382 0.0140045095522588 0.2500000000000000	-0.101745
C	0.3803694601556012 0.2080851980461598 0.2500000000000000	0.169410
C	0.2125098324751031 0.0471756579164086 0.2500000000000000	0.124496
C	0.2819025055280837 0.1125401833851111 0.2500000000000000	0.137093
C	0.3164905686884817 0.1456616046698846 0.2500000000000000	-0.097539
C	0.1486539451050213 0.9847792498431662 0.2500000000000000	-0.102818
C	0.8461150839203235 0.6745757560549479 0.2500000000000000	-0.107010
C	0.6154935937755402 0.4501365428255591 0.2500000000000000	0.160405
C	0.6779994061003384 0.5140045135522593 0.2500000000000000	-0.101745
C	0.8803694601556017 0.7080852140461611 0.2500000000000000	0.169385
C	0.7125098164751020 0.5471756989164088 0.2500000000000000	0.124496
C	0.7819025055280836 0.6125402243851110 0.2500000000000000	0.137093
C	0.8164905356884825 0.6456616046698848 0.2500000000000000	-0.097535
C	0.6486539131050189 0.4847792498431664 0.2500000000000000	-0.102818
C	0.3461151159203264 0.8254242439450521 0.7500000160000013	-0.107011
C	0.1154936657755463 0.0498634781744389 0.7500000160000013	0.160405
C	0.1779994061003382 0.9859954864477407 0.7500000160000013	-0.101745
C	0.3803694601556012 0.7919147859538389 0.7500000160000013	0.169386
C	0.2125098324751031 0.9528243340835904 0.7500000160000013	0.124496
C	0.2819025055280837 0.8874597756148890 0.7500000160000013	0.137092
C	0.3164905686884817 0.8543383953301152 0.7500000160000013	-0.097534
C	0.1486539451050213 0.0152207221568384 0.7500000160000013	-0.102818
C	0.8461150839203235 0.3254242439450518 0.7500000160000013	-0.106995
C	0.6154935937755402 0.5498634901744401 0.7500000160000013	0.160405
C	0.6779994061003384 0.4859954864477408 0.7500000160000013	-0.101745
C	0.8803694601556017 0.2919147859538389 0.7500000160000013	0.169410
C	0.7125098164751020 0.4528243340835909 0.7500000160000013	0.124496
C	0.7819025055280836 0.3874598086148883 0.7500000160000013	0.137093
C	0.8164905356884825 0.3543383623301162 0.7500000160000013	-0.097540
C	0.6486539131050189 0.5152207171568346 0.7500000160000013	-0.102817
C	0.6538849160796765 0.1745757560549482 0.2500000000000000	-0.106995
C	0.8845064062244598 0.9501365098255599 0.2500000000000000	0.160405
C	0.8220005938996616 0.0140045095522588 0.2500000000000000	-0.101745
C	0.6196305398443983 0.2080851980461598 0.2500000000000000	0.169410
C	0.7874901835248980 0.0471756579164086 0.2500000000000000	0.124496
C	0.7180974944719164 0.1125401833851111 0.2500000000000000	0.137093
C	0.6835094643115175 0.1456616046698846 0.2500000000000000	-0.097540
C	0.8513460868949811 0.9847792498431662 0.2500000000000000	-0.102818
C	0.1538849000796748 0.6745757560549479 0.2500000000000000	-0.107011
C	0.3845063102244589 0.4501365428255591 0.2500000000000000	0.160405
C	0.3220005938996619 0.5140045135522593 0.2500000000000000	-0.101745
C	0.1196305318443981 0.7080852140461611 0.2500000000000000	0.169386
C	0.2874901515249027 0.5471756989164088 0.2500000000000000	0.124496
C	0.2180974784719150 0.6125402243851110 0.2500000000000000	0.137093
C	0.1835094313115183 0.6456616046698848 0.2500000000000000	-0.097534
C	0.3513460548949789 0.4847792498431664 0.2500000000000000	-0.102818
H	0.9466632553126816 0.1171298606832511 0.0162203703706276	0.104251
H	0.8894235996801758 0.0549157122885243 0.0269487512577193	0.120127
H	0.7835953575477437 0.9491865821734102 0.0261385324472816	0.105851
H	0.7220810252224794 0.8913138484644026 0.0258841716545172	0.115769
H	0.5541052207242837 0.7278925343916872 0.0161925505726743	0.103138
H	0.6144827160526258 0.7866857699663373 0.0267476896345399	0.125425
H	0.4466633513126826 0.6171298766832526 0.0162203703706276	0.104250
H	0.3894235356801773 0.5549157412885303 0.0269487512577193	0.120127
H	0.2835953575477437 0.4491865821734101 0.0261385324472816	0.105851
H	0.2220810412224810 0.3913139474644072 0.0258841716545172	0.115769
H	0.0541052287242845 0.2278925833916879 0.0161925505726743	0.103155
H	0.1144827320526203 0.2866857039663389 0.0267476896345399	0.125462
H	0.0533366846873133 0.8828701233167474 0.5162203993706266	0.104250
H	0.1105764483198213 0.9450842587114697 0.5269487862577188	0.120127
H	0.2164046744522591 0.0508134348265949 0.5261385644472846	0.105851
H	0.2779189747775203 0.1086860775355984 0.5258841676545170	0.115769
H	0.4458947792757161 0.2721073996083143 0.5161925505726745	0.103155
H	0.3855172839473739 0.2133142470336606 0.5267477206345391	0.125462
H	0.5533367446873184 0.3828701233167476 0.5162203993706266	0.104251
H	0.6105764003198242 0.4450842917114761 0.5269487862577188	0.120127
H	0.7164046424522563 0.5508134178265898 0.5261385644472846	0.105851
H	0.7779189747775206 0.6086861515355974 0.5258841676545170	0.115769
H	0.9458947792757163 0.7721074656083128 0.5161925505726745	0.103138
H	0.8855172839473742 0.7133142300336627 0.5267477206345391	0.125425
H	0.0533366846873133 0.1171298606832511 0.4837796316293727	0.104251
H	0.1105764483198213 0.0549157122885243 0.4730512137422744	0.120127
H	0.2164046744522591 0.9491865821734103 0.4738614675527185	0.105851
H	0.2779189747775203 0.8913138484644026 0.4741158323454830	0.115769
H	0.4458947792757161 0.7278925343916872 0.4838074814273284	0.103138
H	0.3855172839473739 0.7866857699663373 0.4732523103654601	0.125425
H	0.5533367446873184 0.6171298766832526 0.4837796316293727	0.104250
H	0.6105764003198242 0.5549157412885303 0.4730512137422744	0.120127
H	0.7164046424522563 0.4491865821734101 0.4738614675527185	0.105851
H	0.7779189747775206 0.3913139474644072 0.4741158323454830	0.115769
H	0.9458947792757163 0.2278925833916879 0.4838074814273284	0.103155
H	0.8855172839473742 0.2866857039663389 0.4732523103654601	0.125462
H	0.9466632553126816 0.8828701233167474 0.9837796316293724	0.104251
H	0.8894235996801758 0.9450842587114697 0.9730511827422751	0.120127
H	0.7835953575477437 0.0508134348265949 0.9738614675527181	0.105851
H	0.7220810252224794 0.1086860775355984 0.9741158013454769	0.115769
H	0.5541052207242837 0.2721073996083143 0.9838074494273255	0.103155
H	0.6144827160526258 0.2133142470336606 0.9732523103654599	0.125462
H	0.4466633513126826 0.3828701233167476 0.9837796316293724	0.104251
H	0.3894235356801773 0.4450842917114761 0.9730511827422751	0.120127
H	0.2835953575477437 0.5508134178265897 0.9738614675527181	0.105851
H	0.2220810412224810 0.6086861515355974 0.9741158013454769	0.115769
H	0.0541052287242845 0.7721074656083128 0.9838074494273255	0.103138
H	0.1144827320526203 0.7133142300336627 0.9732523103654599	0.125425
H	0.0533366846873133 0.8828701233167474 0.9837796316293724	0.104250
H	0.1105764483198213 0.9450842587114697 0.9730511827422751	0.120127
H	0.2164046744522591 0.0508134348265949 0.9738614675527181	0.105851
H	0.2779189747775203 0.1086860775355984 0.9741158013454769	0.115769
H	0.4458947792757161 0.2721073996083143 0.9838074494273255	0.103155
H	0.3855172839473739 0.2133142470336606 0.9732523103654599	0.125462
H	0.5533367446873184 0.3828701233167476 0.9837796316293724	0.104251
H	0.6105764003198242 0.4450842917114761 0.9730511827422751	0.120127
H	0.7164046424522563 0.5508134178265898 0.9738614675527181	0.105851
H	0.7779189747775206 0.6086861515355974 0.9741158013454769	0.115769
H	0.9458947792757163 0.7721074656083128 0.9838074494273255	0.103138
H	0.8855172839473742 0.7133142300336627 0.9732523103654599	0.125426
H	0.9466632553126816 0.1171298606832511 0.4837796316293727	0.104251
H	0.8894235996801758 0.0549157122885243 0.4730512137422744	0.120127
H	0.7835953575477437 0.9491865821734102 0.4738614675527185	0.105851
H	0.7220810252224794 0.8913138484644026 0.4741158323454830	0.115769
H	0.5541052207242837 0.7278925343916872 0.4838074814273284	0.103138
H	0.6144827160526258 0.7866857699663373 0.4732523103654601	0.125426
H	0.4466633513126826 0.6171298766832526 0.4837796316293727	0.104250
H	0.3894235356801773 0.5549157412885303 0.4730512137422744	0.120127
H	0.2835953575477437 0.4491865821734101 0.4738614675527185	0.105851
H	0.2220810412224810 0.3913139474644072 0.4741158323454830	0.115769
H	0.0541052287242845 0.2278925833916879 0.4838074814273284	0.103155
H	0.1144827320526203 0.2866857039663389 0.4732523103654601	0.125462
H	0.9466632553126816 0.8828701233167474 0.5162203993706266	0.104250
H	0.8894235996801758 0.9450842587114697 0.5269487862577188	0.120127
H	0.7835953575477437 0.0508134348265949 0.5261385644472846	0.105851
H	0.7220810252224794 0.1086860775355984 0.5258841676545170	0.115769
H	0.5541052207242837 0.2721073996083143 0.5161925505726745	0.103155
H	0.6144827160526258 0.2133142470336606 0.5267477206345391	0.125462
H	0.4466633513126826 0.3828701233167476 0.5162203993706266	0.104251
H	0.3894235356801773 0.4450842917114761 0.5269487862577188	0.120127
H	0.2835953575477437 0.5508134178265897 0.5261385644472846	0.105851
H	0.2220810412224810 0.6086861515355974 0.5258841676545170	0.115769
H	0.0541052287242845 0.7721074656083128 0.5161925505726745	0.103138
H	0.1144827320526203 0.7133142300336627 0.5267477206345391	0.125425
H	0.0533366846873133 0.1171298606832511 0.0162203703706276	0.104250
H	0.1105764483198213 0.0549157122885243 0.0269487512577193	0.120127
H	0.2164046744522591 0.9491865821734102 0.0261385324472816	0.105851
H	0.2779189747775203 0.8913138484644026 0.0258841716545172	0.115769
H	0.4458947792757161 0.7278925343916872 0.0161925505726743	0.103138
H	0.3855172839473739 0.7866857699663373 0.0267476896345399	0.125426
H	0.5533367446873184 0.6171298766832526 0.0162203703706276	0.104250
H	0.6105764003198242 0.5549157412885303 0.0269487512577193	0.120127
H	0.7164046424522563 0.4491865821734101 0.0261385324472816	0.105851
H	0.7779189747775206 0.3913139474644072 0.0258841716545172	0.115769
H	0.9458947792757163 0.2278925833916879 0.0161925505726743	0.103155
H	0.8855172839473742 0.2866857039663389 0.0267476896345399	0.125462
Zn	0.5000000000000000 0.6730100199487048 0.7500000160000013	0.735800
Zn	-0.0000000000000000 0.1730100369487027 0.7500000160000013	0.735693
Zn	0.5000000000000000 0.3269899800512951 0.2500000000000000	0.735693
Zn	-0.0000000000000000 0.8269899800512952 0.2500000000000000	0.735800
Si	0.5000000000000000 0.6728116634688717 0.2500000000000000	1.716828
Si	-0.0000000000000000 0.1728116634688720 0.2500000000000000	1.716828
Si	0.5000000000000000 0.3271883685311306 0.7500000160000013	1.716828
Si	-0.0000000000000000 0.8271883365311283 0.7500000160000013	1.716828
F	0.5000000000000000 0.7312988215925277 0.2500000000000000	-0.539698
F	0.5000000000000000 0.6142974059724237 0.2500000000000000	-0.536778
F	-0.0000000000000000 0.2312987725925268 0.2500000000000000	-0.539699
F	-0.0000000000000000 0.1142973899724227 0.2500000000000000	-0.536778
F	0.5000000000000000 0.2687012274074730 0.7500000160000013	-0.539699
F	0.5000000000000000 0.3857025610275769 0.7500000160000013	-0.536778
F	-0.0000000000000000 0.7687011784074723 0.7500000160000013	-0.539698
F	-0.0000000000000000 0.8857025940275763 0.7500000160000013	-0.536778
F	0.5569682868293845 0.6727665174031280 0.2500000000000000	-0.539468
F	0.0569683068293862 0.1727665504031272 0.2500000000000000	-0.539467
F	0.4430316811706125 0.3272334165968736 0.7500000160000013	-0.539467
F	0.9430317131706155 0.8272334825968720 0.7500000160000013	-0.539468
F	0.4430316811706125 0.6727665174031280 0.2500000000000000	-0.539468
F	0.9430317131706155 0.1727665504031272 0.2500000000000000	-0.539467
F	0.5569682868293845 0.3272334165968736 0.7500000160000013	-0.539467
F	0.0569683068293862 0.8272334825968720 0.7500000160000013	-0.539468
F	0.5000000000000000 0.6728460484987401 0.4761128192002900	-0.498523
F	-0.0000000000000000 0.1728460654987379 0.4761128192002900	-0.498520
F	0.5000000000000000 0.3271539845012590 0.9761128192002897	-0.498520
F	-0.0000000000000000 0.8271539515012599 0.9761128192002897	-0.498523
F	0.5000000000000000 0.6728460484987401 0.0238871767997097	-0.498522
F	-0.0000000000000000 0.1728460654987379 0.0238871767997097	-0.498520
F	0.5000000000000000 0.3271539845012590 0.5238871487997148	-0.498520
F	-0.0000000000000000 0.8271539515012599 0.5238871487997148	-0.498522
N	0.5515400134045534 0.7253662384833075 0.7500000160000013	-0.228353
N	0.9490541900757484 0.1197827796851110 0.7500000160000013	-0.223769
N	0.0515399774045505 0.2253662224833060 0.7500000160000013	-0.228115
N	0.4490541900757487 0.6197827636851098 0.7500000160000013	-0.223774
N	0.4484600505954447 0.2746337615166927 0.2500000000000000	-0.228115
N	0.0509458179242520 0.8802172363148902 0.2500000000000000	-0.223774
N	0.9484599865954466 0.7746337615166925 0.2500000000000000	-0.228353
N	0.5509458099242516 0.3802172363148904 0.2500000000000000	-0.223769
N	0.4484600505954447 0.7253662384833075 0.7500000160000013	-0.228353
N	0.0509458179242520 0.1197827796851110 0.7500000160000013	-0.223770
N	0.9484599865954466 0.2253662224833060 0.7500000160000013	-0.228115
N	0.5509458099242516 0.6197827636851098 0.7500000160000013	-0.223774
N	0.5515400134045534 0.2746337615166927 0.2500000000000000	-0.228115
N	0.9490541900757484 0.8802172363148902 0.2500000000000000	-0.223774
N	0.0515399774045505 0.7746337615166925 0.2500000000000000	-0.228353
N	0.4490541900757487 0.3802172363148904 0.2500000000000000	-0.223770
	  	
