#======================================================================

# CRYSTAL DATA

#----------------------------------------------------------------------

data_VESTA_phase_1


_pd_phase_name                         SIFSIX_16_Co_i
_cell_length_a                         24.77424
_cell_length_b                         24.77424
_cell_length_c                         7.69930
_cell_angle_alpha                      90
_cell_angle_beta                       90
_cell_angle_gamma                      90
_symmetry_space_group_name_H-M         P 1
_symmetry_Int_Tables_number            1

loop_
_symmetry_equiv_pos_as_xyz
   x, y, z

loop_
   _atom_site_label
   _atom_site_fract_x
   _atom_site_fract_y
   _atom_site_fract_z
   _atom_site_charge
C	0.4779143955473258 0.3926334340637870 0.3663886867327530	0.093062
C	0.4770064456144285 0.3366655241982878 0.3624182361713721	-0.167210
C	0.9543466193125067 0.6147411638642040 0.9424764134466077	-0.126007
C	0.9545171555330223 0.5586835413954585 0.9432696120272941	-0.123386
C	0.5220856424526704 0.6073666039362094 0.3663886867327530	0.092978
C	0.5229935543855716 0.6633345138017087 0.3624182361713721	-0.167205
C	0.0456533046874944 0.3852587971357965 0.9424764134466077	-0.126007
C	0.0454828634669754 0.4413164966045444 0.9432696120272941	-0.123385
C	0.6073666039362094 0.4779143955473258 0.3663886867327530	0.092978
C	0.6633345138017087 0.4770064456144285 0.3624182361713721	-0.167205
C	0.3852587971357965 0.9543466193125067 0.9424764134466077	-0.126007
C	0.4413164966045444 0.9545171555330223 0.9432696120272941	-0.123386
C	0.3926334340637870 0.5220856424526704 0.3663886867327530	0.093062
C	0.3366655241982878 0.5229935543855716 0.3624182361713721	-0.167210
C	0.6147411638642040 0.0456533046874944 0.9424764134466077	-0.126007
C	0.5586835413954585 0.0454828634669754 0.9432696120272941	-0.123385
C	0.5220856424526704 0.3926334340637870 0.6336113132672465	0.093062
C	0.5229935543855716 0.3366655241982878 0.6375817318286251	-0.167210
C	0.0456533046874944 0.6147411638642040 0.0575235985533929	-0.126007
C	0.0454828634669754 0.5586835413954585 0.0567303639727038	-0.123385
C	0.4779143955473258 0.6073666039362094 0.6336113132672465	0.092978
C	0.4770064456144285 0.6633345138017087 0.6375817318286251	-0.167205
C	0.9543466193125067 0.3852587971357965 0.0575235985533929	-0.126007
C	0.9545171555330223 0.4413164966045444 0.0567303639727038	-0.123386
C	0.3926334340637870 0.4779143955473258 0.6336113132672465	0.093062
C	0.3366655241982878 0.4770064456144285 0.6375817318286251	-0.167210
C	0.6147411638642040 0.9543466193125067 0.0575235985533929	-0.126007
C	0.5586835413954585 0.9545171555330223 0.0567303639727038	-0.123386
C	0.6073666039362094 0.5220856424526704 0.6336113132672465	0.092978
C	0.6633345138017087 0.5229935543855716 0.6375817318286251	-0.167205
C	0.3852587971357965 0.0456533046874944 0.0575235985533929	-0.126007
C	0.4413164966045444 0.0454828634669754 0.0567303639727038	-0.123385
C	0.5456533426874972 0.8852587591358003 0.5575236185533878	-0.126005
C	0.5454828444669777 0.9413164966045446 0.5567303559727033	-0.123384
C	0.0220855964526735 0.1073665469362151 0.1336113132672470	0.093062
C	0.0229935523855714 0.1633344758017123 0.1375817478286267	-0.167210
C	0.4543466953125054 0.1147412118642007 0.5575236185533878	-0.126097
C	0.4545171175330266 0.0586834883954578 0.5567303559727033	-0.123398
C	0.9779143575473296 0.8926333960637906 0.1336113132672470	0.093062
C	0.9770064456144284 0.8366655241982873 0.1375817478286267	-0.167210
C	0.1147412118642007 0.5456533426874972 0.5575236185533878	-0.126097
C	0.0586834883954578 0.5454828444669777 0.5567303559727033	-0.123398
C	0.8926333960637906 0.0220855964526735 0.1336113132672470	0.093062
C	0.8366655241982873 0.0229935523855714 0.1375817478286267	-0.167210
C	0.8852587591358003 0.4543466953125054 0.5575236185533878	-0.126006
C	0.9413164966045446 0.4545171175330266 0.5567303559727033	-0.123384
C	0.1073665469362151 0.9779143575473296 0.1336113132672470	0.093062
C	0.1633344758017123 0.9770064456144284 0.1375817478286267	-0.167210
C	0.4543466953125054 0.8852587591358003 0.4424764134466082	-0.126005
C	0.4545171175330266 0.9413164966045446 0.4432696440272969	-0.123384
C	0.9779143575473296 0.1073665469362151 0.8663887187327490	0.093062
C	0.9770064456144284 0.1633344758017123 0.8624182361713723	-0.167210
C	0.5456533426874972 0.1147412118642007 0.4424764134466082	-0.126097
C	0.5454828444669777 0.0586834883954578 0.4432696440272969	-0.123398
C	0.0220855964526735 0.8926333960637906 0.8663887187327490	0.093062
C	0.0229935523855714 0.8366655241982873 0.8624182361713723	-0.167210
C	0.8852587591358003 0.5456533426874972 0.4424764134466082	-0.126005
C	0.9413164966045446 0.5454828444669777 0.4432696440272969	-0.123384
C	0.1073665469362151 0.0220855964526735 0.8663887187327490	0.093062
C	0.1633344758017123 0.0229935523855714 0.8624182361713723	-0.167210
C	0.1147412118642007 0.4543466953125054 0.4424764134466082	-0.126097
C	0.0586834883954578 0.4545171175330266 0.4432696440272969	-0.123398
C	0.8926333960637906 0.9779143575473296 0.8663887187327490	0.093062
C	0.8366655241982873 0.9770064456144284 0.8624182361713723	-0.167210
C	0.5000000000000000 0.3072483441573595 0.5000000000000000	0.170094
C	0.5000000000000000 0.2500962966932813 0.5000000000000000	-0.116845
C	0.5000000000000000 0.2008655822999387 0.5000000000000000	-0.093857
C	0.5000000000000000 0.1436930867243462 0.5000000000000000	0.123483
C	0.5000000000000000 0.0297050024936836 0.5000000000000000	0.065024
C	0.0000000000000000 0.8072483251573541 0.0000000000000000	0.170094
C	0.0000000000000000 0.7500962766932795 0.0000000000000000	-0.116844
C	0.0000000000000000 0.7008655442999430 0.0000000000000000	-0.093855
C	0.0000000000000000 0.6436930487243433 0.0000000000000000	0.123437
C	0.0000000000000000 0.5297050164936850 0.0000000000000000	0.064976
C	0.5000000000000000 0.6927516368426427 0.5000000000000000	0.170180
C	0.5000000000000000 0.7499037613067165 0.5000000000000000	-0.116850
C	0.5000000000000000 0.7991344177000610 0.5000000000000000	-0.093855
C	0.5000000000000000 0.8563069132756536 0.5000000000000000	0.123437
C	0.5000000000000000 0.9702949835063150 0.5000000000000000	0.064969
C	0.0000000000000000 0.1927516558426408 0.0000000000000000	0.170094
C	0.0000000000000000 0.2499037033067187 0.0000000000000000	-0.116845
C	0.0000000000000000 0.2991343977000595 0.0000000000000000	-0.093855
C	0.0000000000000000 0.3563069132756537 0.0000000000000000	0.123437
C	0.0000000000000000 0.4702950215063185 0.0000000000000000	0.064976
C	0.6927516368426427 0.5000000000000000 0.5000000000000000	0.170180
C	0.7499037613067165 0.5000000000000000 0.5000000000000000	-0.116850
C	0.7991344177000610 0.5000000000000000 0.5000000000000000	-0.093855
C	0.8563069132756536 0.5000000000000000 0.5000000000000000	0.123437
C	0.9702949835063150 0.5000000000000000 0.5000000000000000	0.064970
C	0.1927516558426408 -0.0000000000000000 0.0000000000000000	0.170094
C	0.2499037033067187 -0.0000000000000000 0.0000000000000000	-0.116845
C	0.2991343977000595 -0.0000000000000000 0.0000000000000000	-0.093855
C	0.3563069132756537 -0.0000000000000000 0.0000000000000000	0.123437
C	0.4702950215063185 -0.0000000000000000 0.0000000000000000	0.064976
C	0.3072483441573595 0.5000000000000000 0.5000000000000000	0.170094
C	0.2500962966932813 0.5000000000000000 0.5000000000000000	-0.116845
C	0.2008655822999387 0.5000000000000000 0.5000000000000000	-0.093857
C	0.1436930867243462 0.5000000000000000 0.5000000000000000	0.123483
C	0.0297050024936836 0.5000000000000000 0.5000000000000000	0.065024
C	0.8072483251573541 -0.0000000000000000 0.0000000000000000	0.170094
C	0.7500962766932795 -0.0000000000000000 0.0000000000000000	-0.116844
C	0.7008655442999430 -0.0000000000000000 0.0000000000000000	-0.093855
C	0.6436930487243433 -0.0000000000000000 0.0000000000000000	0.123437
C	0.5297050164936850 -0.0000000000000000 0.0000000000000000	0.064976
H	0.4614891493152787 0.4161221120819966 0.2588249023115382	0.111807
H	0.4587733276607063 0.3159732006400218 0.2523987297000567	0.126647
H	0.9191456446218574 0.6368747897638296 0.8961938968141145	0.111743
H	0.9193633985641256 0.5368596800835589 0.8948479492127520	0.105950
H	0.5385108506847213 0.5838778879180030 0.2588249023115382	0.111818
H	0.5412267103392969 0.6840268753599771 0.2523987297000567	0.126659
H	0.0808543363781448 0.3631252102361702 0.8961938968141145	0.111743
H	0.0806366304358734 0.4631403589164408 0.8948479492127520	0.105950
H	0.5838778879180030 0.4614891493152787 0.2588249023115382	0.111818
H	0.6840268753599771 0.4587733276607063 0.2523987297000567	0.126659
H	0.3631252102361702 0.9191456446218574 0.8961938968141145	0.111743
H	0.4631403589164408 0.9193633985641256 0.8948479492127520	0.105949
H	0.4161221120819966 0.5385108506847213 0.2588249023115382	0.111807
H	0.3159732006400218 0.5412267103392969 0.2523987297000567	0.126647
H	0.6368747897638296 0.0808543363781448 0.8961938968141145	0.111743
H	0.5368596800835589 0.0806366304358734 0.8948479492127520	0.105950
H	0.5385108506847213 0.4161221120819966 0.7411750816884602	0.111807
H	0.5412267103392969 0.3159732006400218 0.7476012702999431	0.126646
H	0.0808543363781448 0.6368747897638296 0.1038060791858835	0.111742
H	0.0806366304358734 0.5368596800835589 0.1051520507872480	0.105951
H	0.4614891493152787 0.5838778879180030 0.7411750816884602	0.111818
H	0.4587733276607063 0.6840268753599771 0.7476012702999431	0.126659
H	0.9191456446218574 0.3631252102361702 0.1038060791858835	0.111742
H	0.9193633985641256 0.4631403589164408 0.1051520507872480	0.105950
H	0.4161221120819966 0.4614891493152787 0.7411750816884602	0.111807
H	0.3159732006400218 0.4587733276607063 0.7476012702999431	0.126646
H	0.6368747897638296 0.9191456446218574 0.1038060791858835	0.111742
H	0.5368596800835589 0.9193633985641256 0.1051520507872480	0.105950
H	0.5838778879180030 0.5385108506847213 0.7411750816884602	0.111818
H	0.6840268753599771 0.5412267103392969 0.7476012702999431	0.126659
H	0.3631252102361702 0.0808543363781448 0.1038060791858835	0.111742
H	0.4631403589164408 0.0806366304358734 0.1051520507872480	0.105951
H	0.5808543553781426 0.8631252102361704 0.6038060711858828	0.111739
H	0.5806366014358744 0.9631403589164408 0.6051520827872506	0.105949
H	0.0385108606847222 0.0838778589180046 0.2411750976884618	0.111807
H	0.0412267153392937 0.1840268183599761 0.2476013022999386	0.126646
H	0.4191456826218602 0.1368748187638286 0.6038060711858828	0.111755
H	0.4193633595641258 0.0368596650835540 0.6051520827872506	0.105994
H	0.9614891493152787 0.9161221890819927 0.2411750976884618	0.111807
H	0.9587732896607031 0.8159732386400252 0.2476013022999386	0.126646
H	0.1368748187638286 0.5808543553781426 0.6038060711858828	0.111755
H	0.0368596650835540 0.5806366014358744 0.6051520827872506	0.105994
H	0.9161221890819927 0.0385108606847222 0.2411750976884618	0.111807
H	0.8159732386400252 0.0412267153392937 0.2476013022999386	0.126646
H	0.8631252102361704 0.4191456826218602 0.6038060711858828	0.111739
H	0.9631403589164408 0.4193633595641258 0.6051520827872506	0.105949
H	0.0838778589180046 0.9614891493152787 0.2411750976884618	0.111807
H	0.1840268183599761 0.9587732896607031 0.2476013022999386	0.126646
H	0.4191456826218602 0.8631252102361704 0.3961938968141144	0.111738
H	0.4193633595641258 0.9631403589164408 0.3948479812127477	0.105949
H	0.9614891493152787 0.0838778589180046 0.7588248863115371	0.111807
H	0.9587732896607031 0.1840268183599761 0.7523986977000614	0.126646
H	0.5808543553781426 0.1368748187638286 0.3961938968141144	0.111754
H	0.5806366014358744 0.0368596650835540 0.3948479812127477	0.105994
H	0.0385108606847222 0.9161221890819927 0.7588248863115371	0.111807
H	0.0412267153392937 0.8159732386400252 0.7523986977000614	0.126646
H	0.8631252102361704 0.5808543553781426 0.3961938968141144	0.111738
H	0.9631403589164408 0.5806366014358744 0.3948479812127477	0.105949
H	0.0838778589180046 0.0385108606847222 0.7588248863115371	0.111807
H	0.1840268183599761 0.0412267153392937 0.7523986977000614	0.126646
H	0.1368748187638286 0.4191456826218602 0.3961938968141144	0.111754
H	0.0368596650835540 0.4193633595641258 0.3948479812127477	0.105994
H	0.9161221890819927 0.9614891493152787 0.7588248863115371	0.111807
H	0.8159732386400252 0.9587732896607031 0.7523986977000614	0.126646
Co	0.5000000000000000 0.5000000000000000 0.5000000000000000	0.578282
Co	0.0000000000000000 -0.0000000000000000 0.0000000000000000	0.578286
Si	0.5000000000000000 0.5000000000000000 0.0000000000000000	1.712302
Si	0.0000000000000000 -0.0000000000000000 0.5000000000000000	1.712302
F	0.5000000000000000 0.5000000000000000 0.2229747422589485	-0.499879
F	0.0000000000000000 -0.0000000000000000 0.7229747102589530	-0.499879
F	0.5000000000000000 0.5000000000000000 0.7770251937410533	-0.499879
F	0.0000000000000000 -0.0000000000000000 0.2770252577410516	-0.499879
F	0.5490109235668033 0.5490109235668033 0.0000000000000000	-0.544209
F	0.0490108765668028 0.0490108765668028 0.5000000000000000	-0.544208
F	0.4509891524332032 0.4509891524332032 0.0000000000000000	-0.544208
F	0.9509891144331999 0.9509891144331999 0.5000000000000000	-0.544208
F	0.4509891524332032 0.5490109235668033 0.0000000000000000	-0.544209
F	0.9509891144331999 0.0490108765668028 0.5000000000000000	-0.544208
F	0.5490109235668033 0.4509891524332032 0.0000000000000000	-0.544209
F	0.0490108765668028 0.9509891144331999 0.5000000000000000	-0.544208
N	0.5000000000000000 0.4203786541649736 0.5000000000000000	-0.191513
N	0.0000000000000000 0.9203786921649768 0.0000000000000000	-0.191514
N	0.5000000000000000 0.5796213458350263 0.5000000000000000	-0.191481
N	0.0000000000000000 0.0796213548350236 0.0000000000000000	-0.191514
N	0.5796213458350263 0.5000000000000000 0.5000000000000000	-0.191481
N	0.0796213548350236 -0.0000000000000000 0.0000000000000000	-0.191514
N	0.4203786541649736 0.5000000000000000 0.5000000000000000	-0.191513
N	0.9203786921649768 -0.0000000000000000 0.0000000000000000	-0.191514
	  	
