#======================================================================

# CRYSTAL DATA

#----------------------------------------------------------------------

data_VESTA_phase_1


_pd_phase_name                         SIFSIX_18_Co
_cell_length_a                         14.14958
_cell_length_b                         13.74589
_cell_length_c                         7.95704
_cell_angle_alpha                      90
_cell_angle_beta                       94.80672
_cell_angle_gamma                      90
_symmetry_space_group_name_H-M         P 1
_symmetry_Int_Tables_number            1

loop_
_symmetry_equiv_pos_as_xyz
   x, y, z

loop_
   _atom_site_label
   _atom_site_fract_x
   _atom_site_fract_y
   _atom_site_fract_z
   _atom_site_charge
F	0.4165144825133542 0.3830490721724154 0.5086019102072441	-0.538205
F	0.5191919309873637 0.4754292328918053 0.7217314854356792	-0.521037
F	0.4144583465056024 0.5581077505931487 0.5102208431107276	-0.501386
F	0.9165145165133498 0.8830490031724131 0.5086019102072441	-0.538214
F	0.0191919569873586 0.9754291978918058 0.7217314854356792	-0.521033
F	0.9144583805056045 0.0581077165931530 0.5102208431107276	-0.501386
F	0.5834854804866464 0.3830490721724154 0.4913980897927560	-0.538214
F	0.4808080660126399 0.4754292328918053 0.2782685145643214	-0.521033
F	0.5855416494943980 0.5581077505931487 0.4897791578892761	-0.501389
F	0.0834855014866445 0.8830490031724131 0.4913980897927560	-0.538205
F	0.9808079310126391 0.9754291978918058 0.2782685145643214	-0.521034
F	0.0855416244943989 0.0581077165931530 0.4897791578892761	-0.501386
C	0.6835186765830846 0.1496776169912823 0.6531634219541634	-0.423749
C	0.7559519456845148 0.1474616922872383 0.7995902937029624	0.210384
C	0.7605083506055725 0.1965213179905500 0.9542576752059194	-0.147633
C	0.6889833787288213 0.2613278068176754 0.0144946833045024	-0.147588
C	0.6746205517639020 0.3608018925182608 0.9723352325635289	0.225883
C	0.7313527049614854 0.4226287342361825 0.8642276597713907	-0.428333
C	0.8929797495253895 0.2096073780432540 0.2019098668820211	-0.437959
C	0.8498538756015911 0.1721400188299355 0.0372778139080012	0.221877
C	0.6213318760530512 0.2391039876658058 0.1276457352792813	0.210618
C	0.5976470062136409 0.1467579271525121 0.2124554440273888	-0.426857
C	0.1835187265830818 0.6496776689912797 0.6531634219541634	-0.423749
C	0.2559519796845175 0.6474616752872335 0.7995902937029624	0.210384
C	0.2605083166055702 0.6965212839905470 0.9542576752059194	-0.147627
C	0.1889833787288215 0.7613278238176733 0.0144946833045024	-0.147598
C	0.1746205347638972 0.8608019265182636 0.9723352325635289	0.225931
C	0.2313527209614795 0.9226286992361835 0.8642276597713907	-0.428344
C	0.3929796485253845 0.7096072920432538 0.2019098668820211	-0.437954
C	0.3498539436015898 0.6721400188299355 0.0372778139080012	0.221885
C	0.1213318510530531 0.7391039016658060 0.1276457352792813	0.210637
C	0.0976470902136405 0.6467579961525141 0.2124554440273888	-0.426858
C	0.3164813204169187 0.1496776169912823 0.3468365790458400	-0.423711
C	0.2440480473154810 0.1474616922872383 0.2004096262970383	0.210378
C	0.2394916783944261 0.1965213179905500 0.0457423007940856	-0.147630
C	0.3110166172711780 0.2613278068176754 0.9855053076955005	-0.147615
C	0.3253795142361032 0.3608018925182608 0.0276648184364721	0.225933
C	0.2686473100385195 0.4226287342361825 0.1357723562286109	-0.428362
C	0.1070203334746139 0.2096073780432540 0.7980901811179829	-0.437959
C	0.1501461033984106 0.1721400188299355 0.9627221740919980	0.221877
C	0.3786681549469474 0.2391039876658058 0.8723542887207131	0.210634
C	0.4023529197863603 0.1467579271525121 0.7875444769726148	-0.426856
C	0.8164813204169187 0.6496776689912797 0.3468365790458400	-0.423750
C	0.7440480473154810 0.6474616752872335 0.2004096262970383	0.210384
C	0.7394916443944306 0.6965212839905470 0.0457423007940856	-0.147627
C	0.8110166172711784 0.7613278238176733 0.9855053076955005	-0.147597
C	0.8253794472361015 0.8608019265182636 0.0276648184364721	0.225930
C	0.7686472930385144 0.9226286992361835 0.1357723562286109	-0.428344
C	0.6070202494746140 0.7096072920432538 0.7980901811179829	-0.437954
C	0.6501461203984086 0.6721400188299355 0.9627221740919980	0.221885
C	0.8786681209469450 0.7391039016658060 0.8723542887207131	0.210630
C	0.9023529867863621 0.6467579961525141 0.7875444769726148	-0.426856
H	0.7159956779408290 0.1715407479375661 0.5384159192429410	0.151727
H	0.6279764035388884 0.2026361636365615 0.6749707726387966	0.141767
H	0.6505783530004282 0.0778976439614279 0.6296491334927480	0.134113
H	0.6862145495127949 0.4642284250826012 0.7714461885070624	0.151927
H	0.7791561091362379 0.3770736637290676 0.7963563206862236	0.136641
H	0.7748663196357400 0.4741856156813832 0.9431857731118017	0.125095
H	0.8633864953530443 0.0630839922104686 0.6959698499804756	0.285535
H	0.9020466113658145 0.1526312061984362 0.2985449830057160	0.157758
H	0.8476089732605078 0.2669011940057040 0.2479880732579929	0.132898
H	0.9634162025195733 0.2406236514369541 0.1869352075350888	0.140031
H	0.5715397952212377 0.1609912868608650 0.3360905493602446	0.142934
H	0.6598801989203886 0.0992877873662282 0.2303759999842722	0.148535
H	0.5418514020908060 0.1063549795723491 0.1368216022542755	0.131075
H	0.5251688604621657 0.3372943501831622 0.2324320600167062	0.282575
H	0.2159957289408299 0.6715406449375682 0.5384159192429410	0.151727
H	0.1279764875388884 0.7026360946365595 0.6749707726387966	0.141768
H	0.1505784030004253 0.5778975839614230 0.6296491334927480	0.134113
H	0.1862145665127936 0.9642283570825958 0.7714461885070624	0.151928
H	0.2791561431362411 0.8770736977290707 0.7963563206862236	0.136642
H	0.2748663526357393 0.9741856156813835 0.9431857731118017	0.125096
H	0.3633864613530490 0.5630840352104691 0.6959698499804756	0.285534
H	0.4020466783658166 0.6526311721984331 0.2985449830057160	0.157757
H	0.3476089052605095 0.7669012290057032 0.2479880732579929	0.132898
H	0.4634162695195678 0.7406237024369472 0.1869352075350888	0.140033
H	0.0715397872212370 0.6609913038608631 0.3360905493602446	0.142935
H	0.1598801649203857 0.5992877443662281 0.2303759999842722	0.148535
H	0.0418514380908090 0.6063549275723520 0.1368216022542755	0.131076
H	0.0251688454621681 0.8372943501831623 0.2324320600167062	0.282584
H	0.2840042530591758 0.1715407479375661 0.4615841127570547	0.151723
H	0.3720234954611066 0.2026361636365615 0.3250292923612049	0.141746
H	0.3494215759995764 0.0778976439614279 0.3703508665072519	0.134107
H	0.3137854454872075 0.4642284250826012 0.2285537794929424	0.151931
H	0.2208438858637578 0.3770736637290676 0.2036436473137736	0.136643
H	0.2251336763642669 0.4741856156813832 0.0568141998881995	0.125098
H	0.1366135056469518 0.0630839922104686 0.3040300550195206	0.285535
H	0.0979533116341828 0.1526312061984362 0.7014550489942868	0.157758
H	0.1523910907394900 0.2669011940057040 0.7520119267420075	0.132898
H	0.0365837264804319 0.2406236514369541 0.8130648244649066	0.140032
H	0.4284602347787648 0.1609912868608650 0.6639094506397558	0.142941
H	0.3401198630796167 0.0992877873662282 0.7696239520157236	0.148536
H	0.4581485629091945 0.1063549795723491 0.8631784377457280	0.131073
H	0.4748311005378346 0.3372943501831622 0.7675678929832931	0.282584
H	0.7840043200591709 0.6715406449375682 0.4615841127570547	0.151727
H	0.8720235964611116 0.7026360946365595 0.3250292923612049	0.141766
H	0.8494215759995766 0.5778975839614230 0.3703508665072519	0.134113
H	0.8137854454872082 0.9642283570825958 0.2285537794929424	0.151928
H	0.7208438858637581 0.8770736977290707 0.2036436473137736	0.136642
H	0.7251336763642667 0.9741856156813835 0.0568141998881995	0.125096
H	0.6366134966469550 0.5630840352104691 0.3040300550195206	0.285554
H	0.5979534206341810 0.6526311721984331 0.7014550489942868	0.157757
H	0.6523910237394884 0.7669012290057032 0.7520119267420075	0.132898
H	0.5365837624804274 0.7406237024369472 0.8130648244649066	0.140033
H	0.9284601677787628 0.6609913038608631 0.6639094506397558	0.142941
H	0.8401197960796145 0.5992877443662281 0.7696239520157236	0.148537
H	0.9581485629091947 0.6063549275723520 0.8631784377457280	0.131073
H	0.9748310665378389 0.8372943501831623 0.7675678929832931	0.282584
N	0.8365942905794468 0.0955513983040695 0.7987374273642677	-0.144529
N	0.6021054975747331 0.3961478546233114 0.0531810751106266	-0.269491
N	0.8949711618621184 0.1097374986902939 0.9405592798839573	-0.275582
N	0.5717960859766218 0.3214612772925505 0.1456298539110949	-0.144304
N	0.3365942905794463 0.5955513213040738 0.7987374273642677	-0.144525
N	0.1021055645747351 0.8961478546233113 0.0531810751106266	-0.269469
N	0.3949711958621213 0.6097375496902946 0.9405592798839573	-0.275608
N	0.0717960779766209 0.8214612422925512 0.1456298539110949	-0.144365
N	0.1634056914205522 0.0955513983040695 0.2012626206357290	-0.144529
N	0.3978943964252654 0.3961478546233114 0.9468189008893714	-0.269443
N	0.1050288081378790 0.1097374986902939 0.0594407001160410	-0.275582
N	0.4282039110233818 0.3214612772925505 0.8543701620889065	-0.144369
N	0.6634057084205496 0.5955513213040738 0.2012626206357290	-0.144544
N	0.8978944974252701 0.8961478546233113 0.9468189008893714	-0.269469
N	0.6050288331378847 0.6097375496902946 0.0594407001160410	-0.275604
N	0.9282039450233772 0.8214612422925512 0.8543701620889065	-0.144365
Si	0.4999999979999998 0.4705797755753483 0.5000000000000000	1.702135
Si	-0.0000000000000000 0.9705797755753488 0.5000000000000000	1.702133
Co	0.5000000000000000 0.5076540674985242 -0.0000000000000000	0.848409
Co	-0.0000000000000000 0.0076540744985283 -0.0000000000000000	0.848387
	  	
