#======================================================================

# CRYSTAL DATA

#----------------------------------------------------------------------

data_VESTA_phase_1


_pd_phase_name                         SIFSIX_7_Ni
_cell_length_a                         19.10922
_cell_length_b                         19.10922
_cell_length_c                         7.75309
_cell_angle_alpha                      90
_cell_angle_beta                       90
_cell_angle_gamma                      90
_symmetry_space_group_name_H-M         P 1
_symmetry_Int_Tables_number            1

loop_
_symmetry_equiv_pos_as_xyz
   x, y, z

loop_
   _atom_site_label
   _atom_site_fract_x
   _atom_site_fract_y
   _atom_site_fract_z
   _atom_site_charge
C	0.6664535020259368 0.8716955848714875 0.7015218951152461	0.102579
C	0.6152524070209754 0.9232016426573699 0.7064597199713919	-0.177365
C	0.5791931386023390 0.8873170534859176 0.4241652462668117	-0.173575
C	0.6308302966245076 0.8363265888426336 0.4293186954356535	0.097760
C	0.8335464979740632 0.6283044151285125 0.7015218951152461	0.102579
C	0.8847476429790216 0.5767984083426307 0.7064597199713919	-0.177366
C	0.9208067603976633 0.6126829975140760 0.4241652462668117	-0.173575
C	0.8691697033754924 0.6636734111573664 0.4293186954356535	0.097759
C	0.6283044151285125 0.6664535020259368 0.7015218951152461	0.102579
C	0.5767984083426307 0.6152524070209754 0.7064597199713919	-0.177365
C	0.6126829975140760 0.5791931386023390 0.4241652462668117	-0.173575
C	0.6636734111573664 0.6308302966245076 0.4293186954356535	0.097760
C	0.8716955848714875 0.8335464979740632 0.7015218951152461	0.102580
C	0.9232016426573699 0.8847476429790216 0.7064597199713919	-0.177365
C	0.8873170534859176 0.9208067603976633 0.4241652462668117	-0.173575
C	0.8363265888426336 0.8691697033754924 0.4293186954356535	0.097760
C	0.3335464729740650 0.3716955348714834 0.2984781348847567	0.102581
C	0.3847475929790244 0.4232016426573696 0.2935403100286108	-0.177365
C	0.4208068613976610 0.3873170024859238 0.5758347537331886	-0.173578
C	0.3691696523754986 0.3363265888426337 0.5706813345643488	0.097789
C	0.1664535270259351 0.1283044521285190 0.2984781348847567	0.102579
C	0.1152524070209756 0.0767983573426304 0.2935403100286108	-0.177365
C	0.0791931196023338 0.1126829975140761 0.5758347537331886	-0.173575
C	0.1308303476245015 0.1636733991573655 0.5706813345643488	0.097760
C	0.3716955348714834 0.1664535270259351 0.2984781348847567	0.102579
C	0.4232016426573696 0.1152524070209756 0.2935403100286108	-0.177365
C	0.3873170024859238 0.0791931196023338 0.5758347537331886	-0.173575
C	0.3363265888426337 0.1308303476245015 0.5706813345643488	0.097760
C	0.1283044521285190 0.3335464729740650 0.2984781348847567	0.102581
C	0.0767983573426304 0.3847475929790244 0.2935403100286108	-0.177365
C	0.1126829975140761 0.4208068613976610 0.5758347537331886	-0.173578
C	0.1636733991573655 0.3691696523754986 0.5706813345643488	0.097789
C	0.4326638034148825 0.0702988717174627 0.4348512832492825	0.140535
C	0.4869873727586332 0.0167344214688244 0.4300207883384521	-0.122713
C	0.0673361965851174 0.4297011212825401 0.4348512832492825	0.140536
C	0.0130125952413641 0.4832655145311774 0.4300207883384521	-0.122713
C	0.4297011212825401 0.4326638034148825 0.4348512832492825	0.140536
C	0.4832655145311774 0.4869873727586332 0.4300207883384521	-0.122713
C	0.0702988717174627 0.0673361965851174 0.4348512832492825	0.140535
C	0.0167344214688244 0.0130125952413641 0.4300207883384521	-0.122713
C	0.5673361965851175 0.5702988787174598 0.5651487167507179	0.140533
C	0.5130126782413602 0.5167344354688184 0.5699792406615469	-0.122693
C	0.9326637534148855 0.9297010712825361 0.5651487167507179	0.140533
C	0.9869873727586334 0.9832656155311823 0.5699792406615469	-0.122693
C	0.5702988787174598 0.9326637534148855 0.5651487167507179	0.140533
C	0.5167344354688184 0.9869873727586334 0.5699792406615469	-0.122693
C	0.9297010712825361 0.5673361965851175 0.5651487167507179	0.140533
C	0.9832656155311823 0.5130126782413602 0.5699792406615469	-0.122693
H	0.7009989080715602 0.8632508369362472 0.8110876624397655	0.106778
H	0.6104506152621934 0.9562192257601628 0.8204532919151508	0.115033
H	0.5452582880424073 0.8904135832471143 0.3115881510417672	0.115794
H	0.6388405225943640 0.8012645996498998 0.3205007836516136	0.107187
H	0.7990010919284398 0.6367491630637528 0.8110876624397655	0.106778
H	0.8895493847378066 0.5437808252398378 0.8204532919151508	0.115033
H	0.9547417629575934 0.6095864677528864 0.3115881510417672	0.115794
H	0.8611594774056360 0.6987354003501002 0.3205007836516136	0.107187
H	0.6367491630637528 0.7009989080715602 0.8110876624397655	0.106778
H	0.5437808252398378 0.6104506152621934 0.8204532919151508	0.115033
H	0.6095864677528864 0.5452582880424073 0.3115881510417672	0.115794
H	0.6987354003501002 0.6388405225943640 0.3205007836516136	0.107187
H	0.8632508369362472 0.7990010919284398 0.8110876624397655	0.106778
H	0.9562192257601628 0.8895493847378066 0.8204532919151508	0.115033
H	0.8904135832471143 0.9547417629575934 0.3115881510417672	0.115794
H	0.8012645996498998 0.8611594774056360 0.3205007836516136	0.107187
H	0.2990011179284420 0.3632507609362481 0.1889123225602367	0.106778
H	0.3895493087378006 0.4562191747601618 0.1795466640848453	0.115033
H	0.4547417629575936 0.3904135832471143 0.6884118189582377	0.115795
H	0.3611595024056416 0.3012646256499019 0.6794992163483863	0.107165
H	0.2009988950715556 0.1367492650637540 0.1889123225602367	0.106778
H	0.1104506662621938 0.0437808412398394 0.1795466640848453	0.115033
H	0.0452582310424060 0.1095864427528880 0.6884118189582377	0.115794
H	0.1388405225943641 0.1987353623500972 0.6794992163483863	0.107187
H	0.3632507609362481 0.2009988950715556 0.1889123225602367	0.106778
H	0.4562191747601618 0.1104506662621938 0.1795466640848453	0.115033
H	0.3904135832471143 0.0452582310424060 0.6884118189582377	0.115794
H	0.3012646256499019 0.1388405225943641 0.6794992163483863	0.107187
H	0.1367492650637540 0.2990011179284420 0.1889123225602367	0.106778
H	0.0437808412398394 0.3895493087378006 0.1795466640848453	0.115033
H	0.1095864427528880 0.4547417629575936 0.6884118189582377	0.115795
H	0.1987353623500972 0.3611595024056416 0.6794992163483863	0.107165
H	0.5057526734096996 0.0020792518584045 0.3014976621053374	0.101423
H	0.9942473775903010 0.4979207201415932 0.3014976621053374	0.101423
H	0.4979207201415932 0.5057526734096996 0.3014976621053374	0.101423
H	0.0020792518584045 0.9942473775903010 0.3014976621053374	0.101423
H	0.4942473265903002 0.5020792298584099 0.6985023678946582	0.101421
H	0.0057526644097026 0.9979207201415931 0.6985023678946582	0.101421
H	0.5020792298584099 0.0057526644097026 0.6985023678946582	0.101421
H	0.9979207201415931 0.4942473265903002 0.6985023678946582	0.101421
Ni	0.2500000000000000 0.2500000000000000 0.4345922215403671	0.758531
Ni	0.7500000000000000 0.7500000000000000 0.5654077784596329	0.758529
Si	0.2500000000000000 0.2500000000000000 0.9352640861336015	1.726835
Si	0.7500000000000000 0.7500000000000000 0.0647358988664009	1.726834
F	0.2500000000000000 0.2500000000000000 0.1649824211342810	-0.507325
F	0.2500000000000000 0.2500000000000000 0.7056814681427872	-0.507160
F	0.7500000000000000 0.7500000000000000 0.8350176088657212	-0.507325
F	0.7500000000000000 0.7500000000000000 0.2943185318572126	-0.507158
F	0.3134913212306807 0.3119582068244172 0.9355062221000077	-0.540486
F	0.1865087037693178 0.1880418181755814 0.9355062221000077	-0.540487
F	0.1880418181755814 0.3134913212306807 0.9355062221000077	-0.540486
F	0.3119582068244172 0.1865087037693178 0.9355062221000077	-0.540487
F	0.6865087037693178 0.8119582068244172 0.0644937778999923	-0.540487
F	0.8134912962306822 0.6880417931755828 0.0644937778999923	-0.540487
F	0.8119582068244172 0.8134912962306822 0.0644937778999923	-0.540487
F	0.6880417931755828 0.6865087037693178 0.0644937778999923	-0.540487
N	0.3285625489945292 0.1741751940829873 0.4346262741888705	-0.240678
N	0.1714374760054693 0.3258248309170113 0.4346262741888705	-0.240686
N	0.3258248309170113 0.3285625489945292 0.4346262741888705	-0.240686
N	0.1741751940829873 0.1714374760054693 0.4346262741888705	-0.240677
N	0.6714374510054708 0.6741751690829889 0.5653737258111297	-0.240677
N	0.8285625489945292 0.8258248309170111 0.5653737258111297	-0.240677
N	0.6741751690829889 0.8285625489945292 0.5653737258111297	-0.240677
N	0.8258248309170111 0.6714374510054708 0.5653737258111297	-0.240677
	  	
