#======================================================================

# CRYSTAL DATA

#----------------------------------------------------------------------

data_VESTA_phase_1


_pd_phase_name                         SIFSIX_6_Zn_i
_cell_length_a                         17.78920
_cell_length_b                         17.78920
_cell_length_c                         15.04730
_cell_angle_alpha                      90
_cell_angle_beta                       90
_cell_angle_gamma                      90
_symmetry_space_group_name_H-M         P 1
_symmetry_Int_Tables_number            1

loop_
_symmetry_equiv_pos_as_xyz
   x, y, z

loop_
   _atom_site_label
   _atom_site_fract_x
   _atom_site_fract_y
   _atom_site_fract_z
   _atom_site_charge
N	0.2440467730000009 0.1297089589999985 0.1281640420000016	-0.233920
N	0.2559532269999991 0.3702910550000027 0.1281640420000016	-0.233919
N	0.3702910550000027 0.2440467730000009 0.1281640420000016	-0.233920
N	0.1297089589999985 0.2559532269999991 0.1281640420000016	-0.233920
N	0.7559532000000004 0.6297089720000031 0.3718359430000007	-0.233853
N	0.7440467999999996 0.8702910279999969 0.3718359430000007	-0.233917
N	0.6297089720000031 0.7440467999999996 0.3718359430000007	-0.233850
N	0.8702910279999969 0.7559532000000004 0.3718359430000007	-0.233919
N	0.7559532000000004 0.8702910279999969 0.8718359430000007	-0.233919
N	0.7440467999999996 0.6297089720000031 0.8718359430000007	-0.233852
N	0.6297089720000031 0.7559532000000004 0.8718359430000007	-0.233853
N	0.8702910279999969 0.7440467999999996 0.8718359430000007	-0.233918
N	0.2440467730000009 0.3702910550000027 0.6281640569999993	-0.233920
N	0.2559532269999991 0.1297089589999985 0.6281640569999993	-0.233921
N	0.3702910550000027 0.2559532269999991 0.6281640569999993	-0.233921
N	0.1297089589999985 0.2440467730000009 0.6281640569999993	-0.233920
C	0.1994501060000005 0.0937959299999989 0.1865656829999978	0.107197
C	0.1912805719999966 0.0161311510000033 0.1860308170000025	-0.183786
C	0.2326889870000031 0.9731358390000011 0.1250803479999973	0.110117
C	0.2800511250000000 0.0113541099999992 0.0657256260000025	-0.180472
C	0.2832212839999997 0.0893654540000028 0.0684040339999967	0.107727
C	0.2267090619999976 0.8906159269999989 0.1238769420000025	0.060996
C	0.2909358859999998 0.8466488119999980 0.1208441260000015	-0.172010
C	0.2863396280000003 0.7674359230000007 0.1219855789999968	0.084431
C	0.1484467140000021 0.7785686289999987 0.1246651080000021	-0.122981
C	0.1549089259999974 0.8555524779999999 0.1269775499999994	-0.134501
C	0.3005498540000033 0.4062040829999987 0.1865656829999978	0.107196
C	0.3087193880000001 0.4838688299999987 0.1860308170000025	-0.183785
C	0.2673110129999969 0.5268641609999989 0.1250803479999973	0.110118
C	0.2199488879999976 0.4886458869999970 0.0657256260000025	-0.180472
C	0.2167787300000015 0.4106345530000013 0.0684040339999967	0.107725
C	0.2732909380000024 0.6093840730000011 0.1238769420000025	0.060995
C	0.2090641550000001 0.6533511880000020 0.1208441260000015	-0.172008
C	0.2136603450000010 0.7325640769999993 0.1219855789999968	0.084429
C	0.3515532719999968 0.7214313710000013 0.1246651080000021	-0.122983
C	0.3450910740000026 0.6444475220000001 0.1269775499999994	-0.134501
C	0.4062040829999987 0.1994501060000005 0.1865656829999978	0.107197
C	0.4838688299999987 0.1912805719999966 0.1860308170000025	-0.183785
C	0.5268641609999989 0.2326889870000031 0.1250803479999973	0.110117
C	0.4886458869999970 0.2800511250000000 0.0657256260000025	-0.180470
C	0.4106345530000013 0.2832212839999997 0.0684040339999967	0.107726
C	0.6093840730000011 0.2267090619999976 0.1238769420000025	0.060996
C	0.6533511880000020 0.2909358859999998 0.1208441260000015	-0.172009
C	0.7325640769999993 0.2863396280000003 0.1219855789999968	0.084431
C	0.7214313710000013 0.1484467140000021 0.1246651080000021	-0.122981
C	0.6444475220000001 0.1549089259999974 0.1269775499999994	-0.134501
C	0.0937959299999989 0.3005498540000033 0.1865656829999978	0.107197
C	0.0161311510000033 0.3087193880000001 0.1860308170000025	-0.183785
C	0.9731358390000011 0.2673110129999969 0.1250803479999973	0.110118
C	0.0113541099999992 0.2199488879999976 0.0657256260000025	-0.180472
C	0.0893654540000028 0.2167787300000015 0.0684040339999967	0.107727
C	0.8906159269999989 0.2732909380000024 0.1238769420000025	0.060995
C	0.8466488119999980 0.2090641550000001 0.1208441260000015	-0.172010
C	0.7674359230000007 0.2136603450000010 0.1219855789999968	0.084429
C	0.7785686289999987 0.3515532719999968 0.1246651080000021	-0.122982
C	0.8555524779999999 0.3450910740000026 0.1269775499999994	-0.134502
C	0.8005499069999971 0.5937959170000013 0.3134343330000036	0.107175
C	0.8087194410000009 0.5161311159999968 0.3139691519999985	-0.183784
C	0.7673110129999969 0.4731358390000011 0.3749196200000000	0.110118
C	0.7199488480000014 0.5113541670000004 0.4342743779999978	-0.180491
C	0.7167786899999982 0.5893655010000032 0.4315960059999995	0.107702
C	0.7732910180000019 0.3906159799999998 0.3761230499999968	0.060996
C	0.7090641409999989 0.3466487589999971 0.3791558659999978	-0.172009
C	0.7136603719999997 0.2674358430000012 0.3780144210000032	0.084431
C	0.8515532990000025 0.2785686020000000 0.3753348759999966	-0.122981
C	0.8450910210000018 0.3555524519999977 0.3730224820000032	-0.134502
C	0.6994500930000029 0.9062040829999987 0.3134343330000036	0.107195
C	0.6912805589999991 0.9838688299999987 0.3139691519999985	-0.183786
C	0.7326889870000031 0.0268641669999994 0.3749196200000000	0.110118
C	0.7800511519999986 0.9886458869999970 0.4342743779999978	-0.180472
C	0.7832213100000018 0.9106346060000021 0.4315960059999995	0.107725
C	0.7267089819999981 0.1093840469999989 0.3761230499999968	0.060995
C	0.7909358590000011 0.1533512279999982 0.3791558659999978	-0.172009
C	0.7863396280000003 0.2325641300000001 0.3780144210000032	0.084428
C	0.6484467009999975 0.2214313850000025 0.3753348759999966	-0.122982
C	0.6549089789999982 0.1444475220000001 0.3730224820000032	-0.134500
C	0.5937959170000013 0.6994500930000029 0.3134343330000036	0.107174
C	0.5161311159999968 0.6912805589999991 0.3139691519999985	-0.183784
C	0.4731358390000011 0.7326889870000031 0.3749196200000000	0.110119
C	0.5113541670000004 0.7800511519999986 0.4342743779999978	-0.180490
C	0.5893655010000032 0.7832213100000018 0.4315960059999995	0.107702
C	0.3906159799999998 0.7267089819999981 0.3761230499999968	0.060996
C	0.3466487589999971 0.7909358590000011 0.3791558659999978	-0.172010
C	0.2674358430000012 0.7863396280000003 0.3780144210000032	0.084431
C	0.2785686020000000 0.6484467009999975 0.3753348759999966	-0.122981
C	0.3555524519999977 0.6549089789999982 0.3730224820000032	-0.134502
C	0.9062040829999987 0.8005499069999971 0.3134343330000036	0.107196
C	0.9838688299999987 0.8087194410000009 0.3139691519999985	-0.183784
C	0.0268641669999994 0.7673110129999969 0.3749196200000000	0.110117
C	0.9886458869999970 0.7199488480000014 0.4342743779999978	-0.180471
C	0.9106346060000021 0.7167786899999982 0.4315960059999995	0.107725
C	0.1093840469999989 0.7732910180000019 0.3761230499999968	0.060996
C	0.1533512279999982 0.7090641409999989 0.3791558659999978	-0.172009
C	0.2325641300000001 0.7136603719999997 0.3780144210000032	0.084429
C	0.2214313850000025 0.8515532990000025 0.3753348759999966	-0.122982
C	0.1444475220000001 0.8450910210000018 0.3730224820000032	-0.134501
C	0.8005499069999971 0.9062040829999987 0.8134343010000009	0.107196
C	0.8087194410000009 0.9838688299999987 0.8139692150000002	-0.183785
C	0.7673110129999969 0.0268641669999994 0.8749196839999982	0.110119
C	0.7199488480000014 0.9886458869999970 0.9342743469999988	-0.180472
C	0.7167786899999982 0.9106346060000021 0.9315959739999968	0.107723
C	0.7732910180000019 0.1093840469999989 0.8761230499999968	0.060995
C	0.7090641409999989 0.1533512279999982 0.8791558980000005	-0.172008
C	0.7136603719999997 0.2325641300000001 0.8780144529999987	0.084427
C	0.8515532990000025 0.2214313850000025 0.8753349389999983	-0.122964
C	0.8450910210000018 0.1444475220000001 0.8730225139999988	-0.134514
C	0.6994500930000029 0.5937959170000013 0.8134343010000009	0.107173
C	0.6912805589999991 0.5161311159999968 0.8139692150000002	-0.183784
C	0.7326889870000031 0.4731358390000011 0.8749196839999982	0.110118
C	0.7800511519999986 0.5113541670000004 0.9342743469999988	-0.180490
C	0.7832213100000018 0.5893655010000032 0.9315959739999968	0.107703
C	0.7267089819999981 0.3906159799999998 0.8761230499999968	0.060996
C	0.7909358590000011 0.3466487589999971 0.8791558980000005	-0.172009
C	0.7863396280000003 0.2674358430000012 0.8780144529999987	0.084426
C	0.6484467009999975 0.2785686020000000 0.8753349389999983	-0.122964
C	0.6549089789999982 0.3555524519999977 0.8730225139999988	-0.134515
C	0.5937959170000013 0.8005499069999971 0.8134343010000009	0.107173
C	0.5161311159999968 0.8087194410000009 0.8139692150000002	-0.183782
C	0.4731358390000011 0.7673110129999969 0.8749196839999982	0.110119
C	0.5113541670000004 0.7199488480000014 0.9342743469999988	-0.180490
C	0.5893655010000032 0.7167786899999982 0.9315959739999968	0.107702
C	0.3906159799999998 0.7732910180000019 0.8761230499999968	0.060996
C	0.3466487589999971 0.7090641409999989 0.8791558980000005	-0.172010
C	0.2674358430000012 0.7136603719999997 0.8780144529999987	0.084428
C	0.2785686020000000 0.8515532990000025 0.8753349389999983	-0.122964
C	0.3555524519999977 0.8450910210000018 0.8730225139999988	-0.134515
C	0.9062040829999987 0.6994500930000029 0.8134343010000009	0.107197
C	0.9838688299999987 0.6912805589999991 0.8139692150000002	-0.183785
C	0.0268641669999994 0.7326889870000031 0.8749196839999982	0.110117
C	0.9886458869999970 0.7800511519999986 0.9342743469999988	-0.180470
C	0.9106346060000021 0.7832213100000018 0.9315959739999968	0.107725
C	0.1093840469999989 0.7267089819999981 0.8761230499999968	0.060996
C	0.1533512279999982 0.7909358590000011 0.8791558980000005	-0.172008
C	0.2325641300000001 0.7863396280000003 0.8780144529999987	0.084426
C	0.2214313850000025 0.6484467009999975 0.8753349389999983	-0.122964
C	0.1444475220000001 0.6549089789999982 0.8730225139999988	-0.134515
C	0.1994501060000005 0.4062040829999987 0.6865656989999991	0.107195
C	0.1912805719999966 0.4838688299999987 0.6860307849999998	-0.183786
C	0.2326889870000031 0.5268641609999989 0.6250803160000018	0.110118
C	0.2800511250000000 0.4886458869999970 0.5657256530000012	-0.180471
C	0.2832212839999997 0.4106345530000013 0.5684040260000032	0.107725
C	0.2267090619999976 0.6093840730000011 0.6238769500000032	0.060996
C	0.2909358859999998 0.6533511880000020 0.6208441019999995	-0.172011
C	0.2863396280000003 0.7325640769999993 0.6219855470000013	0.084428
C	0.1484467140000021 0.7214313710000013 0.6246650610000017	-0.122964
C	0.1549089259999974 0.6444475220000001 0.6269774860000012	-0.134514
C	0.3005498540000033 0.0937959299999989 0.6865656989999991	0.107198
C	0.3087193880000001 0.0161311510000033 0.6860307849999998	-0.183785
C	0.2673110129999969 0.9731358390000011 0.6250803160000018	0.110117
C	0.2199488879999976 0.0113541099999992 0.5657256530000012	-0.180472
C	0.2167787300000015 0.0893654540000028 0.5684040260000032	0.107726
C	0.2732909380000024 0.8906159269999989 0.6238769500000032	0.060995
C	0.2090641550000001 0.8466488119999980 0.6208441019999995	-0.172010
C	0.2136603450000010 0.7674359230000007 0.6219855470000013	0.084426
C	0.3515532719999968 0.7785686289999987 0.6246650610000017	-0.122964
C	0.3450910740000026 0.8555524779999999 0.6269774860000012	-0.134516
C	0.4062040829999987 0.3005498540000033 0.6865656989999991	0.107196
C	0.4838688299999987 0.3087193880000001 0.6860307849999998	-0.183784
C	0.5268641609999989 0.2673110129999969 0.6250803160000018	0.110117
C	0.4886458869999970 0.2199488879999976 0.5657256530000012	-0.180471
C	0.4106345530000013 0.2167787300000015 0.5684040260000032	0.107726
C	0.6093840730000011 0.2732909380000024 0.6238769500000032	0.060996
C	0.6533511880000020 0.2090641550000001 0.6208441019999995	-0.172011
C	0.7325640769999993 0.2136603450000010 0.6219855470000013	0.084428
C	0.7214313710000013 0.3515532719999968 0.6246650610000017	-0.122964
C	0.6444475220000001 0.3450910740000026 0.6269774860000012	-0.134514
C	0.0937959299999989 0.1994501060000005 0.6865656989999991	0.107198
C	0.0161311510000033 0.1912805719999966 0.6860307849999998	-0.183786
C	0.9731358390000011 0.2326889870000031 0.6250803160000018	0.110118
C	0.0113541099999992 0.2800511250000000 0.5657256530000012	-0.180470
C	0.0893654540000028 0.2832212839999997 0.5684040260000032	0.107726
C	0.8906159269999989 0.2267090619999976 0.6238769500000032	0.060995
C	0.8466488119999980 0.2909358859999998 0.6208441019999995	-0.172011
C	0.7674359230000007 0.2863396280000003 0.6219855470000013	0.084426
C	0.7785686289999987 0.1484467140000021 0.6246650610000017	-0.122964
C	0.8555524779999999 0.1549089259999974 0.6269774860000012	-0.134516
H	0.1709526309999987 0.1290283160000030 0.2355246990000026	0.104296
H	0.1548165689999976 0.9889266939999999 0.2346170240000021	0.112885
H	0.3122483020000004 0.9804664349999967 0.0160381359999988	0.113211
H	0.3165554690000008 0.1214478990000032 0.0207553569999988	0.103438
H	0.3463086590000017 0.8730793779999999 0.1200936139999982	0.107948
H	0.0931865279999968 0.7518232669999989 0.1250849349999967	0.108409
H	0.1048471750000033 0.8909325460000019 0.1291110339999975	0.097567
H	0.3290473420000026 0.3709717110000028 0.2355246990000026	0.104295
H	0.3451834709999986 0.5110733060000001 0.2346170240000021	0.112884
H	0.1877517109999971 0.5195335650000033 0.0160381359999988	0.113212
H	0.1834445309999992 0.3785521009999968 0.0207553569999988	0.103438
H	0.1536913549999994 0.6269206220000001 0.1200936139999982	0.107945
H	0.4068134649999990 0.7481767330000011 0.1250849349999967	0.108408
H	0.3951528380000013 0.6090674539999981 0.1291110339999975	0.097567
H	0.3709717110000028 0.1709526309999987 0.2355246990000026	0.104295
H	0.5110733060000001 0.1548165689999976 0.2346170240000021	0.112886
H	0.5195335650000033 0.3122483020000004 0.0160381359999988	0.113212
H	0.3785521009999968 0.3165554690000008 0.0207553569999988	0.103438
H	0.6269206220000001 0.3463086590000017 0.1200936139999982	0.107950
H	0.7481767330000011 0.0931865279999968 0.1250849349999967	0.108409
H	0.6090674539999981 0.1048471750000033 0.1291110339999975	0.097569
H	0.1290283160000030 0.3290473420000026 0.2355246990000026	0.104296
H	0.9889266939999999 0.3451834709999986 0.2346170240000021	0.112884
H	0.9804664349999967 0.1877517109999971 0.0160381359999988	0.113212
H	0.1214478990000032 0.1834445309999992 0.0207553569999988	0.103439
H	0.8730793779999999 0.1536913549999994 0.1200936139999982	0.107946
H	0.7518232669999989 0.4068134649999990 0.1250849349999967	0.108409
H	0.8909325460000019 0.3951528380000013 0.1291110339999975	0.097569
H	0.8290473420000026 0.6290283430000017 0.2644753169999987	0.104298
H	0.8451833900000025 0.4889267479999972 0.2653829759999979	0.112886
H	0.6877516979999996 0.4804664349999967 0.4839618660000014	0.113213
H	0.6834445840000001 0.6214479260000019 0.4792446410000011	0.103437
H	0.6536913409999983 0.3730793240000025 0.3799063940000025	0.107948
H	0.9068134119999982 0.2518232939999976 0.3749150570000026	0.108410
H	0.8951528110000027 0.3909325719999970 0.3708889740000032	0.097569
H	0.6709526579999974 0.8709716569999983 0.2644753169999987	0.104295
H	0.6548166099999975 0.0110732679999970 0.2653829759999979	0.112886
H	0.8122483020000004 0.0195335639999996 0.4839618660000014	0.113211
H	0.8165554159999999 0.8785520739999981 0.4792446410000011	0.103437
H	0.8463086590000017 0.1269206890000021 0.3799063940000025	0.107948
H	0.5931865350000010 0.2481766789999966 0.3749150570000026	0.108406
H	0.6048471889999973 0.1090674410000005 0.3708889740000032	0.097566
H	0.6290283430000017 0.6709526579999974 0.2644753169999987	0.104297
H	0.4889267479999972 0.6548166099999975 0.2653829759999979	0.112887
H	0.4804664349999967 0.8122483020000004 0.4839618660000014	0.113213
H	0.6214479260000019 0.8165554159999999 0.4792446410000011	0.103438
H	0.3730793240000025 0.8463086590000017 0.3799063940000025	0.107951
H	0.2518232939999976 0.5931865350000010 0.3749150570000026	0.108408
H	0.3909325719999970 0.6048471889999973 0.3708889740000032	0.097568
H	0.8709716569999983 0.8290473420000026 0.2644753169999987	0.104296
H	0.0110732679999970 0.8451833900000025 0.2653829759999979	0.112886
H	0.0195335639999996 0.6877516979999996 0.4839618660000014	0.113212
H	0.8785520739999981 0.6834445840000001 0.4792446410000011	0.103437
H	0.1269206890000021 0.6536913409999983 0.3799063940000025	0.107948
H	0.2481766789999966 0.9068134119999982 0.3749150570000026	0.108407
H	0.1090674410000005 0.8951528110000027 0.3708889740000032	0.097570
H	0.8290473420000026 0.8709716569999983 0.7644752859999997	0.104295
H	0.8451833900000025 0.0110732679999970 0.7653829910000027	0.112884
H	0.6877516979999996 0.0195335639999996 0.9839618970000004	0.113210
H	0.6834445840000001 0.8785520739999981 0.9792445770000029	0.103438
H	0.6536913409999983 0.1269206890000021 0.8799063619999998	0.107948
H	0.9068134119999982 0.2481766789999966 0.8749149940000009	0.108406
H	0.8951528110000027 0.1090674410000005 0.8708889420000006	0.097569
H	0.6709526579999974 0.6290283430000017 0.7644752859999997	0.104297
H	0.6548166099999975 0.4889267479999972 0.7653829910000027	0.112885
H	0.8122483020000004 0.4804664349999967 0.9839618970000004	0.113211
H	0.8165554159999999 0.6214479260000019 0.9792445770000029	0.103438
H	0.8463086590000017 0.3730793240000025 0.8799063619999998	0.107945
H	0.5931865350000010 0.2518232939999976 0.8749149940000009	0.108402
H	0.6048471889999973 0.3909325719999970 0.8708889420000006	0.097568
H	0.6290283430000017 0.8290473420000026 0.7644752859999997	0.104298
H	0.4889267479999972 0.8451833900000025 0.7653829910000027	0.112884
H	0.4804664349999967 0.6877516979999996 0.9839618970000004	0.113212
H	0.6214479260000019 0.6834445840000001 0.9792445770000029	0.103437
H	0.3730793240000025 0.6536913409999983 0.8799063619999998	0.107948
H	0.2518232939999976 0.9068134119999982 0.8749149940000009	0.108407
H	0.3909325719999970 0.8951528110000027 0.8708889420000006	0.097570
H	0.8709716569999983 0.6709526579999974 0.7644752859999997	0.104294
H	0.0110732679999970 0.6548166099999975 0.7653829910000027	0.112885
H	0.0195335639999996 0.8122483020000004 0.9839618970000004	0.113210
H	0.8785520739999981 0.8165554159999999 0.9792445770000029	0.103438
H	0.1269206890000021 0.8463086590000017 0.8799063619999998	0.107947
H	0.2481766789999966 0.5931865350000010 0.8749149940000009	0.108402
H	0.1090674410000005 0.6048471889999973 0.8708889420000006	0.097570
H	0.1709526309999987 0.3709717110000028 0.7355247140000003	0.104296
H	0.1548165689999976 0.5110733060000001 0.7346170089999973	0.112885
H	0.3122483020000004 0.5195335650000033 0.5160381339999986	0.113209
H	0.3165554690000008 0.3785521009999968 0.5207553589999989	0.103438
H	0.3463086590000017 0.6269206220000001 0.6200936380000002	0.107950
H	0.0931865279999968 0.7481767330000011 0.6250850059999991	0.108404
H	0.1048471750000033 0.6090674539999981 0.6291110579999994	0.097567
H	0.3290473420000026 0.1290283160000030 0.7355247140000003	0.104296
H	0.3451834709999986 0.9889266939999999 0.7346170089999973	0.112884
H	0.1877517109999971 0.9804664349999967 0.5160381339999986	0.113210
H	0.1834445309999992 0.1214478990000032 0.5207553589999989	0.103439
H	0.1536913549999994 0.8730793779999999 0.6200936380000002	0.107945
H	0.4068134649999990 0.7518232669999989 0.6250850059999991	0.108403
H	0.3951528380000013 0.8909325460000019 0.6291110579999994	0.097570
H	0.3709717110000028 0.3290473420000026 0.7355247140000003	0.104296
H	0.5110733060000001 0.3451834709999986 0.7346170089999973	0.112885
H	0.5195335650000033 0.1877517109999971 0.5160381339999986	0.113211
H	0.3785521009999968 0.1834445309999992 0.5207553589999989	0.103438
H	0.6269206220000001 0.1536913549999994 0.6200936380000002	0.107951
H	0.7481767330000011 0.4068134649999990 0.6250850059999991	0.108405
H	0.6090674539999981 0.3951528380000013 0.6291110579999994	0.097571
H	0.1290283160000030 0.1709526309999987 0.7355247140000003	0.104296
H	0.9889266939999999 0.1548165689999976 0.7346170089999973	0.112886
H	0.9804664349999967 0.3122483020000004 0.5160381339999986	0.113210
H	0.1214478990000032 0.3165554690000008 0.5207553589999989	0.103439
H	0.8730793779999999 0.3463086590000017 0.6200936380000002	0.107948
H	0.7518232669999989 0.0931865279999968 0.6250850059999991	0.108401
H	0.8909325460000019 0.1048471750000033 0.6291110579999994	0.097569
F	0.3024472629999977 0.1693909529999971 0.3785962979999979	-0.564669
F	0.1975527640000010 0.3306090470000029 0.3785962979999979	-0.564668
F	0.3306090470000029 0.3024472629999977 0.3785962979999979	-0.564668
F	0.1693909529999971 0.1975527640000010 0.3785962979999979	-0.564668
F	0.6975527370000023 0.6693908989999997 0.1214037020000021	-0.564668
F	0.8024472629999977 0.8306091010000003 0.1214037020000021	-0.564668
F	0.6693908989999997 0.8024472629999977 0.1214037020000021	-0.564667
F	0.8306091010000003 0.6975527370000023 0.1214037020000021	-0.564669
F	0.6975527370000023 0.8306091010000003 0.6214036699999994	-0.564668
F	0.8024472629999977 0.6693908989999997 0.6214036699999994	-0.564668
F	0.6693908989999997 0.6975527370000023 0.6214036699999994	-0.564668
F	0.8306091010000003 0.8024472629999977 0.6214036699999994	-0.564668
F	0.3024472629999977 0.3306090470000029 0.8785963300000006	-0.564668
F	0.1975527640000010 0.1693909529999971 0.8785963300000006	-0.564669
F	0.3306090470000029 0.1975527640000010 0.8785963300000006	-0.564669
F	0.1693909529999971 0.3024472629999977 0.8785963300000006	-0.564667
F	0.2500000000000000 0.2500000000000000 0.2635084160000005	-0.496150
F	0.2500000000000000 0.2500000000000000 0.4937738610000011	-0.496632
F	0.7500000000000000 0.7500000000000000 0.2364916000000008	-0.496151
F	0.7500000000000000 0.7500000000000000 0.0062261460000030	-0.496630
F	0.7500000000000000 0.7500000000000000 0.7364915519999968	-0.496152
F	0.7500000000000000 0.7500000000000000 0.5062261710000016	-0.496629
F	0.2500000000000000 0.2500000000000000 0.7635084480000032	-0.496151
F	0.2500000000000000 0.2500000000000000 0.9937738289999984	-0.496631
Zn	0.2500000000000000 0.2500000000000000 0.1287018080000024	0.738424
Zn	0.7500000000000000 0.7500000000000000 0.3712982079999989	0.738406
Zn	0.7500000000000000 0.7500000000000000 0.8712981769999999	0.738408
Zn	0.2500000000000000 0.2500000000000000 0.6287018230000001	0.738426
Si	0.2500000000000000 0.2500000000000000 0.3787231190000000	1.750832
Si	0.7500000000000000 0.7500000000000000 0.1212768890000007	1.750833
Si	0.7500000000000000 0.7500000000000000 0.6212768500000010	1.750833
Si	0.2500000000000000 0.2500000000000000 0.8787231499999990	1.750832
	  	
