#======================================================================

# CRYSTAL DATA

#----------------------------------------------------------------------

data_VESTA_phase_1


_pd_phase_name                         SIFSIX_1_Cu
_cell_length_a                         11.13048
_cell_length_b                         11.13048
_cell_length_c                         7.84513
_cell_angle_alpha                      90
_cell_angle_beta                       90
_cell_angle_gamma                      90
_symmetry_space_group_name_H-M         P 1
_symmetry_Int_Tables_number            1

loop_
_symmetry_equiv_pos_as_xyz
   x, y, z

loop_
   _atom_site_label
   _atom_site_fract_x
   _atom_site_fract_y
   _atom_site_fract_z
   _atom_site_charge
C	0.2563037404429469 0.4577547883782627 0.3643029312389358	0.103216
C	0.1314634584538083 0.4567698415479539 0.3598928651911807	-0.168994
C	0.7436963465570565 0.5422452546217373 0.3643029312389358	0.103216
C	0.8685365855461953 0.5432301584520463 0.3598928651911807	-0.168995
C	0.5422452546217373 0.2563037404429469 0.3643029312389358	0.103217
C	0.5432301584520463 0.1314634584538083 0.3598928651911807	-0.168994
C	0.4577547883782627 0.7436963465570565 0.3643029312389358	0.103217
C	0.4567698415479539 0.8685365855461953 0.3598928651911807	-0.168995
C	0.7436963465570565 0.4577547883782627 0.6356970387610618	0.103217
C	0.8685365855461953 0.4567698415479539 0.6401071058088130	-0.168993
C	0.2563037404429469 0.5422452546217373 0.6356970387610618	0.103217
C	0.1314634584538083 0.5432301584520463 0.6401071058088130	-0.168993
C	0.4577547883782627 0.2563037404429469 0.6356970387610618	0.103217
C	0.4567698415479539 0.1314634584538083 0.6401071058088130	-0.168993
C	0.5422452546217373 0.7436963465570565 0.6356970387610618	0.103217
C	0.5432301584520463 0.8685365855461953 0.6401071058088130	-0.168993
C	0.0663466601413411 0.5000000000000000 0.5000000000000000	0.098549
C	0.9336534158586582 0.5000000000000000 0.5000000000000000	0.098550
C	0.5000000000000000 0.0663466601413411 0.5000000000000000	0.098549
C	0.5000000000000000 0.9336534158586582 0.5000000000000000	0.098550
H	0.3091606508174687 0.4255637162396955 0.2565826962753989	0.109974
H	0.0861763963831707 0.4202992010316099 0.2481179469405122	0.122680
H	0.6908393061825311 0.5744362837603045 0.2565826962753989	0.109975
H	0.9138236196168306 0.5797007989683897 0.2481179469405122	0.122679
H	0.5744362837603045 0.3091606508174687 0.2565826962753989	0.109974
H	0.5797007989683897 0.0861763963831707 0.2481179469405122	0.122680
H	0.4255637162396955 0.6908393061825311 0.2565826962753989	0.109974
H	0.4202992010316099 0.9138236196168306 0.2481179469405122	0.122680
H	0.6908393061825311 0.4255637162396955 0.7434172747246023	0.109974
H	0.9138236196168306 0.4202992010316099 0.7518821120594890	0.122678
H	0.3091606508174687 0.5744362837603045 0.7434172747246023	0.109974
H	0.0861763963831707 0.5797007989683897 0.7518821120594890	0.122678
H	0.4255637162396955 0.3091606508174687 0.7434172747246023	0.109974
H	0.4202992010316099 0.0861763963831707 0.7518821120594890	0.122678
H	0.5744362837603045 0.6908393061825311 0.7434172747246023	0.109974
H	0.5797007989683897 0.9138236196168306 0.7518821120594890	0.122678
Cu	0.5000000000000000 0.5000000000000000 0.5000000000000000	0.708689
Si	0.5000000000000000 0.5000000000000000 0.0000000000000000	1.730491
F	0.5000000000000000 0.5000000000000000 0.7803361902847795	-0.532794
F	0.5000000000000000 0.5000000000000000 0.2196638097152208	-0.532794
F	0.3908375454482440 0.3908375454482440 0.0000000000000000	-0.550694
F	0.6091624545517560 0.6091624545517560 0.0000000000000000	-0.550694
F	0.6091624545517560 0.3908375454482440 0.0000000000000000	-0.550694
F	0.3908375454482440 0.6091624545517560 0.0000000000000000	-0.550694
N	0.3172318627056379 0.5000000000000000 0.5000000000000000	-0.225007
N	0.6827681592943641 0.5000000000000000 0.5000000000000000	-0.225006
N	0.5000000000000000 0.3172318627056379 0.5000000000000000	-0.225007
N	0.5000000000000000 0.6827681592943641 0.5000000000000000	-0.225006
	  	
