#======================================================================

# CRYSTAL DATA

#----------------------------------------------------------------------

data_VESTA_phase_1


_pd_phase_name                         SIFSIX_7_Fe
_cell_length_a                         19.42145
_cell_length_b                         19.42145
_cell_length_c                         7.73695
_cell_angle_alpha                      90
_cell_angle_beta                       90
_cell_angle_gamma                      90
_symmetry_space_group_name_H-M         P 1
_symmetry_Int_Tables_number            1

loop_
_symmetry_equiv_pos_as_xyz
   x, y, z

loop_
   _atom_site_label
   _atom_site_fract_x
   _atom_site_fract_y
   _atom_site_fract_z
   _atom_site_charge
C	0.6639860432783415 0.8739091511649275 0.7011239611576258	0.104188
C	0.6136168777246928 0.9246828750011635 0.7060081885487902	-0.179343
C	0.5778137201559091 0.8889459988741296 0.4235730227786513	-0.175351
C	0.6286970119566033 0.8388191663065250 0.4289899581020023	0.100964
C	0.8360139567216585 0.6260908488350725 0.7011239611576258	0.104189
C	0.8863831722753043 0.5753171759988371 0.7060081885487902	-0.179376
C	0.9221861788440932 0.6110540521258639 0.4235730227786513	-0.175400
C	0.8713029880433967 0.6611808336934750 0.4289899581020023	0.100969
C	0.6260908488350725 0.6639860432783415 0.7011239611576258	0.104190
C	0.5753171759988371 0.6136168777246928 0.7060081885487902	-0.179376
C	0.6110540521258639 0.5778137201559091 0.4235730227786513	-0.175400
C	0.6611808336934750 0.6286970119566033 0.4289899581020023	0.100970
C	0.8739091511649275 0.8360139567216585 0.7011239611576258	0.104189
C	0.9246828750011635 0.8863831722753043 0.7060081885487902	-0.179342
C	0.8889459988741296 0.9221861788440932 0.4235730227786513	-0.175350
C	0.8388191663065250 0.8713029880433967 0.4289899581020023	0.100964
C	0.3360139317216601 0.3739091011649235 0.2988760688423768	0.104189
C	0.3863831222753072 0.4246828750011632 0.2939918414512124	-0.179364
C	0.4221862798440906 0.3889459478741362 0.5764269772213488	-0.175388
C	0.3713029370434033 0.3388191663065250 0.5710100718979999	0.100968
C	0.1639860682783401 0.1260908858350791 0.2988760688423768	0.104187
C	0.1136168777246928 0.0753171249988368 0.2939918414512124	-0.179364
C	0.0778137011559042 0.1110540521258637 0.5764269772213488	-0.175388
C	0.1286970629565966 0.1611808216934740 0.5710100718979999	0.100968
C	0.3739091011649235 0.1639860682783401 0.2988760688423768	0.104188
C	0.4246828750011632 0.1136168777246928 0.2939918414512124	-0.179364
C	0.3889459478741362 0.0778137011559042 0.5764269772213488	-0.175387
C	0.3388191663065250 0.1286970629565966 0.5710100718979999	0.100968
C	0.1260908858350791 0.3360139317216601 0.2988760688423768	0.104189
C	0.0753171249988368 0.3863831222753072 0.2939918414512124	-0.179364
C	0.1110540521258637 0.4221862798440906 0.5764269772213488	-0.175387
C	0.1611808216934740 0.3713029370434033 0.5710100718979999	0.100968
C	0.4337735058659293 0.0691986082738036 0.4354085437380649	0.137983
C	0.4871685434105351 0.0165325371326335 0.4300611479855496	-0.122661
C	0.0662264941340708 0.4308013847261993 0.4354085437380649	0.137983
C	0.0128314245894623 0.4834673988673682 0.4300611479855496	-0.122677
C	0.4308013847261993 0.4337735058659293 0.4354085437380649	0.137983
C	0.4834673988673682 0.4871685434105351 0.4300611479855496	-0.122677
C	0.0691986082738036 0.0662264941340708 0.4354085437380649	0.137983
C	0.0165325371326335 0.0128314245894623 0.4300611479855496	-0.122661
C	0.5662264941340708 0.5691986152738008 0.5645914562619353	0.138033
C	0.5128315075894587 0.5165325511326274 0.5699388810144492	-0.122653
C	0.9337734558659322 0.9308013347261951 0.5645914562619353	0.137929
C	0.9871685434105348 0.9834674998673733 0.5699388810144492	-0.122648
C	0.5691986152738008 0.9337734558659322 0.5645914562619353	0.137930
C	0.5165325511326274 0.9871685434105348 0.5699388810144492	-0.122648
C	0.9308013347261951 0.5662264941340708 0.5645914562619353	0.138034
C	0.9834674998673733 0.5128315075894587 0.5699388810144492	-0.122653
H	0.6982187619608978 0.8656906969763437 0.8107587674506710	0.103581
H	0.6089409412256649 0.9575826141423519 0.8195953314653565	0.113654
H	0.5441059168699791 0.8918256940552866 0.3113267526951111	0.114937
H	0.6364725066106440 0.8039529474830479 0.3204717099812064	0.103668
H	0.8017812380391022 0.6343093030236563 0.8107587674506710	0.103581
H	0.8910590587743351 0.5424174368576488 0.8195953314653565	0.113659
H	0.9558941341300216 0.6081743569447141 0.3113267526951111	0.114943
H	0.8635274933893560 0.6960470525169521 0.3204717099812064	0.103668
H	0.6343093030236563 0.6982187619608978 0.8107587674506710	0.103581
H	0.5424174368576488 0.6089409412256649 0.8195953314653565	0.113658
H	0.6081743569447141 0.5441059168699791 0.3113267526951111	0.114942
H	0.6960470525169521 0.6364725066106440 0.3204717099812064	0.103668
H	0.8656906969763437 0.8017812380391022 0.8107587674506710	0.103581
H	0.9575826141423519 0.8910590587743351 0.8195953314653565	0.113654
H	0.8918256940552866 0.9558941341300216 0.3113267526951111	0.114936
H	0.8039529474830479 0.8635274933893560 0.3204717099812064	0.103668
H	0.3017812640391047 0.3656906209763445 0.1892412175493314	0.103581
H	0.3910589827743285 0.4575825631423516 0.1804046245346397	0.113656
H	0.4558941341300214 0.3918256940552865 0.6886732173048928	0.114941
H	0.3635275183893619 0.3039529734830496 0.6795282900187934	0.103673
H	0.1982187489608928 0.1343094050236577 0.1892412175493314	0.103581
H	0.1089409922256658 0.0424174528576498 0.1804046245346397	0.113656
H	0.0441058598699781 0.1081743319447156 0.6886732173048928	0.114940
H	0.1364725066106437 0.1960470145169494 0.6795282900187934	0.103668
H	0.3656906209763445 0.1982187489608928 0.1892412175493314	0.103581
H	0.4575825631423516 0.1089409922256658 0.1804046245346397	0.113655
H	0.3918256940552865 0.0441058598699781 0.6886732173048928	0.114940
H	0.3039529734830496 0.1364725066106437 0.6795282900187934	0.103669
H	0.1343094050236577 0.3017812640391047 0.1892412175493314	0.103581
H	0.0424174528576498 0.3910589827743285 0.1804046245346397	0.113655
H	0.1081743319447156 0.4558941341300214 0.6886732173048928	0.114940
H	0.1960470145169494 0.3635275183893619 0.6795282900187934	0.103673
H	0.5057070728919688 0.0021874116170867 0.3013677669238057	0.100483
H	0.9942929781080319 0.4978125603829112 0.3013677669238057	0.100485
H	0.4978125603829112 0.5057070728919688 0.3013677669238057	0.100485
H	0.0021874116170867 0.9942929781080319 0.3013677669238057	0.100483
H	0.4942929271080311 0.5021873896170920 0.6986322630761896	0.100466
H	0.0057070638919718 0.9978125603829110 0.6986322630761896	0.100483
H	0.5021873896170920 0.0057070638919718 0.6986322630761896	0.100483
H	0.9978125603829110 0.4942929271080311 0.6986322630761896	0.100466
Fe	0.2500000000000000 0.2500000000000000 0.4348757511477838	0.805053
Fe	0.7500000000000000 0.7500000000000000 0.5651242488522160	0.805056
Si	0.2500000000000000 0.2500000000000000 0.9352665765149614	1.731219
Si	0.7500000000000000 0.7500000000000000 0.0647334084850407	1.731219
F	0.2500000000000000 0.2500000000000000 0.1668716062324335	-0.482315
F	0.2500000000000000 0.2500000000000000 0.7035375053990455	-0.481797
F	0.7500000000000000 0.7500000000000000 0.8331284237675690	-0.482315
F	0.7500000000000000 0.7500000000000000 0.2964624946009542	-0.481793
F	0.3125804539999502 0.3105760715070323 0.9353919840082004	-0.541556
F	0.1874195710000483 0.1894239534929661 0.9353919840082004	-0.541553
F	0.1894239534929661 0.3125804539999502 0.9353919840082004	-0.541556
F	0.3105760715070323 0.1874195710000483 0.9353919840082004	-0.541554
F	0.6874195710000485 0.8105760715070324 0.0646080159917994	-0.541554
F	0.8125804289999515 0.6894239284929676 0.0646080159917994	-0.541554
F	0.8105760715070324 0.8125804289999515 0.0646080159917994	-0.541554
F	0.6894239284929676 0.6874195710000485 0.0646080159917994	-0.541554
N	0.3312198335530860 0.1715658156357108 0.4349389596391876	-0.253547
N	0.1687801914469124 0.3284342093642876 0.4349389596391876	-0.253550
N	0.3284342093642876 0.3312198335530860 0.4349389596391876	-0.253550
N	0.1715658156357108 0.1687801914469124 0.4349389596391876	-0.253546
N	0.6687801664469140 0.6715657906357123 0.5650610403608127	-0.253547
N	0.8312198335530860 0.8284342093642877 0.5650610403608127	-0.253546
N	0.6715657906357123 0.8312198335530860 0.5650610403608127	-0.253546
N	0.8284342093642877 0.6687801664469140 0.5650610403608127	-0.253547
	  	
