#======================================================================

# CRYSTAL DATA

#----------------------------------------------------------------------

data_VESTA_phase_1


_pd_phase_name                         SIFSIX_5_Zn_i
_cell_length_a                         19.91880
_cell_length_b                         19.91880
_cell_length_c                         15.28920
_cell_angle_alpha                      90
_cell_angle_beta                       90
_cell_angle_gamma                      90
_symmetry_space_group_name_H-M         P 1
_symmetry_Int_Tables_number            1

loop_
_symmetry_equiv_pos_as_xyz
   x, y, z

loop_
   _atom_site_label
   _atom_site_fract_x
   _atom_site_fract_y
   _atom_site_fract_z
   _atom_site_charge
F	0.3178589959999982 0.1975409949999971 0.3512374530000031	-0.553783
F	0.1821409920000008 0.3024590050000029 0.3512374530000031	-0.553786
F	0.3024590050000029 0.3178589959999982 0.3512374530000031	-0.553786
F	0.1975409949999971 0.1821409920000008 0.3512374530000031	-0.553784
F	0.6821410279999967 0.6975410189999991 0.1487625469999969	-0.553784
F	0.8178589720000033 0.8024589810000009 0.1487625469999969	-0.553785
F	0.6975410189999991 0.8178589720000033 0.1487625469999969	-0.553786
F	0.8024589810000009 0.6821410279999967 0.1487625469999969	-0.553783
F	0.6821410279999967 0.8024589810000009 0.6487625789999996	-0.553787
F	0.8178589720000033 0.6975410189999991 0.6487625789999996	-0.553783
F	0.6975410189999991 0.6821410279999967 0.6487625789999996	-0.553784
F	0.8024589810000009 0.8178589720000033 0.6487625789999996	-0.553786
F	0.3178589959999982 0.3024590050000029 0.8512374210000004	-0.553786
F	0.1821409920000008 0.1975409949999971 0.8512374210000004	-0.553784
F	0.3024590050000029 0.1821409920000008 0.8512374210000004	-0.553784
F	0.1975409949999971 0.3178589959999982 0.8512374210000004	-0.553786
F	0.2500000000000000 0.2500000000000000 0.4652223430000006	-0.498753
F	0.2500000000000000 0.2500000000000000 0.2370551579999969	-0.500605
F	0.7500000000000000 0.7500000000000000 0.0347776839999980	-0.498753
F	0.7500000000000000 0.7500000000000000 0.2629448260000018	-0.500608
F	0.7500000000000000 0.7500000000000000 0.5347776879999984	-0.498751
F	0.7500000000000000 0.7500000000000000 0.7629448260000018	-0.500610
F	0.2500000000000000 0.2500000000000000 0.9652223120000016	-0.498751
F	0.2500000000000000 0.2500000000000000 0.7370551739999982	-0.500606
N	0.3571691180000016 0.2479492610000023 0.6013871230000021	-0.233150
N	0.1428308819999984 0.2520507389999977 0.6013871230000021	-0.233153
N	0.2520507389999977 0.3571691180000016 0.6013871230000021	-0.233151
N	0.2479492610000023 0.1428308819999984 0.6013871230000021	-0.233152
N	0.6428309060000004 0.7479492370000003 0.8986128769999979	-0.233153
N	0.8571690939999996 0.7520507629999997 0.8986128769999979	-0.233153
N	0.7479492370000003 0.8571690939999996 0.8986128769999979	-0.233154
N	0.7520507629999997 0.6428309060000004 0.8986128769999979	-0.233153
N	0.6428309060000004 0.7520507629999997 0.3986129079999969	-0.233151
N	0.8571690939999996 0.7479492370000003 0.3986129079999969	-0.233151
N	0.7479492370000003 0.6428309060000004 0.3986129079999969	-0.233151
N	0.7520507629999997 0.8571690939999996 0.3986129079999969	-0.233152
N	0.3571691180000016 0.2520507389999977 0.1013871230000021	-0.233148
N	0.1428308819999984 0.2479492610000023 0.1013871230000021	-0.233151
N	0.2520507389999977 0.1428308819999984 0.1013871230000021	-0.233151
N	0.2479492610000023 0.3571691180000016 0.1013871230000021	-0.233149
C	0.3901662740000020 0.2176636100000024 0.6673016299999972	0.104855
C	0.4598019780000016 0.2155640360000035 0.6707717769999988	-0.180227
C	0.4975863210000000 0.2470491770000010 0.6049986749999974	0.106094
C	0.4622306429999981 0.2784766010000013 0.5368887930000028	-0.183156
C	0.3925029649999985 0.2773828500000022 0.5368605370000026	0.105976
C	0.5714222040000010 0.2477344320000014 0.6080811570000009	0.054939
C	0.6074482719999992 0.1915409710000020 0.6379587360000016	-0.131416
C	0.6771488739999967 0.1923023769999972 0.6401828030000019	-0.124271
C	0.7131230430000031 0.2498403029999992 0.6152795599999976	0.066781
C	0.6770852439999970 0.3064731770000009 0.5871621610000020	-0.117271
C	0.6074564589999980 0.3050486830000025 0.5821783439999990	-0.127228
C	0.1098337020000031 0.2823364139999995 0.6673016299999972	0.104860
C	0.0401979620000006 0.2844359879999985 0.6707717769999988	-0.180228
C	0.0024136580000018 0.2529508229999990 0.6049986749999974	0.106091
C	0.0377693840000006 0.2215233989999987 0.5368887930000028	-0.183152
C	0.1074969989999985 0.2226171739999998 0.5368605370000026	0.105974
C	0.9285777480000021 0.2522655439999966 0.6080811570000009	0.054939
C	0.8925517759999977 0.3084590639999973 0.6379587360000016	-0.131413
C	0.8228511260000033 0.3076976349999967 0.6401828030000019	-0.124270
C	0.7868769569999969 0.2501596729999989 0.6152795599999976	0.066780
C	0.8229148030000033 0.1935268229999991 0.5871621610000020	-0.117268
C	0.8925436370000028 0.1949513519999968 0.5821783439999990	-0.127227
C	0.2823364139999995 0.3901662740000020 0.6673016299999972	0.104857
C	0.2844359879999985 0.4598019780000016 0.6707717769999988	-0.180229
C	0.2529508229999990 0.4975863210000000 0.6049986749999974	0.106093
C	0.2215233989999987 0.4622306429999981 0.5368887930000028	-0.183154
C	0.2226171739999998 0.3925029649999985 0.5368605370000026	0.105977
C	0.2522655439999966 0.5714222040000010 0.6080811570000009	0.054938
C	0.3084590639999973 0.6074482719999992 0.6379587360000016	-0.131416
C	0.3076976349999967 0.6771488739999967 0.6401828030000019	-0.124272
C	0.2501596729999989 0.7131230430000031 0.6152795599999976	0.066779
C	0.1935268229999991 0.6770852439999970 0.5871621610000020	-0.117270
C	0.1949513519999968 0.6074564589999980 0.5821783439999990	-0.127228
C	0.2176636100000024 0.1098337020000031 0.6673016299999972	0.104860
C	0.2155640360000035 0.0401979620000006 0.6707717769999988	-0.180226
C	0.2470491770000010 0.0024136580000018 0.6049986749999974	0.106093
C	0.2784766010000013 0.0377693840000006 0.5368887930000028	-0.183154
C	0.2773828500000022 0.1074969989999985 0.5368605370000026	0.105974
C	0.2477344320000014 0.9285777480000021 0.6080811570000009	0.054939
C	0.1915409710000020 0.8925517759999977 0.6379587360000016	-0.131413
C	0.1923023769999972 0.8228511260000033 0.6401828030000019	-0.124269
C	0.2498403029999992 0.7868769569999969 0.6152795599999976	0.066782
C	0.3064731770000009 0.8229148030000033 0.5871621610000020	-0.117268
C	0.3050486830000025 0.8925436370000028 0.5821783439999990	-0.127226
C	0.6098337020000031 0.7176636579999993 0.8326983700000028	0.104859
C	0.5401979740000016 0.7155640599999984 0.8292282230000012	-0.180228
C	0.5024136790000000 0.7470492249999978 0.8950013250000026	0.106109
C	0.5377694530000028 0.7784765529999973 0.9631112069999972	-0.183157
C	0.6074970589999964 0.7773828739999971 0.9631394629999974	0.105975
C	0.4285777959999990 0.7477345040000003 0.8919188429999991	0.054903
C	0.3925517280000008 0.6915409360000027 0.8620412639999984	-0.131522
C	0.3228510539999974 0.6923023410000013 0.8598171969999981	-0.124238
C	0.2868770050000009 0.7498403270000011 0.8847204400000024	0.066781
C	0.3229147079999990 0.8064731770000009 0.9128378389999980	-0.117306
C	0.3925435649999969 0.8050486120000002 0.9178216560000010	-0.127089
C	0.8901662979999969 0.7823363420000007 0.8326983700000028	0.104862
C	0.9598020259999984 0.7844359400000016 0.8292282230000012	-0.180234
C	0.9975863689999969 0.7529507750000022 0.8950013250000026	0.106111
C	0.9622305950000012 0.7215234470000027 0.9631112069999972	-0.183154
C	0.8925029410000036 0.7226171260000029 0.9631394629999974	0.105976
C	0.0714222399999969 0.7522654959999997 0.8919188429999991	0.054902
C	0.1074482599999982 0.8084590639999973 0.8620412639999984	-0.131523
C	0.1771489220000007 0.8076976110000018 0.8598171969999981	-0.124239
C	0.2131229949999991 0.7501596729999989 0.8847204400000024	0.066782
C	0.1770852679999990 0.6935268229999991 0.9128378389999980	-0.117307
C	0.1074564350000031 0.6949513409999994 0.9178216560000010	-0.127092
C	0.7176636579999993 0.8901662979999969 0.8326983700000028	0.104863
C	0.7155640599999984 0.9598020259999984 0.8292282230000012	-0.180230
C	0.7470492249999978 0.9975863689999969 0.8950013250000026	0.106109
C	0.7784765529999973 0.9622305950000012 0.9631112069999972	-0.183157
C	0.7773828739999971 0.8925029410000036 0.9631394629999974	0.105977
C	0.7477345040000003 0.0714222399999969 0.8919188429999991	0.054902
C	0.6915409360000027 0.1074482599999982 0.8620412639999984	-0.131524
C	0.6923023410000013 0.1771489220000007 0.8598171969999981	-0.124238
C	0.7498403270000011 0.2131229949999991 0.8847204400000024	0.066781
C	0.8064731770000009 0.1770852679999990 0.9128378389999980	-0.117306
C	0.8050486120000002 0.1074564350000031 0.9178216560000010	-0.127092
C	0.7823363420000007 0.6098337020000031 0.8326983700000028	0.104859
C	0.7844359400000016 0.5401979740000016 0.8292282230000012	-0.180232
C	0.7529507750000022 0.5024136790000000 0.8950013250000026	0.106110
C	0.7215234470000027 0.5377694530000028 0.9631112069999972	-0.183154
C	0.7226171260000029 0.6074970589999964 0.9631394629999974	0.105976
C	0.7522654959999997 0.4285777959999990 0.8919188429999991	0.054903
C	0.8084590639999973 0.3925517280000008 0.8620412639999984	-0.131521
C	0.8076976110000018 0.3228510539999974 0.8598171969999981	-0.124239
C	0.7501596729999989 0.2868770050000009 0.8847204400000024	0.066782
C	0.6935268229999991 0.3229147079999990 0.9128378389999980	-0.117306
C	0.6949513409999994 0.3925435649999969 0.9178216560000010	-0.127089
C	0.6098337020000031 0.7823363420000007 0.3326984010000018	0.104861
C	0.5401979740000016 0.7844359400000016 0.3292282230000012	-0.180231
C	0.5024136790000000 0.7529507750000022 0.3950013250000026	0.106109
C	0.5377694530000028 0.7215234470000027 0.4631112380000033	-0.183153
C	0.6074970589999964 0.7226171260000029 0.4631394629999974	0.105975
C	0.4285777959999990 0.7522654959999997 0.3919188429999991	0.054897
C	0.3925517280000008 0.8084590639999973 0.3620412329999994	-0.131520
C	0.3228510539999974 0.8076976110000018 0.3598172279999972	-0.124240
C	0.2868770050000009 0.7501596729999989 0.3847203460000017	0.066782
C	0.3229147079999990 0.6935268229999991 0.4128378699999971	-0.117310
C	0.3925435649999969 0.6949513409999994 0.4178216560000010	-0.127075
C	0.8901662979999969 0.7176636579999993 0.3326984010000018	0.104861
C	0.9598020259999984 0.7155640599999984 0.3292282230000012	-0.180229
C	0.9975863689999969 0.7470492249999978 0.3950013250000026	0.106111
C	0.9622305950000012 0.7784765529999973 0.4631112380000033	-0.183158
C	0.8925029410000036 0.7773828739999971 0.4631394629999974	0.105977
C	0.0714222399999969 0.7477345040000003 0.3919188429999991	0.054897
C	0.1074482599999982 0.6915409360000027 0.3620412329999994	-0.131523
C	0.1771489220000007 0.6923023410000013 0.3598172279999972	-0.124240
C	0.2131229949999991 0.7498403270000011 0.3847203460000017	0.066783
C	0.1770852679999990 0.8064731770000009 0.4128378699999971	-0.117313
C	0.1074564350000031 0.8050486120000002 0.4178216560000010	-0.127076
C	0.7176636579999993 0.6098337020000031 0.3326984010000018	0.104861
C	0.7155640599999984 0.5401979740000016 0.3292282230000012	-0.180229
C	0.7470492249999978 0.5024136790000000 0.3950013250000026	0.106110
C	0.7784765529999973 0.5377694530000028 0.4631112380000033	-0.183155
C	0.7773828739999971 0.6074970589999964 0.4631394629999974	0.105974
C	0.7477345040000003 0.4285777959999990 0.3919188429999991	0.054897
C	0.6915409360000027 0.3925517280000008 0.3620412329999994	-0.131520
C	0.6923023410000013 0.3228510539999974 0.3598172279999972	-0.124239
C	0.7498403270000011 0.2868770050000009 0.3847203460000017	0.066784
C	0.8064731770000009 0.3229147079999990 0.4128378699999971	-0.117311
C	0.8050486120000002 0.3925435649999969 0.4178216560000010	-0.127074
C	0.7823363420000007 0.8901662979999969 0.3326984010000018	0.104862
C	0.7844359400000016 0.9598020259999984 0.3292282230000012	-0.180231
C	0.7529507750000022 0.9975863689999969 0.3950013250000026	0.106110
C	0.7215234470000027 0.9622305950000012 0.4631112380000033	-0.183155
C	0.7226171260000029 0.8925029410000036 0.4631394629999974	0.105978
C	0.7522654959999997 0.0714222399999969 0.3919188429999991	0.054897
C	0.8084590639999973 0.1074482599999982 0.3620412329999994	-0.131523
C	0.8076976110000018 0.1771489220000007 0.3598172279999972	-0.124241
C	0.7501596729999989 0.2131229949999991 0.3847203460000017	0.066781
C	0.6935268229999991 0.1770852679999990 0.4128378699999971	-0.117312
C	0.6949513409999994 0.1074564350000031 0.4178216560000010	-0.127076
C	0.3901662740000020 0.2823364139999995 0.1673016149999995	0.104856
C	0.4598019780000016 0.2844359879999985 0.1707717459999998	-0.180230
C	0.4975863210000000 0.2529508229999990 0.1049986749999974	0.106094
C	0.4622306429999981 0.2215233989999987 0.0368887580000035	-0.183152
C	0.3925029649999985 0.2226171739999998 0.0368605290000019	0.105976
C	0.5714222040000010 0.2522655439999966 0.1080811490000002	0.054938
C	0.6074482719999992 0.3084590639999973 0.1379587360000016	-0.131414
C	0.6771488739999967 0.3076976349999967 0.1401827560000015	-0.124272
C	0.7131230430000031 0.2501596729999989 0.1152796309999999	0.066782
C	0.6770852439999970 0.1935268229999991 0.0871621450000006	-0.117270
C	0.6074564589999980 0.1949513519999968 0.0821783589999967	-0.127228
C	0.1098337020000031 0.2176636100000024 0.1673016149999995	0.104859
C	0.0401979620000006 0.2155640360000035 0.1707717459999998	-0.180224
C	0.0024136580000018 0.2470491770000010 0.1049986749999974	0.106092
C	0.0377693840000006 0.2784766010000013 0.0368887580000035	-0.183156
C	0.1074969989999985 0.2773828500000022 0.0368605290000019	0.105975
C	0.9285777480000021 0.2477344320000014 0.1080811490000002	0.054939
C	0.8925517759999977 0.1915409710000020 0.1379587360000016	-0.131413
C	0.8228511260000033 0.1923023769999972 0.1401827560000015	-0.124271
C	0.7868769569999969 0.2498403029999992 0.1152796309999999	0.066781
C	0.8229148030000033 0.3064731770000009 0.0871621450000006	-0.117269
C	0.8925436370000028 0.3050486830000025 0.0821783589999967	-0.127225
C	0.2823364139999995 0.1098337020000031 0.1673016149999995	0.104859
C	0.2844359879999985 0.0401979620000006 0.1707717459999998	-0.180227
C	0.2529508229999990 0.0024136580000018 0.1049986749999974	0.106093
C	0.2215233989999987 0.0377693840000006 0.0368887580000035	-0.183152
C	0.2226171739999998 0.1074969989999985 0.0368605290000019	0.105975
C	0.2522655439999966 0.9285777480000021 0.1080811490000002	0.054939
C	0.3084590639999973 0.8925517759999977 0.1379587360000016	-0.131413
C	0.3076976349999967 0.8228511260000033 0.1401827560000015	-0.124272
C	0.2501596729999989 0.7868769569999969 0.1152796309999999	0.066782
C	0.1935268229999991 0.8229148030000033 0.0871621450000006	-0.117270
C	0.1949513519999968 0.8925436370000028 0.0821783589999967	-0.127226
C	0.2176636100000024 0.3901662740000020 0.1673016149999995	0.104858
C	0.2155640360000035 0.4598019780000016 0.1707717459999998	-0.180227
C	0.2470491770000010 0.4975863210000000 0.1049986749999974	0.106093
C	0.2784766010000013 0.4622306429999981 0.0368887580000035	-0.183155
C	0.2773828500000022 0.3925029649999985 0.0368605290000019	0.105976
C	0.2477344320000014 0.5714222040000010 0.1080811490000002	0.054939
C	0.1915409710000020 0.6074482719999992 0.1379587360000016	-0.131415
C	0.1923023769999972 0.6771488739999967 0.1401827560000015	-0.124271
C	0.2498403029999992 0.7131230430000031 0.1152796309999999	0.066781
C	0.3064731770000009 0.6770852439999970 0.0871621450000006	-0.117270
C	0.3050486830000025 0.6074564589999980 0.0821783589999967	-0.127227
H	0.3593084789999992 0.1961164060000016 0.7192222779999966	0.105578
H	0.4843443879999967 0.1913472450000029 0.7261310709999975	0.113529
H	0.4888528769999994 0.3024008089999981 0.4829476729999982	0.113635
H	0.3633898000000002 0.2994595380000007 0.4835988439999994	0.104992
H	0.5801762350000033 0.1466067639999977 0.6582124330000028	0.099455
H	0.7043845709999985 0.1481442139999984 0.6627802659999986	0.101708
H	0.7041095109999986 0.3512850669999992 0.5663267480000016	0.101896
H	0.5802816149999970 0.3491108990000029 0.5588685499999997	0.103314
H	0.1406914849999978 0.3038836180000004 0.7192222779999966	0.105574
H	0.0156556179999967 0.3086527789999991 0.7261310709999975	0.113532
H	0.0111471120000033 0.1975992030000029 0.4829476729999982	0.113633
H	0.1366102240000018 0.2005404499999983 0.4835988439999994	0.104992
H	0.9198238119999971 0.3533932360000023 0.6582124330000028	0.099456
H	0.7956154290000015 0.3518557740000006 0.6627802659999986	0.101708
H	0.7958904890000014 0.1487149450000018 0.5663267480000016	0.101901
H	0.9197183850000030 0.1508890890000032 0.5588685499999997	0.103317
H	0.3038836180000004 0.3593084789999992 0.7192222779999966	0.105578
H	0.3086527789999991 0.4843443879999967 0.7261310709999975	0.113532
H	0.1975992030000029 0.4888528769999994 0.4829476729999982	0.113634
H	0.2005404499999983 0.3633898000000002 0.4835988439999994	0.104992
H	0.3533932360000023 0.5801762350000033 0.6582124330000028	0.099454
H	0.3518557740000006 0.7043845709999985 0.6627802659999986	0.101707
H	0.1487149450000018 0.7041095109999986 0.5663267480000016	0.101899
H	0.1508890890000032 0.5802816149999970 0.5588685499999997	0.103317
H	0.1961164060000016 0.1406914849999978 0.7192222779999966	0.105574
H	0.1913472450000029 0.0156556179999967 0.7261310709999975	0.113529
H	0.3024008089999981 0.0111471120000033 0.4829476729999982	0.113634
H	0.2994595380000007 0.1366102240000018 0.4835988439999994	0.104993
H	0.1466067639999977 0.9198238119999971 0.6582124330000028	0.099457
H	0.1481442139999984 0.7956154290000015 0.6627802659999986	0.101709
H	0.3512850669999992 0.7958904890000014 0.5663267480000016	0.101898
H	0.3491108990000029 0.9197183850000030 0.5588685499999997	0.103314
H	0.6406914729999968 0.6961164060000016 0.7807777220000034	0.105575
H	0.5156555639999993 0.6913472210000009 0.7738689290000025	0.113530
H	0.5111471230000006 0.8024008089999981 0.0170523119999970	0.113633
H	0.6366101999999998 0.7994595139999987 0.0164011840000029	0.104991
H	0.4198237649999967 0.6466067639999977 0.8417875669999972	0.099476
H	0.2956154530000035 0.6481442259999994 0.8372197340000014	0.101706
H	0.2958904890000014 0.8512850669999992 0.9336732519999984	0.101902
H	0.4197184329999999 0.8491109229999978 0.9411314500000003	0.103294
H	0.8593085750000000 0.8038836420000024 0.7807777220000034	0.105575
H	0.9843443399999998 0.8086527789999991 0.7738689290000025	0.113532
H	0.9888528290000025 0.6975991910000019 0.0170523119999970	0.113634
H	0.8633897039999994 0.7005404860000013 0.0164011840000029	0.104994
H	0.0801762350000033 0.8533932360000023 0.8417875669999972	0.099474
H	0.2043845469999965 0.8518557740000006 0.8372197340000014	0.101704
H	0.2041095109999986 0.6487149809999977 0.9336732519999984	0.101903
H	0.0802816089999965 0.6508890770000022 0.9411314500000003	0.103293
H	0.6961164060000016 0.8593085750000000 0.7807777220000034	0.105575
H	0.6913472210000009 0.9843443399999998 0.7738689290000025	0.113531
H	0.8024008089999981 0.9888528290000025 0.0170523119999970	0.113636
H	0.7994595139999987 0.8633897039999994 0.0164011840000029	0.104994
H	0.6466067639999977 0.0801762350000033 0.8417875669999972	0.099476
H	0.6481442259999994 0.2043845469999965 0.8372197340000014	0.101706
H	0.8512850669999992 0.2041095109999986 0.9336732519999984	0.101901
H	0.8491109229999978 0.0802816089999965 0.9411314500000003	0.103292
H	0.8038836420000024 0.6406914729999968 0.7807777220000034	0.105575
H	0.8086527789999991 0.5156555639999993 0.7738689290000025	0.113531
H	0.6975991910000019 0.5111471230000006 0.0170523119999970	0.113632
H	0.7005404860000013 0.6366101999999998 0.0164011840000029	0.104991
H	0.8533932360000023 0.4198237649999967 0.8417875669999972	0.099473
H	0.8518557740000006 0.2956154530000035 0.8372197340000014	0.101705
H	0.6487149809999977 0.2958904890000014 0.9336732519999984	0.101903
H	0.6508890770000022 0.4197184329999999 0.9411314500000003	0.103294
H	0.6406914729999968 0.8038836420000024 0.2807777539999989	0.105574
H	0.5156555639999993 0.8086527789999991 0.2738689600000015	0.113531
H	0.5111471230000006 0.6975991910000019 0.5170522960000028	0.113632
H	0.6366101999999998 0.7005404860000013 0.5164011560000006	0.104992
H	0.4198237649999967 0.8533932360000023 0.3417875359999982	0.099475
H	0.2956154530000035 0.8518557740000006 0.3372197019999987	0.101705
H	0.2958904890000014 0.6487149809999977 0.4336732829999974	0.101905
H	0.4197184329999999 0.6508890770000022 0.4411315119999983	0.103287
H	0.8593085750000000 0.6961164060000016 0.2807777539999989	0.105576
H	0.9843443399999998 0.6913472210000009 0.2738689600000015	0.113529
H	0.9888528290000025 0.8024008089999981 0.5170522960000028	0.113634
H	0.8633897039999994 0.7994595139999987 0.5164011560000006	0.104992
H	0.0801762350000033 0.6466067639999977 0.3417875359999982	0.099474
H	0.2043845469999965 0.6481442259999994 0.3372197019999987	0.101706
H	0.2041095109999986 0.8512850669999992 0.4336732829999974	0.101900
H	0.0802816089999965 0.8491109229999978 0.4411315119999983	0.103285
H	0.6961164060000016 0.6406914729999968 0.2807777539999989	0.105574
H	0.6913472210000009 0.5156555639999993 0.2738689600000015	0.113529
H	0.8024008089999981 0.5111471230000006 0.5170522960000028	0.113633
H	0.7994595139999987 0.6366101999999998 0.5164011560000006	0.104992
H	0.6466067639999977 0.4198237649999967 0.3417875359999982	0.099476
H	0.6481442259999994 0.2956154530000035 0.3372197019999987	0.101707
H	0.8512850669999992 0.2958904890000014 0.4336732829999974	0.101903
H	0.8491109229999978 0.4197184329999999 0.4411315119999983	0.103285
H	0.8038836420000024 0.8593085750000000 0.2807777539999989	0.105576
H	0.8086527789999991 0.9843443399999998 0.2738689600000015	0.113531
H	0.6975991910000019 0.9888528290000025 0.5170522960000028	0.113633
H	0.7005404860000013 0.8633897039999994 0.5164011560000006	0.104992
H	0.8533932360000023 0.0801762350000033 0.3417875359999982	0.099473
H	0.8518557740000006 0.2043845469999965 0.3372197019999987	0.101704
H	0.6487149809999977 0.2041095109999986 0.4336732829999974	0.101903
H	0.6508890770000022 0.0802816089999965 0.4411315119999983	0.103288
H	0.3593084789999992 0.3038836180000004 0.2192222779999966	0.105577
H	0.4843443879999967 0.3086527789999991 0.2261310860000023	0.113529
H	0.4888528769999994 0.1975992030000029 0.9829477350000033	0.113633
H	0.3633898000000002 0.2005404499999983 0.9835988130000004	0.104993
H	0.5801762350000033 0.3533932360000023 0.1582124480000004	0.099454
H	0.7043845709999985 0.3518557740000006 0.1627803129999990	0.101707
H	0.7041095109999986 0.1487149450000018 0.0663267090000019	0.101899
H	0.5802816149999970 0.1508890890000032 0.0588685110000000	0.103314
H	0.1406914849999978 0.1961164060000016 0.2192222779999966	0.105574
H	0.0156556179999967 0.1913472450000029 0.2261310860000023	0.113528
H	0.0111471120000033 0.3024008089999981 0.9829477350000033	0.113632
H	0.1366102240000018 0.2994595380000007 0.9835988130000004	0.104991
H	0.9198238119999971 0.1466067639999977 0.1582124480000004	0.099456
H	0.7956154290000015 0.1481442139999984 0.1627803129999990	0.101709
H	0.7958904890000014 0.3512850669999992 0.0663267090000019	0.101898
H	0.9197183850000030 0.3491108990000029 0.0588685110000000	0.103315
H	0.3038836180000004 0.1406914849999978 0.2192222779999966	0.105575
H	0.3086527789999991 0.0156556179999967 0.2261310860000023	0.113529
H	0.1975992030000029 0.0111471120000033 0.9829477350000033	0.113630
H	0.2005404499999983 0.1366102240000018 0.9835988130000004	0.104991
H	0.3533932360000023 0.9198238119999971 0.1582124480000004	0.099453
H	0.3518557740000006 0.7956154290000015 0.1627803129999990	0.101708
H	0.1487149450000018 0.7958904890000014 0.0663267090000019	0.101900
H	0.1508890890000032 0.9197183850000030 0.0588685110000000	0.103315
H	0.1961164060000016 0.3593084789999992 0.2192222779999966	0.105576
H	0.1913472450000029 0.4843443879999967 0.2261310860000023	0.113529
H	0.3024008089999981 0.4888528769999994 0.9829477350000033	0.113634
H	0.2994595380000007 0.3633898000000002 0.9835988130000004	0.104993
H	0.1466067639999977 0.5801762350000033 0.1582124480000004	0.099456
H	0.1481442139999984 0.7043845709999985 0.1627803129999990	0.101708
H	0.3512850669999992 0.7041095109999986 0.0663267090000019	0.101897
H	0.3491108990000029 0.5802816149999970 0.0588685110000000	0.103313
Zn	0.2500000000000000 0.2500000000000000 0.6007256290000029	0.734170
Zn	0.7500000000000000 0.7500000000000000 0.8992743709999971	0.734171
Zn	0.7500000000000000 0.7500000000000000 0.3992743089999991	0.734167
Zn	0.2500000000000000 0.2500000000000000 0.1007256520000013	0.734166
Si	0.2500000000000000 0.2500000000000000 0.3512864169999972	1.736168
Si	0.7500000000000000 0.7500000000000000 0.1487135980000005	1.736168
Si	0.7500000000000000 0.7500000000000000 0.6487136759999999	1.736167
Si	0.2500000000000000 0.2500000000000000 0.8512863240000001	1.736168
	  	
