#======================================================================

# CRYSTAL DATA

#----------------------------------------------------------------------

data_VESTA_phase_1


_pd_phase_name                         SIFSIX_4_Ni_i
_cell_length_a                         22.94067
_cell_length_b                         19.95909
_cell_length_c                         10.01390
_cell_angle_alpha                      90
_cell_angle_beta                       90
_cell_angle_gamma                      90
_symmetry_space_group_name_H-M         P 1
_symmetry_Int_Tables_number            1

loop_
_symmetry_equiv_pos_as_xyz
   x, y, z

loop_
   _atom_site_label
   _atom_site_fract_x
   _atom_site_fract_y
   _atom_site_fract_z
   _atom_site_charge
C	0.4208005131361190 0.5980396053857889 0.6340895134232458	0.086392
C	0.3763167731221194 0.5510855236878556 0.6325486889950668	-0.154059
C	0.2787256421965849 0.4488164210186419 0.6320949449015852	-0.110069
C	0.2312211793890872 0.4058527020189840 0.6310723582239585	-0.108327
C	0.1277109567304635 0.3173372952184493 0.6302809597447445	-0.160899
C	0.0803702874486926 0.2741539151346468 0.6330345811177791	0.081166
C	0.9208005961361152 0.0980396163857933 0.6340895134232458	0.086374
C	0.8763167311221223 0.0510854656878578 0.6325486889950668	-0.154068
C	0.7787256631965900 0.9488164680186423 0.6320949449015852	-0.110070
C	0.7312211593890855 0.9058527480189811 0.6310723582239585	-0.108320
C	0.6277109567304634 0.8173373422184494 0.6302809597447445	-0.160884
C	0.5803702724486878 0.7741540081346509 0.6330345811177791	0.081164
C	0.5791994868638810 0.4019603486142073 0.1340895214232464	0.086374
C	0.6236832688778777 0.4489145223121485 0.1325487039950642	-0.154069
C	0.7212743368034100 0.5511835319813577 0.1320949529015784	-0.110068
C	0.7687788406109145 0.5941472979810156 0.1310723662239593	-0.108327
C	0.8722890432695366 0.6826627047815509 0.1302809667447489	-0.160899
C	0.9196297275513122 0.7258460388653495 0.1330345961177772	0.081165
C	0.0791994978638856 0.9019604416142114 0.1340895214232464	0.086392
C	0.1236832268778808 0.9489144303121477 0.1325487039950642	-0.154060
C	0.2212743788034132 0.0511835789813580 0.1320949529015784	-0.110069
C	0.2687787996109146 0.0941472749810176 0.1310723662239593	-0.108320
C	0.3722890852695402 0.1826627157815480 0.1302809667447489	-0.160883
C	0.4196297275513124 0.2258461088653552 0.1330345961177772	0.081163
C	0.5791994868638810 0.5980396053857889 0.8659104555767552	0.086392
C	0.6236832688778777 0.5510855236878556 0.8674512800049342	-0.154059
C	0.7212743368034100 0.4488164210186419 0.8679050860984138	-0.110069
C	0.7687788406109145 0.4058527020189840 0.8689276727760405	-0.108327
C	0.8722890432695366 0.3173372952184493 0.8697190712552545	-0.160900
C	0.9196297275513122 0.2741539151346468 0.8669654498822199	0.081166
C	0.0791994978638856 0.0980396163857933 0.8659104555767552	0.086374
C	0.1236832268778808 0.0510854656878578 0.8674512800049342	-0.154069
C	0.2212743788034132 0.9488164680186423 0.8679050860984138	-0.110070
C	0.2687787996109146 0.9058527480189811 0.8689276727760405	-0.108320
C	0.3722890852695402 0.8173373422184494 0.8697190712552545	-0.160885
C	0.4196297275513124 0.7741540081346509 0.8669654498822199	0.081163
C	0.4208005131361190 0.4019603486142073 0.3659104865767544	0.086374
C	0.3763167731221194 0.4489145223121485 0.3674512800049345	-0.154069
C	0.2787256421965849 0.5511835319813577 0.3679050550984220	-0.110068
C	0.2312211793890872 0.5941472979810156 0.3689276107760422	-0.108328
C	0.1277109567304635 0.6826627047815509 0.3697190092552489	-0.160899
C	0.0803702874486926 0.7258460388653495 0.3669653878822216	0.081165
C	0.9208005961361152 0.9019604416142114 0.3659104865767544	0.086392
C	0.8763167311221223 0.9489144303121477 0.3674512800049345	-0.154059
C	0.7787256631965900 0.0511835789813580 0.3679050550984220	-0.110069
C	0.7312211593890855 0.0941472749810176 0.3689276107760422	-0.108320
C	0.6277109567304634 0.1826627157815480 0.3697190092552489	-0.160884
C	0.5803702724486878 0.2258461088653552 0.3669653878822216	0.081163
C	0.5791994868638810 0.4019603486142073 0.3659104865767544	0.086375
C	0.6236832688778777 0.4489145223121485 0.3674512800049345	-0.154069
C	0.7212743368034100 0.5511835319813577 0.3679050550984220	-0.110068
C	0.7687788406109145 0.5941472979810156 0.3689276107760422	-0.108327
C	0.8722890432695366 0.6826627047815509 0.3697190092552489	-0.160900
C	0.9196297275513122 0.7258460388653495 0.3669653878822216	0.081166
C	0.0791994978638856 0.9019604416142114 0.3659104865767544	0.086393
C	0.1236832268778808 0.9489144303121477 0.3674512800049345	-0.154060
C	0.2212743788034132 0.0511835789813580 0.3679050550984220	-0.110069
C	0.2687787996109146 0.0941472749810176 0.3689276107760422	-0.108320
C	0.3722890852695402 0.1826627157815480 0.3697190092552489	-0.160885
C	0.4196297275513124 0.2258461088653552 0.3669653878822216	0.081163
C	0.4208005131361190 0.5980396053857889 0.8659104555767552	0.086392
C	0.3763167731221194 0.5510855236878556 0.8674512800049342	-0.154059
C	0.2787256421965849 0.4488164210186419 0.8679050860984138	-0.110069
C	0.2312211793890872 0.4058527020189840 0.8689276727760405	-0.108327
C	0.1277109567304635 0.3173372952184493 0.8697190712552545	-0.160901
C	0.0803702874486926 0.2741539151346468 0.8669654498822199	0.081166
C	0.9208005961361152 0.0980396163857933 0.8659104555767552	0.086374
C	0.8763167311221223 0.0510854656878578 0.8674512800049342	-0.154068
C	0.7787256631965900 0.9488164680186423 0.8679050860984138	-0.110070
C	0.7312211593890855 0.9058527480189811 0.8689276727760405	-0.108320
C	0.6277109567304634 0.8173373422184494 0.8697190712552545	-0.160886
C	0.5803702724486878 0.7741540081346509 0.8669654498822199	0.081164
C	0.4208005131361190 0.4019603486142073 0.1340895214232464	0.086375
C	0.3763167731221194 0.4489145223121485 0.1325487039950642	-0.154069
C	0.2787256421965849 0.5511835319813577 0.1320949529015784	-0.110068
C	0.2312211793890872 0.5941472979810156 0.1310723662239593	-0.108327
C	0.1277109567304635 0.6826627047815509 0.1302809667447489	-0.160901
C	0.0803702874486926 0.7258460388653495 0.1330345961177772	0.081166
C	0.9208005961361152 0.9019604416142114 0.1340895214232464	0.086393
C	0.8763167311221223 0.9489144303121477 0.1325487039950642	-0.154059
C	0.7787256631965900 0.0511835789813580 0.1320949529015784	-0.110069
C	0.7312211593890855 0.0941472749810176 0.1310723662239593	-0.108320
C	0.6277109567304634 0.1826627157815480 0.1302809667447489	-0.160885
C	0.5803702724486878 0.2258461088653552 0.1330345961177772	0.081164
C	0.5791994868638810 0.5980396053857889 0.6340895134232458	0.086393
C	0.6236832688778777 0.5510855236878556 0.6325486889950668	-0.154059
C	0.7212743368034100 0.4488164210186419 0.6320949449015852	-0.110069
C	0.7687788406109145 0.4058527020189840 0.6310723582239585	-0.108327
C	0.8722890432695366 0.3173372952184493 0.6302809597447445	-0.160901
C	0.9196297275513122 0.2741539151346468 0.6330345811177791	0.081167
C	0.0791994978638856 0.0980396163857933 0.6340895134232458	0.086375
C	0.1236832268778808 0.0510854656878578 0.6325486889950668	-0.154068
C	0.2212743788034132 0.9488164680186423 0.6320949449015852	-0.110070
C	0.2687787996109146 0.9058527480189811 0.6310723582239585	-0.108320
C	0.3722890852695402 0.8173373422184494 0.6302809597447445	-0.160886
C	0.4196297275513124 0.7741540081346509 0.6330345811177791	0.081164
C	0.3519791365259013 0.5243453991073372 0.7500000149999977	0.119275
C	0.3037608876104382 0.4741004629945366 0.7500000149999977	0.077282
C	0.2050694124182100 0.3838661707988477 0.7500000149999977	0.061821
C	0.1535248531975621 0.3395485052162295 0.7500000149999977	0.104197
C	0.8519790945259051 0.0243453821073391 0.7500000149999977	0.119307
C	0.8037609496104361 0.9741004159945368 0.7500000149999977	0.077286
C	0.7050694124182105 0.8838661937988461 0.7500000149999977	0.061788
C	0.6535248531975619 0.8395484362162275 0.7500000149999977	0.104196
C	0.6480208634740985 0.4756546468926600 0.2500000000000000	0.119308
C	0.6962390503895639 0.5258995370054629 0.2500000000000000	0.077286
C	0.7949305875817895 0.6161338532011542 0.2500000000000000	0.061821
C	0.8464751878024450 0.6604514717837719 0.2500000000000000	0.104197
C	0.1480208744740959 0.9756546938926598 0.2500000000000000	0.119275
C	0.1962391333895601 0.0258995400054600 0.2500000000000000	0.077282
C	0.2949305875817900 0.1161338062011540 0.2500000000000000	0.061789
C	0.3464751468024381 0.1604515057837750 0.2500000000000000	0.104195
C	0.6480208634740985 0.5243453991073372 0.7500000149999977	0.119275
C	0.6962390503895639 0.4741004629945366 0.7500000149999977	0.077283
C	0.7949305875817895 0.3838661707988477 0.7500000149999977	0.061821
C	0.8464751878024450 0.3395485052162295 0.7500000149999977	0.104197
C	0.1480208744740959 0.0243453821073391 0.7500000149999977	0.119308
C	0.1962391333895601 0.9741004159945368 0.7500000149999977	0.077286
C	0.2949305875817900 0.8838661937988461 0.7500000149999977	0.061789
C	0.3464751468024381 0.8395484362162275 0.7500000149999977	0.104196
C	0.3519791365259013 0.4756546468926600 0.2500000000000000	0.119308
C	0.3037608876104382 0.5258995370054629 0.2500000000000000	0.077286
C	0.2050694124182100 0.6161338532011542 0.2500000000000000	0.061821
C	0.1535248531975621 0.6604514717837719 0.2500000000000000	0.104197
C	0.8519790945259051 0.9756546938926598 0.2500000000000000	0.119275
C	0.8037609496104361 0.0258995400054600 0.2500000000000000	0.077282
C	0.7050694124182105 0.1161338062011540 0.2500000000000000	0.061789
C	0.6535248531975619 0.1604515057837750 0.2500000000000000	0.104195
H	0.4395681656941220 0.6181398750707408 0.5415789282422869	0.123250
H	0.3618191450616488 0.5373213236634162 0.5341788124990927	0.103725
H	0.2958801870569504 0.4619113902720946 0.5355086904910089	0.083405
H	0.2145903053504427 0.3897300416763286 0.5344292948228216	0.104763
H	0.1439788330670498 0.3324743403768002 0.5327642430706470	0.126782
H	0.0599667724981043 0.2552401852251804 0.5414421597898272	0.123170
H	0.9395681236941186 0.1181399100707402 0.5415789282422869	0.123253
H	0.8618191040616489 0.0373212596634109 0.5341788124990927	0.103728
H	0.7958801660569522 0.9619113902720943 0.5355086904910089	0.083406
H	0.7145902633504392 0.8897299726763336 0.5344292948228216	0.104762
H	0.6439788230670491 0.8324743403768075 0.5327642430706470	0.126780
H	0.5599668034981030 0.7552401622251822 0.5414421597898272	0.123170
H	0.5604318343058780 0.3818601249292591 0.0415789902422852	0.123253
H	0.6381808549383513 0.4626787233365842 0.0341788124990925	0.103729
H	0.7041198339430478 0.5380885637279019 0.0355087524910069	0.083406
H	0.7854097366495608 0.6102699353236659 0.0344292338228204	0.104763
H	0.8560211769329509 0.6675256136231887 0.0327642430706471	0.126781
H	0.9400331555018971 0.7447598377748178 0.0414421287898281	0.123170
H	0.0604318403058786 0.8818601249292592 0.0415789902422852	0.123250
H	0.1381808959383512 0.9626787233365841 0.0341788124990925	0.103725
H	0.2041198339430476 0.0380886067279016 0.0355087524910069	0.083406
H	0.2854096946495573 0.1102699693236686 0.0344292338228204	0.104762
H	0.3560211769329510 0.1675256366231944 0.0327642430706471	0.126779
H	0.4400331965018967 0.2447598147748196 0.0414421287898281	0.123170
H	0.5604318343058780 0.6181398750707408 0.9584210527577151	0.123250
H	0.6381808549383513 0.5373213236634162 0.9658211605009015	0.103725
H	0.7041198339430478 0.4619113902720946 0.9644912915089967	0.083405
H	0.7854097366495608 0.3897300416763286 0.9655707121771825	0.104763
H	0.8560211769329509 0.3324743403768002 0.9672357569293530	0.126782
H	0.9400331555018971 0.2552401852251804 0.9585578332101686	0.123170
H	0.0604318403058786 0.1181399100707402 0.9584210527577151	0.123252
H	0.1381808959383512 0.0373212596634109 0.9658211605009015	0.103728
H	0.2041198339430476 0.9619113902720943 0.9644912915089967	0.083406
H	0.2854096946495573 0.8897299726763336 0.9655707121771825	0.104762
H	0.3560211769329510 0.8324743403768075 0.9672357569293530	0.126779
H	0.4400331965018967 0.7552401622251822 0.9585578332101686	0.123170
H	0.4395681656941220 0.3818601249292591 0.4584210407577137	0.123253
H	0.3618191450616488 0.4626787233365842 0.4658212185009064	0.103728
H	0.2958801870569504 0.5380885637279019 0.4644912785089921	0.083406
H	0.2145903053504427 0.6102699353236659 0.4655706741771792	0.104763
H	0.1439788330670498 0.6675256136231887 0.4672357259293539	0.126781
H	0.0599667724981043 0.7447598377748178 0.4585578402101730	0.123170
H	0.9395681236941186 0.8818601249292592 0.4584210407577137	0.123250
H	0.8618191040616489 0.9626787233365841 0.4658212185009064	0.103725
H	0.7958801660569522 0.0380886067279016 0.4644912785089921	0.083405
H	0.7145902633504392 0.1102699693236686 0.4655706741771792	0.104762
H	0.6439788230670491 0.1675256366231944 0.4672357259293539	0.126779
H	0.5599668034981030 0.2447598147748196 0.4585578402101730	0.123170
H	0.5604318343058780 0.3818601249292591 0.4584210407577137	0.123253
H	0.6381808549383513 0.4626787233365842 0.4658212185009064	0.103728
H	0.7041198339430478 0.5380885637279019 0.4644912785089921	0.083406
H	0.7854097366495608 0.6102699353236659 0.4655706741771792	0.104763
H	0.8560211769329509 0.6675256136231887 0.4672357259293539	0.126781
H	0.9400331555018971 0.7447598377748178 0.4585578402101730	0.123170
H	0.0604318403058786 0.8818601249292592 0.4584210407577137	0.123250
H	0.1381808959383512 0.9626787233365841 0.4658212185009064	0.103725
H	0.2041198339430476 0.0380886067279016 0.4644912785089921	0.083405
H	0.2854096946495573 0.1102699693236686 0.4655706741771792	0.104762
H	0.3560211769329510 0.1675256366231944 0.4672357259293539	0.126779
H	0.4400331965018967 0.2447598147748196 0.4585578402101730	0.123170
H	0.4395681656941220 0.6181398750707408 0.9584210527577151	0.123250
H	0.3618191450616488 0.5373213236634162 0.9658211605009015	0.103725
H	0.2958801870569504 0.4619113902720946 0.9644912915089967	0.083405
H	0.2145903053504427 0.3897300416763286 0.9655707121771825	0.104763
H	0.1439788330670498 0.3324743403768002 0.9672357569293530	0.126781
H	0.0599667724981043 0.2552401852251804 0.9585578332101686	0.123171
H	0.9395681236941186 0.1181399100707402 0.9584210527577151	0.123253
H	0.8618191040616489 0.0373212596634109 0.9658211605009015	0.103728
H	0.7958801660569522 0.9619113902720943 0.9644912915089967	0.083406
H	0.7145902633504392 0.8897299726763336 0.9655707121771825	0.104762
H	0.6439788230670491 0.8324743403768075 0.9672357569293530	0.126779
H	0.5599668034981030 0.7552401622251822 0.9585578332101686	0.123171
H	0.4395681656941220 0.3818601249292591 0.0415789902422852	0.123253
H	0.3618191450616488 0.4626787233365842 0.0341788124990925	0.103728
H	0.2958801870569504 0.5380885637279019 0.0355087524910069	0.083406
H	0.2145903053504427 0.6102699353236659 0.0344292338228204	0.104763
H	0.1439788330670498 0.6675256136231887 0.0327642430706471	0.126781
H	0.0599667724981043 0.7447598377748178 0.0414421287898281	0.123171
H	0.9395681236941186 0.8818601249292592 0.0415789902422852	0.123250
H	0.8618191040616489 0.9626787233365841 0.0341788124990925	0.103725
H	0.7958801660569522 0.0380886067279016 0.0355087524910069	0.083405
H	0.7145902633504392 0.1102699693236686 0.0344292338228204	0.104762
H	0.6439788230670491 0.1675256366231944 0.0327642430706471	0.126779
H	0.5599668034981030 0.2447598147748196 0.0414421287898281	0.123171
H	0.5604318343058780 0.6181398750707408 0.5415789282422869	0.123250
H	0.6381808549383513 0.5373213236634162 0.5341788124990927	0.103725
H	0.7041198339430478 0.4619113902720946 0.5355086904910089	0.083405
H	0.7854097366495608 0.3897300416763286 0.5344292948228216	0.104763
H	0.8560211769329509 0.3324743403768002 0.5327642430706470	0.126782
H	0.9400331555018971 0.2552401852251804 0.5414421597898272	0.123171
H	0.0604318403058786 0.1181399100707402 0.5415789282422869	0.123253
H	0.1381808959383512 0.0373212596634109 0.5341788124990927	0.103728
H	0.2041198339430476 0.9619113902720943 0.5355086904910089	0.083406
H	0.2854096946495573 0.8897299726763336 0.5344292948228216	0.104762
H	0.3560211769329510 0.8324743403768075 0.5327642430706470	0.126779
H	0.4400331965018967 0.7552401622251822 0.5414421597898272	0.123171
Ni	0.5000000000000000 0.6872540076229852 0.7500000149999977	0.378510
Ni	0.0000000000000000 0.1872540656229829 0.7500000149999977	0.378513
Ni	0.5000000000000000 0.3127459223770164 0.2500000000000000	0.378513
Ni	0.0000000000000000 0.8127459923770148 0.2500000000000000	0.378510
F	0.5000000000000000 0.6838249711262457 0.4289894672663955	-0.559028
F	0.0000000000000000 0.1838250061262449 0.4289894672663955	-0.559028
F	0.5000000000000000 0.3161750058737490 0.9289894672663955	-0.559028
F	0.0000000000000000 0.8161750288737543 0.9289894672663955	-0.559028
F	0.5000000000000000 0.6838249711262457 0.0710105187336033	-0.559027
F	0.0000000000000000 0.1838250061262449 0.0710105187336033	-0.559028
F	0.5000000000000000 0.3161750058737489 0.5710105027336020	-0.559028
F	0.0000000000000000 0.8161750288737543 0.5710105027336020	-0.559027
F	0.4473646765594009 0.7445482557358891 0.2500000000000000	-0.583641
F	0.5527577648685462 0.6233812956071768 0.2500000000000000	-0.577280
F	0.9473646765594013 0.2445482557358894 0.2500000000000000	-0.583641
F	0.0527577858685514 0.1233812956071771 0.2500000000000000	-0.577280
F	0.5526352824405989 0.2554517212641123 0.7500000149999977	-0.583641
F	0.4472422351314540 0.3766187043928229 0.7500000149999977	-0.577280
F	0.0526353344406035 0.7554517442641109 0.7500000149999977	-0.583641
F	0.9472422351314538 0.8766187043928232 0.7500000149999977	-0.577279
F	0.5526352824405989 0.7445482557358891 0.2500000000000000	-0.583641
F	0.4472422351314540 0.6233812956071768 0.2500000000000000	-0.577280
F	0.0526353344406035 0.2445482557358894 0.2500000000000000	-0.583641
F	0.9472422351314538 0.1233812956071771 0.2500000000000000	-0.577280
F	0.4473646765594009 0.2554517212641123 0.7500000149999977	-0.583641
F	0.5527577648685462 0.3766187043928229 0.7500000149999977	-0.577280
F	0.9473646765594013 0.7554517442641109 0.7500000149999977	-0.583641
F	0.0527577858685514 0.8766187043928232 0.7500000149999977	-0.577279
N	0.4426351817694051 0.6211003466176234 0.7500000149999977	-0.146155
N	0.5579982656047835 0.7525887439167789 0.7500000149999977	-0.154954
N	0.9426351407693980 0.1211003346176220 0.7500000149999977	-0.146154
N	0.0579982396047814 0.2525887209167735 0.7500000149999977	-0.154955
N	0.5573648182305950 0.3788996533823769 0.2500000000000000	-0.146154
N	0.4420017343952163 0.2474112790832264 0.2500000000000000	-0.154954
N	0.0573648182305949 0.8788996533823766 0.2500000000000000	-0.146155
N	0.9420017753952163 0.7474112560832211 0.2500000000000000	-0.154954
N	0.5573648182305950 0.6211003466176234 0.7500000149999977	-0.146156
N	0.4420017343952163 0.7525887439167789 0.7500000149999977	-0.154954
N	0.0573648182305949 0.1211003346176220 0.7500000149999977	-0.146154
N	0.9420017753952163 0.2525887209167735 0.7500000149999977	-0.154956
N	0.4426351817694051 0.3788996533823769 0.2500000000000000	-0.146154
N	0.5579982656047835 0.2474112790832264 0.2500000000000000	-0.154954
N	0.9426351407693980 0.8788996533823766 0.2500000000000000	-0.146156
N	0.0579982396047814 0.7474112560832211 0.2500000000000000	-0.154954
Si	0.5000000000000000 0.6840499194779194 0.2500000000000000	1.741266
Si	0.0000000000000000 0.1840499434779213 0.2500000000000000	1.741266
Si	0.5000000000000000 0.3159500335220803 0.7500000149999977	1.741266
Si	0.0000000000000000 0.8159500805220806 0.7500000149999977	1.741266
	  	
