#======================================================================

# CRYSTAL DATA

#----------------------------------------------------------------------

data_VESTA_phase_1


_pd_phase_name                         SIFSIX_1_Ni
_cell_length_a                         11.24051
_cell_length_b                         11.24051
_cell_length_c                         7.62551
_cell_angle_alpha                      90
_cell_angle_beta                       90
_cell_angle_gamma                      90
_symmetry_space_group_name_H-M         P 1
_symmetry_Int_Tables_number            1

loop_
_symmetry_equiv_pos_as_xyz
   x, y, z

loop_
   _atom_site_label
   _atom_site_fract_x
   _atom_site_fract_y
   _atom_site_fract_z
   _atom_site_charge
C	0.2538513334799868 0.4563638573166807 0.3621265977478814	0.103316
C	0.1302142053198823 0.4555991117174314 0.3571918530205613	-0.174559
C	0.7461487535200171 0.5436361856833194 0.3621265977478814	0.103316
C	0.8697858386801213 0.5444008882825687 0.3571918530205613	-0.174558
C	0.5436361856833194 0.2538513334799868 0.3621265977478814	0.103316
C	0.5444008882825687 0.1302142053198823 0.3571918530205613	-0.174558
C	0.4563638573166807 0.7461487535200171 0.3621265977478814	0.103316
C	0.4555991117174314 0.8697858386801213 0.3571918530205613	-0.174558
C	0.7461487535200171 0.4563638573166807 0.6378733722521163	0.103316
C	0.8697858386801213 0.4555991117174314 0.6428081179794327	-0.174557
C	0.2538513334799868 0.5436361856833194 0.6378733722521163	0.103316
C	0.1302142053198823 0.5444008882825687 0.6428081179794327	-0.174557
C	0.4563638573166807 0.2538513334799868 0.6378733722521163	0.103316
C	0.4555991117174314 0.1302142053198823 0.6428081179794327	-0.174557
C	0.5436361856833194 0.7461487535200171 0.6378733722521163	0.103316
C	0.5444008882825687 0.8697858386801213 0.6428081179794327	-0.174557
C	0.0657174466205011 0.5000000000000000 0.5000000000000000	0.099504
C	0.9342826293794980 0.5000000000000000 0.5000000000000000	0.099502
C	0.5000000000000000 0.0657174466205011 0.5000000000000000	0.099504
C	0.5000000000000000 0.9342826293794980 0.5000000000000000	0.099502
H	0.3061102979366324 0.4225283177490839 0.2525930377923996	0.105035
H	0.0844684407271226 0.4185821976360409 0.2437796384892633	0.120183
H	0.6938896590633674 0.5774716822509161 0.2525930377923996	0.105035
H	0.9155315752728789 0.5814178023639592 0.2437796384892633	0.120182
H	0.5774716822509161 0.3061102979366324 0.2525930377923996	0.105035
H	0.5814178023639592 0.0844684407271226 0.2437796384892633	0.120183
H	0.4225283177490839 0.6938896590633674 0.2525930377923996	0.105035
H	0.4185821976360409 0.9155315752728789 0.2437796384892633	0.120183
H	0.6938896590633674 0.4225283177490839 0.7474069332076017	0.105035
H	0.9155315752728789 0.4185821976360409 0.7562204205107385	0.120182
H	0.3061102979366324 0.5774716822509161 0.7474069332076017	0.105035
H	0.0844684407271226 0.5814178023639592 0.7562204205107385	0.120182
H	0.4225283177490839 0.3061102979366324 0.7474069332076017	0.105035
H	0.4185821976360409 0.0844684407271226 0.7562204205107385	0.120182
H	0.5774716822509161 0.6938896590633674 0.7474069332076017	0.105035
H	0.5814178023639592 0.9155315752728789 0.7562204205107385	0.120182
Ni	0.5000000000000000 0.5000000000000000 0.5000000000000000	0.756513
Si	0.5000000000000000 0.5000000000000000 0.0000000000000000	1.734291
F	0.5000000000000000 0.5000000000000000 0.7698138278202156	-0.503913
F	0.5000000000000000 0.5000000000000000 0.2301861721797843	-0.503913
F	0.3927057305119900 0.3927057305119900 0.0000000000000000	-0.538643
F	0.6072942694880098 0.6072942694880098 0.0000000000000000	-0.538643
F	0.6072942694880098 0.3927057305119900 0.0000000000000000	-0.538644
F	0.3927057305119900 0.6072942694880098 0.0000000000000000	-0.538644
N	0.3147522685109347 0.5000000000000000 0.5000000000000000	-0.239556
N	0.6852477534890673 0.5000000000000000 0.5000000000000000	-0.239556
N	0.5000000000000000 0.3147522685109347 0.5000000000000000	-0.239556
N	0.5000000000000000 0.6852477534890673 0.5000000000000000	-0.239555
	  	
