#======================================================================

# CRYSTAL DATA

#----------------------------------------------------------------------

data_VESTA_phase_1


_pd_phase_name                         SIFSIX_16_Zn_i
_cell_length_a                         25.13408
_cell_length_b                         25.13408
_cell_length_c                         7.53091
_cell_angle_alpha                      90
_cell_angle_beta                       90
_cell_angle_gamma                      90
_symmetry_space_group_name_H-M         P 1
_symmetry_Int_Tables_number            1

loop_
_symmetry_equiv_pos_as_xyz
   x, y, z

loop_
   _atom_site_label
   _atom_site_fract_x
   _atom_site_fract_y
   _atom_site_fract_z
   _atom_site_charge
C	0.4775840431640307 0.3873664022681225 0.3650448117756284	0.101841
C	0.4765095228214927 0.3321427788048457 0.3603958140371745	-0.174781
C	0.9548230820421572 0.6131495125099028 0.9432988291630465	-0.128830
C	0.9550059229692325 0.5579073685407522 0.9440241159813468	-0.124708
C	0.5224159948359651 0.6126336357318735 0.3650448117756284	0.101841
C	0.5234904771785076 0.6678572591951502 0.3603958140371745	-0.174781
C	0.0451768419578434 0.3868504484900974 0.9432988291630465	-0.128830
C	0.0449940960307657 0.4420926694592510 0.9440241159813468	-0.124708
C	0.6126336357318735 0.4775840431640307 0.3650448117756284	0.101841
C	0.6678572591951502 0.4765095228214927 0.3603958140371745	-0.174781
C	0.3868504484900974 0.9548230820421572 0.9432988291630465	-0.128830
C	0.4420926694592510 0.9550059229692325 0.9440241159813468	-0.124708
C	0.3873664022681225 0.5224159948359651 0.3650448117756284	0.101841
C	0.3321427788048457 0.5234904771785076 0.3603958140371745	-0.174781
C	0.6131495125099028 0.0451768419578434 0.9432988291630465	-0.128830
C	0.5579073685407522 0.0449940960307657 0.9440241159813468	-0.124708
C	0.5224159948359651 0.3873664022681225 0.6349551882243717	0.101842
C	0.5234904771785076 0.3321427788048457 0.6396041539628229	-0.174780
C	0.0451768419578434 0.6131495125099028 0.0567011828369547	-0.128830
C	0.0449940960307657 0.5579073685407522 0.0559758600186514	-0.124708
C	0.4775840431640307 0.6126336357318735 0.6349551882243717	0.101842
C	0.4765095228214927 0.6678572591951502 0.6396041539628229	-0.174780
C	0.9548230820421572 0.3868504484900974 0.0567011828369547	-0.128830
C	0.9550059229692325 0.4420926694592510 0.0559758600186514	-0.124708
C	0.3873664022681225 0.4775840431640307 0.6349551882243717	0.101842
C	0.3321427788048457 0.4765095228214927 0.6396041539628229	-0.174780
C	0.6131495125099028 0.9548230820421572 0.0567011828369547	-0.128830
C	0.5579073685407522 0.9550059229692325 0.0559758600186514	-0.124708
C	0.6126336357318735 0.5224159948359651 0.6349551882243717	0.101842
C	0.6678572591951502 0.5234904771785076 0.6396041539628229	-0.174780
C	0.3868504484900974 0.0451768419578434 0.0567011828369547	-0.128830
C	0.4420926694592510 0.0449940960307657 0.0559758600186514	-0.124708
C	0.5451768799578468 0.8868504104901015 0.5567012028369490	-0.128830
C	0.5449940770307675 0.9420926694592510 0.5559758520186505	-0.124708
C	0.0224159488359686 0.1126335787318795 0.1349551882243716	0.101841
C	0.0234904751785071 0.1678572211951543 0.1396041699628243	-0.174781
C	0.4548231580421567 0.1131495605098997 0.5567012028369490	-0.128830
C	0.4550058849692363 0.0579073155407512 0.5559758520186505	-0.124708
C	0.9775840051640349 0.8873663642681265 0.1349551882243716	0.101841
C	0.9765095228214924 0.8321427788048459 0.1396041699628243	-0.174781
C	0.1131495605098997 0.5451768799578468 0.5567012028369490	-0.128830
C	0.0579073155407512 0.5449940770307675 0.5559758520186505	-0.124708
C	0.8873663642681265 0.0224159488359686 0.1349551882243716	0.101841
C	0.8321427788048459 0.0234904751785071 0.1396041699628243	-0.174781
C	0.8868504104901015 0.4548231580421567 0.5567012028369490	-0.128830
C	0.9420926694592510 0.4550058849692363 0.5559758520186505	-0.124708
C	0.1126335787318795 0.9775840051640349 0.1349551882243716	0.101841
C	0.1678572211951543 0.9765095228214924 0.1396041699628243	-0.174781
C	0.4548231580421567 0.8868504104901015 0.4432988291630464	-0.128830
C	0.4550058849692363 0.9420926694592510 0.4440241479813493	-0.124708
C	0.9775840051640349 0.1126335787318795 0.8650448437756239	0.101842
C	0.9765095228214924 0.1678572211951543 0.8603958140371745	-0.174780
C	0.5451768799578468 0.1131495605098997 0.4432988291630464	-0.128830
C	0.5449940770307675 0.0579073155407512 0.4440241479813493	-0.124708
C	0.0224159488359686 0.8873663642681265 0.8650448437756239	0.101842
C	0.0234904751785071 0.8321427788048459 0.8603958140371745	-0.174780
C	0.8868504104901015 0.5451768799578468 0.4432988291630464	-0.128830
C	0.9420926694592510 0.5449940770307675 0.4440241479813493	-0.124708
C	0.1126335787318795 0.0224159488359686 0.8650448437756239	0.101842
C	0.1678572211951543 0.0234904751785071 0.8603958140371745	-0.174780
C	0.1131495605098997 0.4548231580421567 0.4432988291630464	-0.128830
C	0.0579073155407512 0.4550058849692363 0.4440241479813493	-0.124708
C	0.8873663642681265 0.9775840051640349 0.8650448437756239	0.101842
C	0.8321427788048459 0.9765095228214924 0.8603958140371745	-0.174780
C	0.5000000000000000 0.3032168628584725 0.5000000000000000	0.175611
C	0.5000000000000000 0.2467650159370703 0.5000000000000000	-0.114956
C	0.5000000000000000 0.1982306666412147 0.5000000000000000	-0.097430
C	0.5000000000000000 0.1417911972561517 0.5000000000000000	0.127487
C	0.5000000000000000 0.0292742810689862 0.5000000000000000	0.068513
C	-0.0000000000000000 0.8032168438584674 -0.0000000000000000	0.175611
C	-0.0000000000000000 0.7467649959370687 -0.0000000000000000	-0.114956
C	-0.0000000000000000 0.6982306286412188 -0.0000000000000000	-0.097430
C	-0.0000000000000000 0.6417911592561488 -0.0000000000000000	0.127487
C	-0.0000000000000000 0.5292742950689874 -0.0000000000000000	0.068513
C	0.5000000000000000 0.6967831181415295 0.5000000000000000	0.175611
C	0.5000000000000000 0.7532350420629274 0.5000000000000000	-0.114956
C	0.5000000000000000 0.8017693333587852 0.5000000000000000	-0.097431
C	0.5000000000000000 0.8582088027438480 0.5000000000000000	0.127487
C	0.5000000000000000 0.9707257049310126 0.5000000000000000	0.068513
C	-0.0000000000000000 0.1967831371415275 -0.0000000000000000	0.175611
C	-0.0000000000000000 0.2532349840629295 -0.0000000000000000	-0.114956
C	-0.0000000000000000 0.3017693133587835 -0.0000000000000000	-0.097430
C	-0.0000000000000000 0.3582088027438482 -0.0000000000000000	0.127487
C	-0.0000000000000000 0.4707257429310158 -0.0000000000000000	0.068513
C	0.6967831181415295 0.5000000000000000 0.5000000000000000	0.175611
C	0.7532350420629274 0.5000000000000000 0.5000000000000000	-0.114956
C	0.8017693333587852 0.5000000000000000 0.5000000000000000	-0.097431
C	0.8582088027438480 0.5000000000000000 0.5000000000000000	0.127487
C	0.9707257049310126 0.5000000000000000 0.5000000000000000	0.068513
C	0.1967831371415275 0.0000000000000000 -0.0000000000000000	0.175611
C	0.2532349840629295 0.0000000000000000 -0.0000000000000000	-0.114956
C	0.3017693133587835 0.0000000000000000 -0.0000000000000000	-0.097430
C	0.3582088027438482 0.0000000000000000 -0.0000000000000000	0.127487
C	0.4707257429310158 0.0000000000000000 -0.0000000000000000	0.068513
C	0.3032168628584725 0.5000000000000000 0.5000000000000000	0.175611
C	0.2467650159370703 0.5000000000000000 0.5000000000000000	-0.114956
C	0.1982306666412147 0.5000000000000000 0.5000000000000000	-0.097430
C	0.1417911972561517 0.5000000000000000 0.5000000000000000	0.127487
C	0.0292742810689862 0.5000000000000000 0.5000000000000000	0.068513
C	0.8032168438584674 0.0000000000000000 -0.0000000000000000	0.175611
C	0.7467649959370687 0.0000000000000000 -0.0000000000000000	-0.114956
C	0.6982306286412188 0.0000000000000000 -0.0000000000000000	-0.097430
C	0.6417911592561488 0.0000000000000000 -0.0000000000000000	0.127487
C	0.5292742950689874 0.0000000000000000 -0.0000000000000000	0.068513
H	0.4607867812742781 0.4108145359248139 0.2566435315687012	0.106392
H	0.4578846249251374 0.3118200557585679 0.2489357706208677	0.125361
H	0.9198578686865194 0.6348070471997926 0.8975225950778275	0.111868
H	0.9201406986768500 0.5364948751188306 0.8958078725533130	0.106577
H	0.5392132187257219 0.5891854640751862 0.2566435315687012	0.106392
H	0.5421154130748657 0.6881800202414311 0.2489357706208677	0.125361
H	0.0801421123134826 0.3651929528002074 0.8975225950778275	0.111868
H	0.0798593303231486 0.4635051638811692 0.8958078725533130	0.106577
H	0.5891854640751862 0.4607867812742781 0.2566435315687012	0.106392
H	0.6881800202414311 0.4578846249251374 0.2489357706208677	0.125361
H	0.3651929528002074 0.9198578686865194 0.8975225950778275	0.111868
H	0.4635051638811692 0.9201406986768500 0.8958078725533130	0.106577
H	0.4108145359248139 0.5392132187257219 0.2566435315687012	0.106392
H	0.3118200557585679 0.5421154130748657 0.2489357706208677	0.125361
H	0.6348070471997926 0.0801421123134826 0.8975225950778275	0.111869
H	0.5364948751188306 0.0798593303231486 0.8958078725533130	0.106577
H	0.5392132187257219 0.4108145359248139 0.7433564524312973	0.106392
H	0.5421154130748657 0.3118200557585679 0.7510642293791325	0.125360
H	0.0801421123134826 0.6348070471997926 0.1024773809221704	0.111868
H	0.0798593303231486 0.5364948751188306 0.1041921274466870	0.106577
H	0.4607867812742781 0.5891854640751862 0.7433564524312973	0.106392
H	0.4578846249251374 0.6881800202414311 0.7510642293791325	0.125360
H	0.9198578686865194 0.3651929528002074 0.1024773809221704	0.111868
H	0.9201406986768500 0.4635051638811692 0.1041921274466870	0.106577
H	0.4108145359248139 0.4607867812742781 0.7433564524312973	0.106392
H	0.3118200557585679 0.4578846249251374 0.7510642293791325	0.125360
H	0.6348070471997926 0.9198578686865194 0.1024773809221704	0.111868
H	0.5364948751188306 0.9201406986768500 0.1041921274466870	0.106577
H	0.5891854640751862 0.5392132187257219 0.7433564524312973	0.106392
H	0.6881800202414311 0.5421154130748657 0.7510642293791325	0.125360
H	0.3651929528002074 0.0801421123134826 0.1024773809221704	0.111868
H	0.4635051638811692 0.0798593303231486 0.1041921274466870	0.106577
H	0.5801421313134806 0.8651929528002074 0.6024773729221699	0.111868
H	0.5798593013231500 0.9635051638811690 0.6041921594466897	0.106577
H	0.0392132287257226 0.0891854350751875 0.2433564684312989	0.106392
H	0.0421154180748626 0.1881799632414300 0.2510642613791279	0.125360
H	0.4198579066865225 0.1348070761997916 0.6024773729221699	0.111868
H	0.4201406596768505 0.0364948601188256 0.6041921594466897	0.106577
H	0.9607867812742781 0.9108146129248095 0.2433564684312989	0.106392
H	0.9578845869251343 0.8118200937585712 0.2510642613791279	0.125360
H	0.1348070761997916 0.5801421313134806 0.6024773729221699	0.111868
H	0.0364948601188256 0.5798593013231500 0.6041921594466897	0.106577
H	0.9108146129248095 0.0392132287257226 0.2433564684312989	0.106392
H	0.8118200937585712 0.0421154180748626 0.2510642613791279	0.125360
H	0.8651929528002074 0.4198579066865224 0.6024773729221699	0.111868
H	0.9635051638811690 0.4201406596768505 0.6041921594466897	0.106577
H	0.0891854350751875 0.9607867812742781 0.2433564684312989	0.106392
H	0.1881799632414300 0.9578845869251343 0.2510642613791279	0.125360
H	0.4198579066865224 0.8651929528002074 0.3975225950778277	0.111868
H	0.4201406596768505 0.9635051638811690 0.3958079045533085	0.106577
H	0.9607867812742781 0.0891854350751875 0.7566435155687000	0.106392
H	0.9578845869251343 0.1881799632414300 0.7489357386208719	0.125360
H	0.5801421313134806 0.1348070761997916 0.3975225950778277	0.111868
H	0.5798593013231500 0.0364948601188256 0.3958079045533085	0.106577
H	0.0392132287257226 0.9108146129248095 0.7566435155687000	0.106392
H	0.0421154180748626 0.8118200937585712 0.7489357386208719	0.125360
H	0.8651929528002074 0.5801421313134806 0.3975225950778277	0.111868
H	0.9635051638811690 0.5798593013231500 0.3958079045533085	0.106577
H	0.0891854350751875 0.0392132287257226 0.7566435155687000	0.106392
H	0.1881799632414300 0.0421154180748626 0.7489357386208719	0.125360
H	0.1348070761997916 0.4198579066865225 0.3975225950778277	0.111868
H	0.0364948601188256 0.4201406596768505 0.3958079045533085	0.106577
H	0.9108146129248095 0.9607867812742781 0.7566435155687000	0.106392
H	0.8118200937585712 0.9578845869251343 0.7489357386208719	0.125360
Zn	0.5000000000000000 0.5000000000000000 0.5000000000000000	0.737580
Zn	-0.0000000000000000 0.0000000000000000 -0.0000000000000000	0.737580
Si	0.5000000000000000 0.5000000000000000 -0.0000000000000000	1.726105
Si	-0.0000000000000000 0.0000000000000000 0.5000000000000000	1.726105
F	0.5000000000000000 0.5000000000000000 0.2288443478395133	-0.491920
F	-0.0000000000000000 0.0000000000000000 0.7288443158395179	-0.491920
F	0.5000000000000000 0.5000000000000000 0.7711555881604883	-0.491920
F	-0.0000000000000000 0.0000000000000000 0.2711556521604866	-0.491920
F	0.5481280509076637 0.5481280509076637 -0.0000000000000000	-0.544669
F	0.0481280039076633 0.0481280039076633 0.5000000000000000	-0.544669
F	0.4518720250923427 0.4518720250923427 -0.0000000000000000	-0.544669
F	0.9518719870923394 0.9518719870923394 0.5000000000000000	-0.544669
F	0.4518720250923427 0.5481280509076637 -0.0000000000000000	-0.544669
F	0.9518719870923394 0.0481280039076633 0.5000000000000000	-0.544669
F	0.5481280509076637 0.4518720250923427 -0.0000000000000000	-0.544669
F	0.0481280039076633 0.9518719870923394 0.5000000000000000	-0.544669
N	0.5000000000000000 0.4145033063955615 0.5000000000000000	-0.231957
N	-0.0000000000000000 0.9145033443955645 -0.0000000000000000	-0.231957
N	0.5000000000000000 0.5854966936044387 0.5000000000000000	-0.231957
N	-0.0000000000000000 0.0854967026044358 -0.0000000000000000	-0.231958
N	0.5854966936044387 0.5000000000000000 0.5000000000000000	-0.231957
N	0.0854967026044358 0.0000000000000000 -0.0000000000000000	-0.231958
N	0.4145033063955615 0.5000000000000000 0.5000000000000000	-0.231957
N	0.9145033443955645 0.0000000000000000 -0.0000000000000000	-0.231957
	  	
