#======================================================================

# CRYSTAL DATA

#----------------------------------------------------------------------

data_VESTA_phase_1


_pd_phase_name                         SIFSIX_13_Cu_i
_cell_length_a                         15.12300
_cell_length_b                         15.12300
_cell_length_c                         7.83490
_cell_angle_alpha                      90
_cell_angle_beta                       90
_cell_angle_gamma                      90
_symmetry_space_group_name_H-M         P 1
_symmetry_Int_Tables_number            1

loop_
_symmetry_equiv_pos_as_xyz
   x, y, z

loop_
   _atom_site_label
   _atom_site_fract_x
   _atom_site_fract_y
   _atom_site_fract_z
   _atom_site_charge
C	0.5402188159999994 0.6807144710000017 0.8686070749999999	0.108430
C	0.5436697129999999 0.7726693449999971 0.8672883460000023	-0.146728
C	0.4634710200000001 0.3221658490000010 0.8756831000000034	0.106146
C	0.4599555480000035 0.2302961230000022 0.8754841470000017	-0.138467
C	0.8212700329999976 0.9738058339999967 0.3632045960000028	0.107933
C	0.7295357469999999 0.9704265109999994 0.3604336710000027	-0.133274
C	0.3217020660000003 0.5412197859999992 0.8666335460000028	0.105762
C	0.2297891899999982 0.5456497079999991 0.8653121400000003	-0.145544
C	0.1809694740000012 0.9707828069999991 0.3535162490000019	0.101744
C	0.2728333989999996 0.9693926859999991 0.3510570219999991	-0.134109
C	0.6798671170000006 0.4630222770000003 0.8812549539999992	0.106553
C	0.7716656630000003 0.4597758549999966 0.8807855969999991	-0.136959
C	0.4547226990000013 0.6807462530000024 0.1165818910000027	0.108648
C	0.4510002290000017 0.7725459979999982 0.1180994970000029	-0.134432
C	0.5397518480000016 0.3236890920000022 0.1348578289999978	0.106116
C	0.5424653709999987 0.2317189560000017 0.1390738899999988	-0.146127
C	0.1789863580000031 0.0194012979999982 0.6362224619999992	0.108907
C	0.2707093719999989 0.0221385529999978 0.6422407900000024	-0.135212
C	0.6783072360000020 0.5435015289999967 0.1355178479999992	0.108261
C	0.7703324240000029 0.5469988389999969 0.1387727059999975	-0.146248
C	0.8213376980000007 0.0301140629999992 0.6406290780000035	0.100785
C	0.7295279269999995 0.0310148550000022 0.6460936949999976	-0.134299
C	0.3207573139999980 0.4581628449999968 0.1177741589999997	0.108809
C	0.2289025489999972 0.4553604689999986 0.1193039750000011	-0.138172
C	0.9655493590000006 0.8192459580000033 0.6375684559999968	0.110359
C	0.9642496049999991 0.7273543969999992 0.6433511919999972	-0.133579
C	0.9837799689999969 0.1776853269999989 0.6409287560000010	0.099067
C	0.9794996910000009 0.2693222469999981 0.6436994370000022	-0.135714
C	0.0208888229999999 0.8182317449999985 0.3595536870000018	0.100678
C	0.0242212480000035 0.7265451330000019 0.3573492829999978	-0.134805
C	0.0315360789999986 0.1772736320000021 0.3576156100000034	0.109455
C	0.0313526500000023 0.2691252119999987 0.3518068859999985	-0.132806
C	0.0036863130000029 0.3158996800000011 0.4965708980000016	0.043092
C	0.0007754709999972 0.4126129939999998 0.4967838490000034	0.254067
C	0.4975910940000006 0.8193637569999979 0.9930430180000016	0.056247
C	0.4986068839999973 0.9168368639999969 0.9977688479999998	0.246515
C	0.9952412140000035 0.6801643880000015 0.5015796989999970	0.038260
C	0.9971379679999970 0.5832791369999981 0.5011144189999968	0.246901
C	0.5009887679999991 0.1842578790000005 0.0085450400000013	0.056752
C	0.5002319080000035 0.0866530369999978 0.0094717830000022	0.248558
C	0.6827844540000001 0.9999725050000023 0.5039634589999977	0.038277
C	0.5859788500000036 0.9978570549999972 0.5048913409999969	0.247064
C	0.1825891690000034 0.5011304029999977 0.9923804279999970	0.056749
C	0.0850797869999980 0.5021848180000035 0.9945876620000007	0.247595
C	0.3185110750000035 0.9959324900000013 0.4977933750000005	0.041977
C	0.4152982339999980 0.9961518169999977 0.5013058870000009	0.254650
C	0.8177398679999968 0.5036230540000020 0.0104964929999980	0.055467
C	0.9153044139999977 0.5034923600000027 0.0078589120000032	0.248097
H	0.5703779540000014 0.6412835730000026 0.7674238580000008	0.114413
H	0.5808001389999973 0.8066832239999968 0.7678088629999991	0.125160
H	0.4365592489999983 0.3610823249999981 0.7703252080000027	0.114352
H	0.4282090339999982 0.1949288870000032 0.7710568749999993	0.119319
H	0.8601323090000008 0.9534528989999984 0.2528021919999972	0.114032
H	0.6954663739999987 0.9460806680000005 0.2473767079999973	0.121019
H	0.3613067599999980 0.5700875570000008 0.7641732299999973	0.114851
H	0.1961024399999971 0.5822265199999990 0.7646878070000014	0.125806
H	0.1433068589999991 0.9539368310000000 0.2393430249999966	0.108539
H	0.3074338099999991 0.9498196919999984 0.2351637240000031	0.116870
H	0.6408587920000031 0.4345818709999989 0.7777264719999977	0.114320
H	0.8070414749999983 0.4264305510000028 0.7782566289999977	0.118366
H	0.4244780820000003 0.6411956020000034 0.2173679149999970	0.114481
H	0.4158032280000015 0.8072892420000031 0.2190324540000006	0.117143
H	0.5668758509999989 0.3635559319999970 0.2387829400000001	0.114644
H	0.5750511029999998 0.1981792819999981 0.2448304199999995	0.124974
H	0.1393069040000015 0.0372241820000028 0.7471896369999982	0.112960
H	0.3038437049999985 0.0432267790000012 0.7586537769999993	0.120202
H	0.6383701459999997 0.5719055479999966 0.2380176019999993	0.114821
H	0.8037852479999970 0.5817696419999976 0.2420358660000019	0.124963
H	0.8597561489999990 0.0502755500000021 0.7517779220000023	0.107662
H	0.6956076310000014 0.0538885690000015 0.7604397329999983	0.122199
H	0.3599280219999983 0.4286237560000004 0.2198924460000029	0.113381
H	0.1937631229999965 0.4211819370000001 0.2210329440000010	0.117911
H	0.9448546329999985 0.8585651120000009 0.7472215279999972	0.114903
H	0.9411373020000013 0.6937203359999984 0.7578863239999976	0.121233
H	0.9684496690000017 0.1393533800000029 0.7548903969999969	0.107219
H	0.9589568170000007 0.3034005430000022 0.7595459329999983	0.120954
H	0.0396297970000035 0.8563653490000007 0.2471681230000016	0.107060
H	0.0482520899999983 0.6923588450000011 0.2442667429999972	0.120200
H	0.0501100850000000 0.1382259250000004 0.2461928769999986	0.115285
H	0.0505187569999990 0.3030660980000022 0.2349278129999988	0.118908
N	0.9440465670000009 0.5396285630000008 0.6115393879999971	-0.135127
N	0.4205645360000005 0.0461865520000018 0.0089389640000022	-0.147744
N	0.5430109759999979 0.0506236989999991 0.6170143510000017	-0.135028
N	0.9558490350000000 0.4239464759999976 0.0023709350000019	-0.147393
N	0.0515568699999989 0.5432204020000029 0.3878751629999968	-0.133432
N	0.5790729559999974 0.0446653819999980 0.0113343780000008	-0.147070
N	0.9571076739999995 0.5823976679999987 0.0053324180000018	-0.146843
N	0.5453371139999987 0.9421567489999987 0.3948442559999989	-0.132942
N	0.0539719479999974 0.4562889190000021 0.3868274470000017	-0.129892
N	0.5782039099999992 0.9573468649999981 0.0010464479999968	-0.145848
N	0.4583396370000017 0.9414597339999986 0.3931819390000015	-0.129189
N	0.0443778229999978 0.5817051929999977 0.9939859930000026	-0.146297
N	0.9453159890000009 0.4525926190000007 0.6078996769999989	-0.130460
N	0.4199169299999994 0.9587609490000020 0.0062245610000033	-0.144670
N	0.0432715840000029 0.4232646900000034 0.9990925680000018	-0.146658
N	0.4560034089999974 0.0496540350000032 0.6149186760000021	-0.134397
N	0.0076160719999976 0.1328314980000016 0.4995719369999989	-0.212863
N	0.4978674279999993 0.6362213990000001 0.9931346139999988	-0.221335
N	0.9936132890000025 0.8634260569999981 0.4981226620000001	-0.212985
N	0.5017587449999965 0.3673784799999993 0.0041674200000017	-0.223941
N	0.8659348210000033 0.0026077959999995 0.5014175060000028	-0.211862
N	0.3657209490000000 0.4994840960000033 0.9925492559999967	-0.222377
N	0.1353172119999968 0.9943292860000028 0.4941569810000033	-0.213132
N	0.6345955560000007 0.5032758709999996 0.0074082799999999	-0.221720
Cu	0.0005893240000034 0.9981454340000013 0.4978550570000024	0.708291
Cu	0.5001985480000002 0.5017952259999987 0.9994083130000035	0.718270
Si	0.9998149780000034 0.9969820179999971 0.9979760180000028	1.726169
Si	0.4991310170000034 0.5033288739999975 0.4989469889999967	1.739050
F	0.9976646550000012 0.0012357040000026 0.2182026950000022	-0.535193
F	0.5056802679999990 0.5003085580000004 0.7193730910000014	-0.539532
F	0.0023139709999995 0.9929949739999984 0.7779226870000002	-0.533515
F	0.4927404589999966 0.5060178029999989 0.2784568610000022	-0.539731
F	0.0801938139999976 0.0769083019999997 0.9954952160000019	-0.541853
F	0.5772117690000016 0.5858165929999970 0.4944228210000006	-0.554624
F	0.9195978079999989 0.9172439239999974 0.0008931340000018	-0.540662
F	0.4212364219999998 0.4210047030000013 0.5036639030000032	-0.557615
F	0.9201191350000002 0.0773905309999989 0.9880593219999980	-0.537570
F	0.4172710080000002 0.5815794490000030 0.5109809060000003	-0.554571
F	0.0797546240000031 0.9167151549999986 0.0073497950000032	-0.538089
F	0.5816660320000011 0.4256037239999984 0.4862825250000000	-0.555214
	  	
