#======================================================================

# CRYSTAL DATA

#----------------------------------------------------------------------

data_VESTA_phase_1


_pd_phase_name                         SIFSIX_2_Cd
_cell_length_a                         14.29219
_cell_length_b                         14.29219
_cell_length_c                         7.95622
_cell_angle_alpha                      90
_cell_angle_beta                       90
_cell_angle_gamma                      90
_symmetry_space_group_name_H-M         P 1
_symmetry_Int_Tables_number            1

loop_
_symmetry_equiv_pos_as_xyz
   x, y, z

loop_
   _atom_site_label
   _atom_site_fract_x
   _atom_site_fract_y
   _atom_site_fract_z
   _atom_site_charge
C	0.5305761734804626 0.7102823913587455 0.1356996685988303	0.099615
C	0.5318931070887878 0.8074566842579053 0.1405345862058678	-0.167181
C	0.4694238965195361 0.2897176086412540 0.1356996685988303	0.099613
C	0.4681068579112124 0.1925432977420931 0.1405345862058678	-0.167179
C	0.2897176086412540 0.5305761734804626 0.1356996685988303	0.099615
C	0.1925432977420931 0.5318931070887878 0.1405345862058678	-0.167181
C	0.7102823913587455 0.4694238965195361 0.1356996685988303	0.099613
C	0.8074566842579053 0.4681068579112124 0.1405345862058678	-0.167179
C	0.4694238965195361 0.7102823913587455 0.8643003314011699	0.099616
C	0.4681068579112124 0.8074566842579053 0.8594653837941294	-0.167180
C	0.5305761734804626 0.2897176086412540 0.8643003314011699	0.099613
C	0.5318931070887878 0.1925432977420931 0.8594653837941294	-0.167178
C	0.7102823913587455 0.5305761734804626 0.8643003314011699	0.099614
C	0.8074566842579053 0.5318931070887878 0.8594653837941294	-0.167178
C	0.2897176086412540 0.4694238965195361 0.8643003314011699	0.099616
C	0.1925432977420931 0.4681068579112124 0.8594653837941294	-0.167180
C	0.5000000000000000 0.1418135060796344 -0.0000000000000000	0.169538
C	0.5000000000000000 0.0426686907508248 -0.0000000000000000	-0.094037
C	0.5000000000000000 0.8581864939203655 -0.0000000000000000	0.169509
C	0.5000000000000000 0.9573312522491813 -0.0000000000000000	-0.093803
C	0.8581864939203655 0.5000000000000000 -0.0000000000000000	0.169538
C	0.9573312522491813 0.5000000000000000 -0.0000000000000000	-0.094037
C	0.1418135060796344 0.5000000000000000 -0.0000000000000000	0.169509
C	0.0426686907508248 0.5000000000000000 -0.0000000000000000	-0.093803
H	0.5536270915693745 0.6685591584603016 0.2431824020480362	0.109015
H	0.5573591743169948 0.8437369883634388 0.2516260557662761	0.127146
H	0.4463729084306252 0.3314407715396996 0.2431824020480362	0.109015
H	0.4426408606830043 0.1562629416365622 0.2516260557662761	0.127147
H	0.3314407715396996 0.5536270915693745 0.2431824020480362	0.109015
H	0.1562629416365622 0.5573591743169948 0.2516260557662761	0.127146
H	0.6685591584603016 0.4463729084306252 0.2431824020480362	0.109015
H	0.8437369883634388 0.4426408606830043 0.2516260557662761	0.127147
H	0.4463729084306252 0.6685591584603016 0.7568175979519638	0.109015
H	0.4426408606830043 0.8437369883634388 0.7483739742337260	0.127145
H	0.5536270915693745 0.3314407715396996 0.7568175979519638	0.109015
H	0.5573591743169948 0.1562629416365622 0.7483739742337260	0.127146
H	0.6685591584603016 0.5536270915693745 0.7568175979519638	0.109015
H	0.8437369883634388 0.5573591743169948 0.7483739742337260	0.127146
H	0.3314407715396996 0.4463729084306252 0.7568175979519638	0.109015
H	0.1562629416365622 0.4426408606830043 0.7483739742337260	0.127145
Cd	0.5000000000000000 0.5000000000000000 -0.0000000000000000	0.825733
Si	0.5000000000000000 0.5000000000000000 0.5000000000000000	1.738969
F	0.5000000000000000 0.5000000000000000 0.7186463506905642	-0.511027
F	0.5000000000000000 0.5000000000000000 0.2813536793094313	-0.511027
F	0.5845273772175811 0.5845273772175811 0.5000000000000000	-0.560137
F	0.4154726577824180 0.5845273772175811 0.5000000000000000	-0.560137
F	0.4154726577824180 0.4154726577824180 0.5000000000000000	-0.560137
F	0.5845273772175811 0.4154726577824180 0.5000000000000000	-0.560137
N	0.5000000000000000 0.3370418406015491 -0.0000000000000000	-0.238321
N	0.5000000000000000 0.6629581243984515 -0.0000000000000000	-0.238320
N	0.6629581243984515 0.5000000000000000 -0.0000000000000000	-0.238321
N	0.3370418406015491 0.5000000000000000 -0.0000000000000000	-0.238320
	  	
