#======================================================================

# CRYSTAL DATA

#----------------------------------------------------------------------

data_VESTA_phase_1


_pd_phase_name                         SIFSIX_6_Cu_i
_cell_length_a                         17.52800
_cell_length_b                         17.52800
_cell_length_c                         15.22796
_cell_angle_alpha                      90
_cell_angle_beta                       90
_cell_angle_gamma                      90
_symmetry_space_group_name_H-M         P 1
_symmetry_Int_Tables_number            1

loop_
_symmetry_equiv_pos_as_xyz
   x, y, z

loop_
   _atom_site_label
   _atom_site_fract_x
   _atom_site_fract_y
   _atom_site_fract_z
   _atom_site_charge
N	0.2440002516583080 0.1346220383175503 0.1281052354488572	-0.232710
N	0.2559997483416919 0.3653779756824509 0.1281052354488572	-0.232709
N	0.3653779756824509 0.2440002516583080 0.1281052354488572	-0.232709
N	0.1346220383175503 0.2559997483416919 0.1281052354488572	-0.232709
N	0.7559997213416934 0.6346220513175550 0.3718947495511451	-0.232709
N	0.7440002786583066 0.8653779486824450 0.3718947495511451	-0.232708
N	0.6346220513175550 0.7440002786583066 0.3718947495511451	-0.232709
N	0.8653779486824450 0.7559997213416934 0.3718947495511451	-0.232709
N	0.7559997213416934 0.8653779486824450 0.8718947495511451	-0.232709
N	0.7440002786583066 0.6346220513175550 0.8718947495511451	-0.232710
N	0.6346220513175550 0.7559997213416934 0.8718947495511451	-0.232710
N	0.8653779486824450 0.7440002786583066 0.8718947495511451	-0.232710
N	0.2440002516583080 0.3653779756824509 0.6281052504488549	-0.232709
N	0.2559997483416919 0.1346220383175503 0.6281052504488549	-0.232710
N	0.3653779756824509 0.2559997483416919 0.6281052504488549	-0.232710
N	0.1346220383175503 0.2440002516583080 0.6281052504488549	-0.232710
C	0.2005152771434749 0.0984842803974198 0.1879028578596291	0.104255
C	0.1917639282379155 0.0197921766517961 0.1867541834595520	-0.177977
C	0.2322896587244458 0.9763235124410495 0.1250952018567872	0.110761
C	0.2792310610684615 0.0150450031387595 0.0652939788759947	-0.176195
C	0.2821587277093983 0.0941687210662976 0.0671921081745898	0.105781
C	0.2261317468228513 0.8925894811614019 0.1237395707102013	0.060218
C	0.2913800427151106 0.8481299492642430 0.1208473468306624	-0.174339
C	0.2868785755499190 0.7677322358649912 0.1219906583430463	0.087373
C	0.1469137922917312 0.7788638100825701 0.1246346679706346	-0.123707
C	0.1532543001237311 0.8570382603226884 0.1267567583506957	-0.136247
C	0.2994846828565289 0.4015157326025779 0.1879028578596291	0.104254
C	0.3082360317620812 0.4802078043482059 0.1867541834595520	-0.177976
C	0.2677103412755543 0.5236764875589505 0.1250952018567872	0.110762
C	0.2207689519315359 0.4849549938612366 0.0652939788759947	-0.176196
C	0.2178412862906028 0.4058312859337066 0.0671921081745898	0.105779
C	0.2738682531771486 0.6074105188385981 0.1237395707102013	0.060218
C	0.2086199982848892 0.6518700507357570 0.1208473468306624	-0.174338
C	0.2131213974500824 0.7322677641350088 0.1219906583430463	0.087375
C	0.3530861937082674 0.7211361899174299 0.1246346679706346	-0.123706
C	0.3467456998762689 0.6429617396773116 0.1267567583506957	-0.136246
C	0.4015157326025778 0.2005152771434749 0.1879028578596291	0.104254
C	0.4802078043482059 0.1917639282379155 0.1867541834595520	-0.177975
C	0.5236764875589505 0.2322896587244458 0.1250952018567872	0.110761
C	0.4849549938612366 0.2792310610684615 0.0652939788759947	-0.176193
C	0.4058312859337066 0.2821587277093983 0.0671921081745898	0.105778
C	0.6074105188385981 0.2261317468228513 0.1237395707102013	0.060219
C	0.6518700507357570 0.2913800427151106 0.1208473468306624	-0.174339
C	0.7322677641350088 0.2868785755499190 0.1219906583430463	0.087373
C	0.7211361899174299 0.1469137922917312 0.1246346679706346	-0.123707
C	0.6429617396773116 0.1532543001237311 0.1267567583506957	-0.136247
C	0.0984842803974198 0.2994846828565289 0.1879028578596291	0.104253
C	0.0197921766517961 0.3082360317620812 0.1867541834595520	-0.177974
C	0.9763235124410495 0.2677103412755543 0.1250952018567872	0.110762
C	0.0150450031387595 0.2207689519315359 0.0652939788759947	-0.176195
C	0.0941687210662976 0.2178412862906028 0.0671921081745898	0.105779
C	0.8925894811614019 0.2738682531771486 0.1237395707102013	0.060218
C	0.8481299492642430 0.2086199982848892 0.1208473468306624	-0.174341
C	0.7677322358649912 0.2131213974500824 0.1219906583430463	0.087376
C	0.7788638100825701 0.3530861937082674 0.1246346679706346	-0.123706
C	0.8570382603226884 0.3467456998762689 0.1267567583506957	-0.136248
C	0.7994847358565227 0.5984842673974222 0.3120971581403723	0.104256
C	0.8082360847620816 0.5197921416517898 0.3132457855404489	-0.177977
C	0.7677103412755543 0.4763235124410496 0.3749047661432102	0.110772
C	0.7207689119315400 0.5150450601387607 0.4347060251240056	-0.176196
C	0.7178412462905998 0.5941687680662979 0.4328079318254065	0.105780
C	0.7738683331771481 0.3925895341614026 0.3762604212897980	0.060250
C	0.7086199842848881 0.3481298962642420 0.3791526451693370	-0.174377
C	0.7131214244500812 0.2677321558649918 0.3780093416569537	0.087374
C	0.8530862207082733 0.2788637830825711 0.3753653160293639	-0.123704
C	0.8467456468762681 0.3570382343226862 0.3732432736493070	-0.136268
C	0.7005152641434773 0.9015157326025778 0.3120971581403723	0.104253
C	0.6917639152379184 0.9802078043482058 0.3132457855404489	-0.177978
C	0.7322896587244457 0.0236764935589508 0.3749047661432102	0.110774
C	0.7792310880684600 0.9849549938612366 0.4347060251240056	-0.176195
C	0.7821587537094002 0.9058313389337074 0.4328079318254065	0.105779
C	0.7261316668228519 0.1074104928385961 0.3762604212897980	0.060250
C	0.7913800157151119 0.1518700907357534 0.3791526451693370	-0.174378
C	0.7868785755499188 0.2322678171350096 0.3780093416569537	0.087377
C	0.6469137792917267 0.2211362039174313 0.3753653160293639	-0.123702
C	0.6532543531237319 0.1429617396773116 0.3732432736493070	-0.136267
C	0.5984842673974222 0.7005152641434773 0.3120971581403723	0.104255
C	0.5197921416517898 0.6917639152379184 0.3132457855404489	-0.177977
C	0.4763235124410496 0.7322896587244457 0.3749047661432102	0.110774
C	0.5150450601387607 0.7792310880684600 0.4347060251240056	-0.176193
C	0.5941687680662979 0.7821587537094002 0.4328079318254065	0.105779
C	0.3925895341614026 0.7261316668228519 0.3762604212897980	0.060250
C	0.3481298962642420 0.7913800157151119 0.3791526451693370	-0.174379
C	0.2677321558649918 0.7868785755499188 0.3780093416569537	0.087374
C	0.2788637830825711 0.6469137792917267 0.3753653160293639	-0.123703
C	0.3570382343226862 0.6532543531237319 0.3732432736493070	-0.136269
C	0.9015157326025778 0.7994847358565227 0.3120971581403723	0.104253
C	0.9802078043482058 0.8082360847620816 0.3132457855404489	-0.177975
C	0.0236764935589508 0.7677103412755543 0.3749047661432102	0.110772
C	0.9849549938612366 0.7207689119315400 0.4347060251240056	-0.176194
C	0.9058313389337074 0.7178412462905998 0.4328079318254065	0.105779
C	0.1074104928385961 0.7738683331771481 0.3762604212897980	0.060251
C	0.1518700907357534 0.7086199842848881 0.3791526451693370	-0.174379
C	0.2322678171350096 0.7131214244500812 0.3780093416569537	0.087377
C	0.2211362039174313 0.8530862207082733 0.3753653160293639	-0.123702
C	0.1429617396773116 0.8467456468762681 0.3732432736493070	-0.136268
C	0.7994847358565227 0.9015157326025778 0.8120971261403698	0.104253
C	0.8082360847620816 0.9802078043482058 0.8132458485404506	-0.177976
C	0.7677103412755543 0.0236764935589508 0.8749048301432084	0.110773
C	0.7207689119315400 0.9849549938612366 0.9347059941240062	-0.176196
C	0.7178412462905998 0.9058313389337074 0.9328078998254040	0.105779
C	0.7738683331771481 0.1074104928385961 0.8762604212897982	0.060250
C	0.7086199842848881 0.1518700907357534 0.8791526771693396	-0.174376
C	0.7131214244500812 0.2322678171350096 0.8780093736569493	0.087374
C	0.8530862207082733 0.2211362039174313 0.8753653790293657	-0.123704
C	0.8467456468762681 0.1429617396773116 0.8732433056493025	-0.136268
C	0.7005152641434773 0.5984842673974222 0.8120971261403698	0.104255
C	0.6917639152379184 0.5197921416517898 0.8132458485404506	-0.177976
C	0.7322896587244457 0.4763235124410496 0.8749048301432084	0.110772
C	0.7792310880684600 0.5150450601387607 0.9347059941240062	-0.176195
C	0.7821587537094002 0.5941687680662979 0.9328078998254040	0.105780
C	0.7261316668228519 0.3925895341614026 0.8762604212897982	0.060250
C	0.7913800157151119 0.3481298962642420 0.8791526771693396	-0.174378
C	0.7868785755499188 0.2677321558649918 0.8780093736569493	0.087377
C	0.6469137792917267 0.2788637830825711 0.8753653790293657	-0.123701
C	0.6532543531237319 0.3570382343226862 0.8732433056493025	-0.136269
C	0.5984842673974222 0.7994847358565227 0.8120971261403698	0.104253
C	0.5197921416517898 0.8082360847620816 0.8132458485404506	-0.177974
C	0.4763235124410496 0.7677103412755543 0.8749048301432084	0.110772
C	0.5150450601387607 0.7207689119315400 0.9347059941240062	-0.176195
C	0.5941687680662979 0.7178412462905998 0.9328078998254040	0.105779
C	0.3925895341614026 0.7738683331771481 0.8762604212897982	0.060250
C	0.3481298962642420 0.7086199842848881 0.8791526771693396	-0.174378
C	0.2677321558649918 0.7131214244500812 0.8780093736569493	0.087374
C	0.2788637830825711 0.8530862207082733 0.8753653790293657	-0.123703
C	0.3570382343226862 0.8467456468762681 0.8732433056493025	-0.136270
C	0.9015157326025778 0.7005152641434773 0.8120971261403698	0.104254
C	0.9802078043482058 0.6917639152379184 0.8132458485404506	-0.177974
C	0.0236764935589508 0.7322896587244457 0.8749048301432084	0.110772
C	0.9849549938612366 0.7792310880684600 0.9347059941240062	-0.176193
C	0.9058313389337074 0.7821587537094002 0.9328078998254040	0.105778
C	0.1074104928385961 0.7261316668228519 0.8762604212897982	0.060251
C	0.1518700907357534 0.7913800157151119 0.8791526771693396	-0.174378
C	0.2322678171350096 0.7868785755499188 0.8780093736569493	0.087377
C	0.2211362039174313 0.6469137792917267 0.8753653790293657	-0.123701
C	0.1429617396773116 0.6532543531237319 0.8732433056493025	-0.136270
C	0.2005152771434749 0.4015157326025778 0.6879028738596302	0.104253
C	0.1917639282379155 0.4802078043482059 0.6867541514595494	-0.177977
C	0.2322896587244458 0.5236764875589505 0.6250951698567916	0.110762
C	0.2792310610684615 0.4849549938612366 0.5652940058759938	-0.176195
C	0.2821587277093983 0.4058312859337066 0.5671921001745960	0.105779
C	0.2261317468228513 0.6074105188385981 0.6237395787102018	0.060218
C	0.2913800427151106 0.6518700507357570 0.6208473228306604	-0.174341
C	0.2868785755499190 0.7322677641350088 0.6219906263430507	0.087372
C	0.1469137922917312 0.7211361899174299 0.6246346209706343	-0.123707
C	0.1532543001237311 0.6429617396773116 0.6267566943506975	-0.136248
C	0.2994846828565289 0.0984842803974198 0.6879028738596302	0.104256
C	0.3082360317620812 0.0197921766517961 0.6867541514595494	-0.177977
C	0.2677103412755543 0.9763235124410495 0.6250951698567916	0.110761
C	0.2207689519315359 0.0150450031387595 0.5652940058759938	-0.176196
C	0.2178412862906028 0.0941687210662976 0.5671921001745960	0.105780
C	0.2738682531771486 0.8925894811614019 0.6237395787102018	0.060218
C	0.2086199982848892 0.8481299492642430 0.6208473228306604	-0.174341
C	0.2131213974500824 0.7677322358649912 0.6219906263430507	0.087376
C	0.3530861937082674 0.7788638100825701 0.6246346209706343	-0.123704
C	0.3467456998762689 0.8570382603226884 0.6267566943506975	-0.136250
C	0.4015157326025778 0.2994846828565289 0.6879028738596302	0.104253
C	0.4802078043482059 0.3082360317620812 0.6867541514595494	-0.177974
C	0.5236764875589505 0.2677103412755543 0.6250951698567916	0.110761
C	0.4849549938612366 0.2207689519315359 0.5652940058759938	-0.176194
C	0.4058312859337066 0.2178412862906028 0.5671921001745960	0.105779
C	0.6074105188385981 0.2738682531771486 0.6237395787102018	0.060219
C	0.6518700507357570 0.2086199982848892 0.6208473228306604	-0.174341
C	0.7322677641350088 0.2131213974500824 0.6219906263430507	0.087373
C	0.7211361899174299 0.3530861937082674 0.6246346209706343	-0.123706
C	0.6429617396773116 0.3467456998762689 0.6267566943506975	-0.136249
C	0.0984842803974198 0.2005152771434749 0.6879028738596302	0.104254
C	0.0197921766517961 0.1917639282379155 0.6867541514595494	-0.177977
C	0.9763235124410495 0.2322896587244458 0.6250951698567916	0.110762
C	0.0150450031387595 0.2792310610684615 0.5652940058759938	-0.176193
C	0.0941687210662976 0.2821587277093983 0.5671921001745960	0.105778
C	0.8925894811614019 0.2261317468228513 0.6237395787102018	0.060219
C	0.8481299492642430 0.2913800427151106 0.6208473228306604	-0.174343
C	0.7677322358649912 0.2868785755499190 0.6219906263430507	0.087376
C	0.7788638100825701 0.1469137922917312 0.6246346209706343	-0.123704
C	0.8570382603226884 0.1532543001237311 0.6267566943506975	-0.136251
H	0.1739061098250600 0.1341162993622773 0.2381251058719358	0.110060
H	0.1555363949732423 0.9922121479082432 0.2354697372064145	0.113967
H	0.3115009813230811 0.9837179208916671 0.0158785931880128	0.114333
H	0.3140008822639901 0.1268478818949723 0.0183957397459492	0.109582
H	0.3474781900831377 0.8751418828088087 0.1202836805633622	0.108030
H	0.0909305181161574 0.7514742049569753 0.1254565501532277	0.108608
H	0.1023472905451605 0.8928231284796879 0.1288478197987192	0.099728
H	0.3260938631749413 0.3658837276377285 0.2381251058719358	0.110059
H	0.3444636450267540 0.5077878520917568 0.2354697372064145	0.113967
H	0.1884990316769163 0.5162820791083329 0.0158785931880128	0.114334
H	0.1859991177360099 0.3731521181050277 0.0183957397459492	0.109582
H	0.1525218239168635 0.6248581171911913 0.1202836805633622	0.108031
H	0.4090694748838384 0.7485257950430247 0.1254565501532277	0.108611
H	0.3976527224548442 0.6071768715203121 0.1288478197987192	0.099729
H	0.3658837276377285 0.1739061098250600 0.2381251058719358	0.110059
H	0.5077878520917568 0.1555363949732423 0.2354697372064145	0.113969
H	0.5162820791083329 0.3115009813230811 0.0158785931880128	0.114335
H	0.3731521181050277 0.3140008822639901 0.0183957397459492	0.109582
H	0.6248581171911913 0.3474781900831377 0.1202836805633622	0.108034
H	0.7485257950430247 0.0909305181161574 0.1254565501532277	0.108608
H	0.6071768715203121 0.1023472905451605 0.1288478197987192	0.099733
H	0.1341162993622773 0.3260938631749413 0.2381251058719358	0.110060
H	0.9922121479082432 0.3444636450267540 0.2354697372064145	0.113968
H	0.9837179208916671 0.1884990316769163 0.0158785931880128	0.114335
H	0.1268478818949723 0.1859991177360099 0.0183957397459492	0.109583
H	0.8751418828088087 0.1525218239168635 0.1202836805633622	0.108034
H	0.7514742049569753 0.4090694748838384 0.1254565501532277	0.108611
H	0.8928231284796879 0.3976527224548442 0.1288478197987192	0.099733
H	0.8260938631749412 0.6341163263622761 0.2618749101280656	0.110060
H	0.8444635640267579 0.4922122019082407 0.2645302627935856	0.113971
H	0.6884990186769187 0.4837179208916674 0.4841214088119875	0.114334
H	0.6859991707360108 0.6268479088949712 0.4816042582540507	0.109581
H	0.6525218099168623 0.3751418288088113 0.3797163274366385	0.108040
H	0.9090694218838375 0.2514742319569739 0.3745434418467715	0.108609
H	0.8976526954548456 0.3928231544796830 0.3711521882012814	0.099736
H	0.6739061368250588 0.8658836736377239 0.2618749101280656	0.110060
H	0.6555364359732421 0.0077878140917535 0.2645302627935856	0.113972
H	0.8115009813230813 0.0162820781083292 0.4841214088119875	0.114333
H	0.8140008292639892 0.8731520911050288 0.4816042582540507	0.109581
H	0.8474781900831377 0.1248581841911933 0.3797163274366385	0.108043
H	0.5909305251161616 0.2485257410430204 0.3745434418467715	0.108608
H	0.6023473045451544 0.1071768585203146 0.3711521882012814	0.099733
H	0.6341163263622761 0.6739061368250588 0.2618749101280656	0.110061
H	0.4922122019082407 0.6555364359732421 0.2645302627935856	0.113973
H	0.4837179208916674 0.8115009813230813 0.4841214088119875	0.114334
H	0.6268479088949712 0.8140008292639892 0.4816042582540507	0.109582
H	0.3751418288088113 0.8474781900831377 0.3797163274366385	0.108044
H	0.2514742319569739 0.5909305251161616 0.3745434418467715	0.108607
H	0.3928231544796830 0.6023473045451544 0.3711521882012814	0.099738
H	0.8658836736377239 0.8260938631749412 0.2618749101280656	0.110060
H	0.0077878140917535 0.8444635640267579 0.2645302627935856	0.113972
H	0.0162820781083292 0.6884990186769187 0.4841214088119875	0.114336
H	0.8731520911050288 0.6859991707360108 0.4816042582540507	0.109581
H	0.1248581841911933 0.6525218099168623 0.3797163274366385	0.108045
H	0.2485257410430204 0.9090694218838375 0.3745434418467715	0.108609
H	0.1071768585203146 0.8976526954548456 0.3711521882012814	0.099739
H	0.8260938631749412 0.8658836736377239 0.7618748791280666	0.110059
H	0.8444635640267579 0.0077878140917535 0.7645302777935905	0.113967
H	0.6884990186769187 0.0162820781083292 0.9841214398119862	0.114335
H	0.6859991707360108 0.8731520911050288 0.9816041942540524	0.109582
H	0.6525218099168623 0.1248581841911933 0.8797162954366358	0.108036
H	0.9090694218838375 0.2485257410430204 0.8745433788467697	0.108608
H	0.8976526954548456 0.1071768585203146 0.8711521562012786	0.099738
H	0.6739061368250588 0.6341163263622761 0.7618748791280666	0.110060
H	0.6555364359732421 0.4922122019082407 0.7645302777935905	0.113967
H	0.8115009813230813 0.4837179208916674 0.9841214398119862	0.114334
H	0.8140008292639892 0.6268479088949712 0.9816041942540524	0.109582
H	0.8474781900831377 0.3751418288088113 0.8797162954366358	0.108037
H	0.5909305251161616 0.2514742319569739 0.8745433788467697	0.108607
H	0.6023473045451544 0.3928231544796830 0.8711521562012786	0.099738
H	0.6341163263622761 0.8260938631749412 0.7618748791280666	0.110060
H	0.4922122019082407 0.8444635640267579 0.7645302777935905	0.113967
H	0.4837179208916674 0.6884990186769187 0.9841214398119862	0.114336
H	0.6268479088949712 0.6859991707360108 0.9816041942540524	0.109582
H	0.3751418288088113 0.6525218099168623 0.8797162954366358	0.108039
H	0.2514742319569739 0.9090694218838375 0.8745433788467697	0.108608
H	0.3928231544796830 0.8976526954548456 0.8711521562012786	0.099742
H	0.8658836736377239 0.6739061368250588 0.7618748791280666	0.110059
H	0.0077878140917535 0.6555364359732421 0.7645302777935905	0.113969
H	0.0162820781083292 0.8115009813230813 0.9841214398119862	0.114336
H	0.8731520911050288 0.8140008292639892 0.9816041942540524	0.109582
H	0.1248581841911933 0.8474781900831377 0.8797162954366358	0.108042
H	0.2485257410430204 0.5909305251161616 0.8745433788467697	0.108606
H	0.1071768585203146 0.6023473045451544 0.8711521562012786	0.099742
H	0.1739061098250600 0.3658837276377285 0.7381251208719334	0.110060
H	0.1555363949732423 0.5077878520917568 0.7354697222064095	0.113971
H	0.3115009813230811 0.5162820791083329 0.5158785911880128	0.114334
H	0.3140008822639901 0.3731521181050277 0.5183957417459494	0.109582
H	0.3474781900831377 0.6248581171911913 0.6202837045633642	0.108038
H	0.0909305181161574 0.7485257950430247 0.6254566211532303	0.108604
H	0.1023472905451605 0.6071768715203121 0.6288478437987214	0.099735
H	0.3260938631749413 0.1341162993622773 0.7381251208719334	0.110061
H	0.3444636450267540 0.9922121479082432 0.7354697222064095	0.113971
H	0.1884990316769163 0.9837179208916671 0.5158785911880128	0.114335
H	0.1859991177360099 0.1268478818949723 0.5183957417459494	0.109583
H	0.1525218239168635 0.8751418828088087 0.6202837045633642	0.108037
H	0.4090694748838384 0.7514742049569753 0.6254566211532303	0.108606
H	0.3976527224548442 0.8928231284796879 0.6288478437987214	0.099737
H	0.3658837276377285 0.3260938631749413 0.7381251208719334	0.110060
H	0.5077878520917568 0.3444636450267540 0.7354697222064095	0.113971
H	0.5162820791083329 0.1884990316769163 0.5158785911880128	0.114337
H	0.3731521181050277 0.1859991177360099 0.5183957417459494	0.109583
H	0.6248581171911913 0.1525218239168635 0.6202837045633642	0.108040
H	0.7485257950430247 0.4090694748838384 0.6254566211532303	0.108605
H	0.6071768715203121 0.3976527224548442 0.6288478437987214	0.099741
H	0.1341162993622773 0.1739061098250600 0.7381251208719334	0.110061
H	0.9922121479082432 0.1555363949732423 0.7354697222064095	0.113972
H	0.9837179208916671 0.3115009813230811 0.5158785911880128	0.114335
H	0.1268478818949723 0.3140008822639901 0.5183957417459494	0.109584
H	0.8751418828088087 0.3474781900831377 0.6202837045633642	0.108041
H	0.7514742049569753 0.0909305181161574 0.6254566211532303	0.108605
H	0.8928231284796879 0.1023472905451605 0.6288478437987214	0.099739
F	0.3056041612112606 0.1688905375752434 0.3785673201088769	-0.566540
F	0.1943958657887381 0.3311094624247567 0.3785673201088769	-0.566539
F	0.3311094624247567 0.3056041612112606 0.3785673201088769	-0.566540
F	0.1688905375752434 0.1943958657887381 0.3785673201088769	-0.566540
F	0.6943958387887392 0.6688904835752461 0.1214326798911230	-0.566523
F	0.8056041612112608 0.8311095164247539 0.1214326798911230	-0.566522
F	0.6688904835752461 0.8056041612112608 0.1214326798911230	-0.566522
F	0.8311095164247539 0.6943958387887392 0.1214326798911230	-0.566524
F	0.6943958387887392 0.8311095164247539 0.6214326478911204	-0.566522
F	0.8056041612112608 0.6688904835752461 0.6214326478911204	-0.566523
F	0.6688904835752461 0.6943958387887392 0.6214326478911204	-0.566523
F	0.8311095164247539 0.8056041612112608 0.6214326478911204	-0.566523
F	0.3056041612112606 0.3311094624247567 0.8785673521088796	-0.566540
F	0.1943958657887381 0.1688905375752434 0.8785673521088796	-0.566540
F	0.3311094624247567 0.1943958657887381 0.8785673521088796	-0.566541
F	0.1688905375752434 0.3056041612112606 0.8785673521088796	-0.566539
F	0.2500000000000000 0.2500000000000000 0.2667428194051475	-0.532827
F	0.2500000000000000 0.2500000000000000 0.4903021957728386	-0.533195
F	0.7500000000000000 0.7500000000000000 0.2332571965948537	-0.532822
F	0.7500000000000000 0.7500000000000000 0.0096978112271656	-0.533191
F	0.7500000000000000 0.7500000000000000 0.7332571485948495	-0.532823
F	0.7500000000000000 0.7500000000000000 0.5096978362271645	-0.533191
F	0.2500000000000000 0.2500000000000000 0.7667428514051505	-0.532828
F	0.2500000000000000 0.2500000000000000 0.9903021637728355	-0.533194
Cu	0.2500000000000000 0.2500000000000000 0.1285258357421455	0.734962
Cu	0.7500000000000000 0.7500000000000000 0.3714741802578557	0.734962
Cu	0.7500000000000000 0.7500000000000000 0.8714741492578570	0.734964
Cu	0.2500000000000000 0.2500000000000000 0.6285258507421430	0.734964
Si	0.2500000000000000 0.2500000000000000 0.3784928184609277	1.751075
Si	0.7500000000000000 0.7500000000000000 0.1215071895390731	1.750999
Si	0.7500000000000000 0.7500000000000000 0.6215071505390732	1.750999
Si	0.2500000000000000 0.2500000000000000 0.8784928494609268	1.751075
	  	
