#======================================================================

# CRYSTAL DATA

#----------------------------------------------------------------------

data_VESTA_phase_1


_pd_phase_name                         SIFSIX_16_Cd_i
_cell_length_a                         25.46541
_cell_length_b                         25.46541
_cell_length_c                         7.85932
_cell_angle_alpha                      90
_cell_angle_beta                       90
_cell_angle_gamma                      90
_symmetry_space_group_name_H-M         P 1
_symmetry_Int_Tables_number            1

loop_
_symmetry_equiv_pos_as_xyz
   x, y, z

loop_
   _atom_site_label
   _atom_site_fract_x
   _atom_site_fract_y
   _atom_site_fract_z
   _atom_site_charge
C	0.4788637621672194 0.3821469709433016 0.3686541617524624	0.103001
C	0.4776015268119748 0.3275976323974983 0.3645585126282350	-0.172045
C	0.9555459782092343 0.6117105073953153 0.9440541187299321	-0.124136
C	0.9557301906101391 0.5571543771521787 0.9448047626469821	-0.124192
C	0.5211362758327766 0.6178530670566942 0.3686541617524624	0.103001
C	0.5223984731880248 0.6724024056024981 0.3645585126282350	-0.172045
C	0.0444539457907663 0.3882894536046855 0.9440541187299321	-0.124135
C	0.0442698283898591 0.4428456608478241 0.9448047626469821	-0.124192
C	0.6178530670566942 0.4788637621672194 0.3686541617524624	0.103001
C	0.6724024056024981 0.4776015268119748 0.3645585126282350	-0.172045
C	0.3882894536046855 0.9555459782092341 0.9440541187299321	-0.124135
C	0.4428456608478241 0.9557301906101391 0.9448047626469821	-0.124192
C	0.3821469709433016 0.5211362758327766 0.3686541617524624	0.103001
C	0.3275976323974983 0.5223984731880248 0.3645585126282350	-0.172045
C	0.6117105073953153 0.0444539457907663 0.9440541187299321	-0.124136
C	0.5571543771521787 0.0442698283898591 0.9448047626469821	-0.124192
C	0.5211362758327766 0.3821469709433016 0.6313458382475380	0.103007
C	0.5223984731880248 0.3275976323974983 0.6354414553717626	-0.172045
C	0.0444539457907663 0.6117105073953153 0.0559458932700689	-0.124134
C	0.0442698283898591 0.5571543771521787 0.0551952133530161	-0.124193
C	0.4788637621672194 0.6178530670566942 0.6313458382475380	0.103007
C	0.4776015268119748 0.6724024056024981 0.6354414553717626	-0.172045
C	0.9555459782092343 0.3882894536046855 0.0559458932700689	-0.124133
C	0.9557301906101391 0.4428456608478241 0.0551952133530161	-0.124192
C	0.3821469709433016 0.4788637621672194 0.6313458382475380	0.103007
C	0.3275976323974983 0.4776015268119748 0.6354414553717626	-0.172045
C	0.6117105073953153 0.9555459782092343 0.0559458932700689	-0.124134
C	0.5571543771521787 0.9557301906101391 0.0551952133530161	-0.124193
C	0.6178530670566942 0.5211362758327766 0.6313458382475380	0.103007
C	0.6724024056024981 0.5223984731880248 0.6354414553717626	-0.172045
C	0.3882894536046855 0.0444539457907663 0.0559458932700689	-0.124133
C	0.4428456608478241 0.0442698283898591 0.0551952133530161	-0.124192
C	0.5444539837907697 0.8882894156046890 0.5559459132700635	-0.124133
C	0.5442698093898609 0.9428456608478244 0.5551952053530153	-0.124192
C	0.0211362298327797 0.1178530100567004 0.1313458382475377	0.102974
C	0.0223984711880249 0.1724023676025017 0.1354414713717639	-0.172043
C	0.4555460542092337 0.1117105553953118 0.5559459132700635	-0.124133
C	0.4557301526101429 0.0571543241521782 0.5551952053530153	-0.124192
C	0.9788637241672234 0.8821469329433059 0.1313458382475377	0.102974
C	0.9776015268119752 0.8275976323974980 0.1354414713717639	-0.172043
C	0.1117105553953118 0.5444539837907697 0.5559459132700635	-0.124133
C	0.0571543241521782 0.5442698093898609 0.5551952053530153	-0.124192
C	0.8821469329433059 0.0211362298327797 0.1313458382475377	0.102974
C	0.8275976323974980 0.0223984711880249 0.1354414713717639	-0.172043
C	0.8882894156046890 0.4555460542092337 0.5559459132700635	-0.124133
C	0.9428456608478244 0.4557301526101429 0.5551952053530153	-0.124192
C	0.1178530100567004 0.9788637241672234 0.1313458382475377	0.102974
C	0.1724023676025017 0.9776015268119752 0.1354414713717639	-0.172043
C	0.4555460542092337 0.8882894156046890 0.4440541187299319	-0.124135
C	0.4557301526101429 0.9428456608478244 0.4448047946469845	-0.124192
C	0.9788637241672234 0.1178530100567004 0.8686541937524576	0.102975
C	0.9776015268119752 0.1724023676025017 0.8645585126282348	-0.172042
C	0.5444539837907697 0.1117105553953118 0.4440541187299319	-0.124135
C	0.5442698093898609 0.0571543241521782 0.4448047946469845	-0.124192
C	0.0211362298327797 0.8821469329433059 0.8686541937524576	0.102975
C	0.0223984711880249 0.8275976323974980 0.8645585126282348	-0.172042
C	0.8882894156046890 0.5444539837907697 0.4440541187299319	-0.124135
C	0.9428456608478244 0.5442698093898609 0.4448047946469845	-0.124192
C	0.1178530100567004 0.0211362298327797 0.8686541937524576	0.102975
C	0.1724023676025017 0.0223984711880249 0.8645585126282348	-0.172042
C	0.1117105553953118 0.4555460542092337 0.4440541187299319	-0.124135
C	0.0571543241521782 0.4557301526101429 0.4448047946469845	-0.124192
C	0.8821469329433059 0.9788637241672234 0.8686541937524576	0.102975
C	0.8275976323974980 0.9776015268119752 0.8645585126282348	-0.172042
C	0.5000000000000000 0.2991122111517677 0.5000000000000000	0.174691
C	0.5000000000000000 0.2434398336081866 0.5000000000000000	-0.115511
C	0.5000000000000000 0.1955426927981011 0.5000000000000000	-0.094823
C	0.5000000000000000 0.1398957954973323 0.5000000000000000	0.121206
C	0.5000000000000000 0.0289175697571701 0.5000000000000000	0.064258
C	-0.0000000000000000 0.7991121921517624 -0.0000000000000000	0.174691
C	-0.0000000000000000 0.7434398136081853 -0.0000000000000000	-0.115510
C	-0.0000000000000000 0.6955426547981052 -0.0000000000000000	-0.094824
C	-0.0000000000000000 0.6398957574973292 -0.0000000000000000	0.121207
C	-0.0000000000000000 0.5289175837571714 -0.0000000000000000	0.064258
C	0.5000000000000000 0.7008877698482344 0.5000000000000000	0.174691
C	0.5000000000000000 0.7565602243918107 0.5000000000000000	-0.115511
C	0.5000000000000000 0.8044573072018988 0.5000000000000000	-0.094824
C	0.5000000000000000 0.8601042045026677 0.5000000000000000	0.121206
C	0.5000000000000000 0.9710824162428286 0.5000000000000000	0.064258
C	-0.0000000000000000 0.2008877888482324 -0.0000000000000000	0.174691
C	-0.0000000000000000 0.2565601663918131 -0.0000000000000000	-0.115511
C	-0.0000000000000000 0.3044572872018971 -0.0000000000000000	-0.094823
C	-0.0000000000000000 0.3601042045026677 -0.0000000000000000	0.121207
C	-0.0000000000000000 0.4710824542428318 -0.0000000000000000	0.064258
C	0.7008877698482344 0.5000000000000000 0.5000000000000000	0.174691
C	0.7565602243918107 0.5000000000000000 0.5000000000000000	-0.115511
C	0.8044573072018988 0.5000000000000000 0.5000000000000000	-0.094824
C	0.8601042045026677 0.5000000000000000 0.5000000000000000	0.121206
C	0.9710824162428286 0.5000000000000000 0.5000000000000000	0.064258
C	0.2008877888482324 0.0000000000000000 -0.0000000000000000	0.174691
C	0.2565601663918131 0.0000000000000000 -0.0000000000000000	-0.115511
C	0.3044572872018971 0.0000000000000000 -0.0000000000000000	-0.094823
C	0.3601042045026677 0.0000000000000000 -0.0000000000000000	0.121207
C	0.4710824542428318 0.0000000000000000 -0.0000000000000000	0.064258
C	0.2991122111517677 0.5000000000000000 0.5000000000000000	0.174691
C	0.2434398336081866 0.5000000000000000 0.5000000000000000	-0.115511
C	0.1955426927981011 0.5000000000000000 0.5000000000000000	-0.094823
C	0.1398957954973323 0.5000000000000000 0.5000000000000000	0.121206
C	0.0289175697571701 0.5000000000000000 0.5000000000000000	0.064258
C	0.7991121921517624 0.0000000000000000 -0.0000000000000000	0.174691
C	0.7434398136081853 0.0000000000000000 -0.0000000000000000	-0.115510
C	0.6955426547981052 0.0000000000000000 -0.0000000000000000	-0.094824
C	0.6398957574973292 0.0000000000000000 -0.0000000000000000	0.121207
C	0.5289175837571714 0.0000000000000000 -0.0000000000000000	0.064258
H	0.4632523609403212 0.4057164921878027 0.2638914866821858	0.107361
H	0.4597906964686651 0.3072113706500856 0.2573271731258470	0.125488
H	0.9212310278518218 0.6332392643710438 0.8990524909588741	0.111772
H	0.9215123574052909 0.5358095444115812 0.8978610130723707	0.106391
H	0.5367476390596787 0.5942835078121971 0.2638914866821858	0.107361
H	0.5402093415313383 0.6927887053499135 0.2573271731258470	0.125488
H	0.0787689531481801 0.3667607356289562 0.8990524909588741	0.111772
H	0.0784876715947080 0.4641904945884184 0.8978610130723707	0.106391
H	0.5942835078121971 0.4632523609403212 0.2638914866821858	0.107361
H	0.6927887053499135 0.4597906964686651 0.2573271731258470	0.125488
H	0.3667607356289562 0.9212310278518218 0.8990524909588741	0.111772
H	0.4641904945884184 0.9215123574052909 0.8978610130723707	0.106391
H	0.4057164921878027 0.5367476390596787 0.2638914866821858	0.107361
H	0.3072113706500856 0.5402093415313383 0.2573271731258470	0.125488
H	0.6332392643710438 0.0787689531481801 0.8990524909588741	0.111772
H	0.5358095444115812 0.0784876715947080 0.8978610130723707	0.106391
H	0.5367476390596787 0.4057164921878027 0.7361084973178131	0.107356
H	0.5402093415313383 0.3072113706500856 0.7426728268741526	0.125488
H	0.0787689531481801 0.6332392643710438 0.1009474850411239	0.111770
H	0.0784876715947080 0.5358095444115812 0.1021389869276292	0.106391
H	0.4632523609403212 0.5942835078121971 0.7361084973178131	0.107356
H	0.4597906964686651 0.6927887053499135 0.7426728268741526	0.125488
H	0.9212310278518218 0.3667607356289562 0.1009474850411239	0.111770
H	0.9215123574052909 0.4641904945884184 0.1021389869276292	0.106391
H	0.4057164921878027 0.4632523609403212 0.7361084973178131	0.107356
H	0.3072113706500856 0.4597906964686651 0.7426728268741526	0.125488
H	0.6332392643710438 0.9212310278518218 0.1009474850411239	0.111770
H	0.5358095444115812 0.9215123574052909 0.1021389869276292	0.106391
H	0.5942835078121971 0.5367476390596787 0.7361084973178131	0.107356
H	0.6927887053499135 0.5402093415313383 0.7426728268741526	0.125488
H	0.3667607356289562 0.0787689531481801 0.1009474850411239	0.111770
H	0.4641904945884184 0.0784876715947080 0.1021389869276292	0.106391
H	0.5787689721481782 0.8667607356289562 0.6009474770411233	0.111770
H	0.5784876425947091 0.9641904945884184 0.6021390189276320	0.106391
H	0.0367476490596796 0.0942834788121985 0.2361085133178140	0.107377
H	0.0402093465313349 0.1927886483499122 0.2426728588741485	0.125488
H	0.4212310658518252 0.1332392933710426 0.6009474770411233	0.111770
H	0.4215123184052911 0.0358095294115765 0.6021390189276320	0.106391
H	0.9632523609403213 0.9057165691877986 0.2361085133178140	0.107377
H	0.9597906584686617 0.8072114086500888 0.2426728588741485	0.125488
H	0.1332392933710426 0.5787689721481782 0.6009474770411233	0.111770
H	0.0358095294115765 0.5784876425947091 0.6021390189276320	0.106391
H	0.9057165691877986 0.0367476490596796 0.2361085133178140	0.107377
H	0.8072114086500888 0.0402093465313349 0.2426728588741485	0.125488
H	0.8667607356289562 0.4212310658518252 0.6009474770411233	0.111770
H	0.9641904945884184 0.4215123184052911 0.6021390189276320	0.106391
H	0.0942834788121985 0.9632523609403213 0.2361085133178140	0.107377
H	0.1927886483499122 0.9597906584686617 0.2426728588741485	0.125488
H	0.4212310658518252 0.8667607356289562 0.3990524909588740	0.111771
H	0.4215123184052911 0.9641904945884184 0.3978610450723665	0.106390
H	0.9632523609403213 0.0942834788121985 0.7638914706821842	0.107377
H	0.9597906584686617 0.1927886483499122 0.7573271411258519	0.125487
H	0.5787689721481782 0.1332392933710426 0.3990524909588740	0.111771
H	0.5784876425947091 0.0358095294115765 0.3978610450723665	0.106391
H	0.0367476490596796 0.9057165691877986 0.7638914706821842	0.107377
H	0.0402093465313349 0.8072114086500888 0.7573271411258519	0.125487
H	0.8667607356289562 0.5787689721481782 0.3990524909588740	0.111771
H	0.9641904945884184 0.5784876425947091 0.3978610450723665	0.106391
H	0.0942834788121985 0.0367476490596796 0.7638914706821842	0.107377
H	0.1927886483499122 0.0402093465313349 0.7573271411258519	0.125487
H	0.1332392933710426 0.4212310658518252 0.3990524909588740	0.111771
H	0.0358095294115765 0.4215123184052911 0.3978610450723665	0.106391
H	0.9057165691877986 0.9632523609403213 0.7638914706821842	0.107377
H	0.8072114086500888 0.9597906584686617 0.7573271411258519	0.125487
Cd	0.5000000000000000 0.5000000000000000 0.5000000000000000	0.829123
Cd	-0.0000000000000000 0.0000000000000000 -0.0000000000000000	0.829123
Si	0.5000000000000000 0.5000000000000000 -0.0000000000000000	1.752335
Si	-0.0000000000000000 0.0000000000000000 0.5000000000000000	1.752333
F	0.5000000000000000 0.5000000000000000 0.2193618660118149	-0.507394
F	-0.0000000000000000 0.0000000000000000 0.7193618340118195	-0.507387
F	0.5000000000000000 0.5000000000000000 0.7806380699881867	-0.507393
F	-0.0000000000000000 0.0000000000000000 0.2806381339881850	-0.507387
F	0.5475273468749159 0.5475273468749159 -0.0000000000000000	-0.565153
F	0.0475272998749157 0.0475272998749157 0.5000000000000000	-0.565150
F	0.4524727291250903 0.4524727291250903 -0.0000000000000000	-0.565153
F	0.9524726911250873 0.9524726911250873 0.5000000000000000	-0.565150
F	0.4524727291250903 0.5475273468749159 -0.0000000000000000	-0.565153
F	0.9524726911250873 0.0475272998749157 0.5000000000000000	-0.565150
F	0.5475273468749159 0.4524727291250903 -0.0000000000000000	-0.565153
F	0.0475272998749157 0.9524726911250873 0.5000000000000000	-0.565150
N	0.5000000000000000 0.4087207777370332 0.5000000000000000	-0.243615
N	-0.0000000000000000 0.9087208157370366 -0.0000000000000000	-0.243604
N	0.5000000000000000 0.5912792222629666 0.5000000000000000	-0.243615
N	-0.0000000000000000 0.0912792312629639 -0.0000000000000000	-0.243604
N	0.5912792222629666 0.5000000000000000 0.5000000000000000	-0.243615
N	0.0912792312629639 0.0000000000000000 -0.0000000000000000	-0.243604
N	0.4087207777370332 0.5000000000000000 0.5000000000000000	-0.243615
N	0.9087208157370366 0.0000000000000000 -0.0000000000000000	-0.243604
	  	
