#======================================================================

# CRYSTAL DATA

#----------------------------------------------------------------------

data_VESTA_phase_1


_pd_phase_name                         SIFSIX_3_Ni
_cell_length_a                         14.04556
_cell_length_b                         14.04556
_cell_length_c                         7.55188
_cell_angle_alpha                      90
_cell_angle_beta                       90
_cell_angle_gamma                      90
_symmetry_space_group_name_H-M         P 1
_symmetry_Int_Tables_number            1

loop_
_symmetry_equiv_pos_as_xyz
   x, y, z

loop_
   _atom_site_label
   _atom_site_fract_x
   _atom_site_fract_y
   _atom_site_fract_z
   _atom_site_charge
C	0.2715657091000810 0.4504131148838404 0.6467735762023493	0.063835
C	0.2284342908999191 0.0495868891161599 0.6467735762023493	0.063835
C	0.2284342908999191 0.4504131148838404 0.3532263917976479	0.063847
C	0.2715657091000810 0.0495868891161599 0.3532263917976479	0.063848
C	0.0495868891161599 0.2715657091000810 0.3532263917976479	0.063862
C	0.4504131148838404 0.2284342908999191 0.3532263917976479	0.063861
C	0.4504131148838404 0.2715657091000810 0.6467735762023493	0.063874
C	0.0495868891161599 0.2284342908999191 0.6467735762023493	0.063874
C	0.9504130468838420 0.2284342908999191 0.6467735762023493	0.063919
C	0.5495869531161580 0.2715657091000810 0.6467735762023493	0.063919
C	0.5495869531161580 0.2284342908999191 0.3532263917976479	0.063930
C	0.9504130468838420 0.2715657091000810 0.3532263917976479	0.063930
C	0.7284343078999169 0.0495868891161599 0.3532263917976479	0.063861
C	0.7715656921000831 0.4504131148838404 0.3532263917976479	0.063861
C	0.7715656921000831 0.0495868891161599 0.6467735762023493	0.063874
C	0.7284343078999169 0.4504131148838404 0.6467735762023493	0.063873
C	0.4504131148838404 0.7284343078999169 0.6467735762023493	0.063838
C	0.0495868891161599 0.7715656921000831 0.6467735762023493	0.063839
C	0.0495868891161599 0.7284343078999169 0.3532263917976479	0.063851
C	0.4504131148838404 0.7715656921000831 0.3532263917976479	0.063851
C	0.2284342908999191 0.5495869531161580 0.3532263917976479	0.063943
C	0.2715657091000810 0.9504130468838420 0.3532263917976479	0.063943
C	0.2715657091000810 0.5495869531161580 0.6467735762023493	0.063954
C	0.2284342908999191 0.9504130468838420 0.6467735762023493	0.063953
C	0.7715656921000831 0.9504130468838420 0.6467735762023493	0.063919
C	0.7284343078999169 0.5495869531161580 0.6467735762023493	0.063919
C	0.7284343078999169 0.9504130468838420 0.3532263917976479	0.063929
C	0.7715656921000831 0.5495869531161580 0.3532263917976479	0.063930
C	0.5495869531161580 0.7715656921000831 0.3532263917976479	0.063943
C	0.9504130468838420 0.7284343078999169 0.3532263917976479	0.063942
C	0.9504130468838420 0.7715656921000831 0.6467735762023493	0.063953
C	0.5495869531161580 0.7284343078999169 0.6467735762023493	0.063953
H	0.2886254077276626 0.4114268324362648 0.7673405821693781	0.113802
H	0.2113745582723346 0.0885731675637353 0.7673405821693781	0.113802
H	0.2113745582723346 0.4114268324362648 0.2326593868306230	0.113801
H	0.2886254077276626 0.0885731675637353 0.2326593868306230	0.113801
H	0.0885731675637353 0.2886254077276626 0.2326593868306230	0.113801
H	0.4114268324362648 0.2113745582723346 0.2326593868306230	0.113801
H	0.4114268324362648 0.2886254077276626 0.7673405821693781	0.113799
H	0.0885731675637353 0.2113745582723346 0.7673405821693781	0.113799
H	0.9114269004362704 0.2113745582723346 0.7673405821693781	0.113794
H	0.5885730995637296 0.2886254077276626 0.7673405821693781	0.113794
H	0.5885730995637296 0.2113745582723346 0.2326593868306230	0.113793
H	0.9114269004362704 0.2886254077276626 0.2326593868306230	0.113793
H	0.7113745242723389 0.0885731675637353 0.2326593868306230	0.113801
H	0.7886254757276611 0.4114268324362648 0.2326593868306230	0.113801
H	0.7886254757276611 0.0885731675637353 0.7673405821693781	0.113799
H	0.7113745242723389 0.4114268324362648 0.7673405821693781	0.113799
H	0.4114268324362648 0.7113745242723389 0.7673405821693781	0.113802
H	0.0885731675637353 0.7886254757276611 0.7673405821693781	0.113802
H	0.0885731675637353 0.7113745242723389 0.2326593868306230	0.113801
H	0.4114268324362648 0.7886254757276611 0.2326593868306230	0.113801
H	0.2113745582723346 0.5885730995637296 0.2326593868306230	0.113793
H	0.2886254077276626 0.9114269004362704 0.2326593868306230	0.113793
H	0.2886254077276626 0.5885730995637296 0.7673405821693781	0.113791
H	0.2113745582723346 0.9114269004362704 0.7673405821693781	0.113791
H	0.7886254757276611 0.9114269004362704 0.7673405821693781	0.113794
H	0.7113745242723389 0.5885730995637296 0.7673405821693781	0.113794
H	0.7113745242723389 0.9114269004362704 0.2326593868306230	0.113793
H	0.7886254757276611 0.5885730995637296 0.2326593868306230	0.113793
H	0.5885730995637296 0.7886254757276611 0.2326593868306230	0.113793
H	0.9114269004362704 0.7113745242723389 0.2326593868306230	0.113793
H	0.9114269004362704 0.7886254757276611 0.7673405821693781	0.113791
H	0.5885730995637296 0.7113745242723389 0.7673405821693781	0.113791
Ni	0.2500000000000000 0.2500000000000000 0.5000000000000000	0.757744
Ni	0.7500000340000028 0.2500000000000000 0.5000000000000000	0.757745
Ni	0.2500000000000000 0.7500000340000028 0.5000000000000000	0.757745
Ni	0.7500000340000028 0.7500000340000028 0.5000000000000000	0.757746
Si	0.2500000000000000 0.2500000000000000 -0.0000000000000000	1.713233
Si	0.7500000340000028 0.2500000000000000 -0.0000000000000000	1.713233
Si	0.2500000000000000 0.7500000340000028 -0.0000000000000000	1.713233
Si	0.7500000340000028 0.7500000340000028 -0.0000000000000000	1.713233
F	0.2500000000000000 0.2500000000000000 0.7665550350696538	-0.505718
F	0.2500000000000000 0.2500000000000000 0.2334449649303462	-0.505718
F	0.3354248896307418 0.3354248896307418 -0.0002658644464927	-0.519848
F	0.1645751103692581 0.1645751103692581 -0.0002658644464927	-0.519846
F	0.1645751103692581 0.3354248896307418 0.0002658854464909	-0.519847
F	0.3354248896307418 0.1645751103692581 0.0002658854464909	-0.519847
F	0.7500000340000028 0.2500000000000000 0.7665550350696538	-0.505719
F	0.7500000340000028 0.2500000000000000 0.2334449649303462	-0.505719
F	0.8354249236307446 0.3354248896307418 0.0002658854464909	-0.519847
F	0.6645750763692554 0.1645751103692581 0.0002658854464909	-0.519845
F	0.6645750763692554 0.3354248896307418 -0.0002658644464927	-0.519847
F	0.8354249236307446 0.1645751103692581 -0.0002658644464927	-0.519847
F	0.2500000000000000 0.7500000340000028 0.7665550350696538	-0.505719
F	0.2500000000000000 0.7500000340000028 0.2334449649303462	-0.505719
F	0.3354248896307418 0.8354249236307446 0.0002658854464909	-0.519847
F	0.1645751103692581 0.6645750763692554 0.0002658854464909	-0.519845
F	0.1645751103692581 0.8354249236307446 -0.0002658644464927	-0.519847
F	0.3354248896307418 0.6645750763692554 -0.0002658644464927	-0.519847
F	0.7500000340000028 0.7500000340000028 0.7665550350696538	-0.505720
F	0.7500000340000028 0.7500000340000028 0.2334449649303462	-0.505720
F	0.8354249236307446 0.8354249236307446 -0.0002658644464927	-0.519847
F	0.6645750763692554 0.6645750763692554 -0.0002658644464927	-0.519844
F	0.6645750763692554 0.8354249236307446 0.0002658854464909	-0.519846
F	0.8354249236307446 0.6645750763692554 0.0002658854464909	-0.519846
N	0.4005169414134911 0.2500000000000000 0.5000000000000000	-0.200417
N	0.0994830585865089 0.2500000000000000 0.5000000000000000	-0.200417
N	0.2500000000000000 0.4005169414134911 0.5000000000000000	-0.200410
N	0.2500000000000000 0.0994830585865089 0.5000000000000000	-0.200410
N	0.9005169414134910 0.2500000000000000 0.5000000000000000	-0.200431
N	0.5994830585865090 0.2500000000000000 0.5000000000000000	-0.200430
N	0.7500000340000028 0.4005169414134911 0.5000000000000000	-0.200417
N	0.7500000340000028 0.0994830585865089 0.5000000000000000	-0.200416
N	0.4005169414134911 0.7500000340000028 0.5000000000000000	-0.200413
N	0.0994830585865089 0.7500000340000028 0.5000000000000000	-0.200412
N	0.2500000000000000 0.9005169414134910 0.5000000000000000	-0.200435
N	0.2500000000000000 0.5994830585865090 0.5000000000000000	-0.200434
N	0.9005169414134910 0.7500000340000028 0.5000000000000000	-0.200436
N	0.5994830585865090 0.7500000340000028 0.5000000000000000	-0.200435
N	0.7500000340000028 0.9005169414134910 0.5000000000000000	-0.200430
N	0.7500000340000028 0.5994830585865090 0.5000000000000000	-0.200429
	  	
