#======================================================================

# CRYSTAL DATA

#----------------------------------------------------------------------

data_VESTA_phase_1


_pd_phase_name                         SIFSIX_4_Fe_i
_cell_length_a                         24.00515
_cell_length_b                         20.84520
_cell_length_c                         8.98555
_cell_angle_alpha                      90
_cell_angle_beta                       90
_cell_angle_gamma                      90
_symmetry_space_group_name_H-M         P 1
_symmetry_Int_Tables_number            1

loop_
_symmetry_equiv_pos_as_xyz
   x, y, z

loop_
   _atom_site_label
   _atom_site_fract_x
   _atom_site_fract_y
   _atom_site_fract_z
   _atom_site_charge
C	0.4139369418378396 0.5963715532332698 0.6229718960627967	0.100510
C	0.3707003830582029 0.5521161132488457 0.6207063963968193	-0.173901
C	0.2755463377916300 0.4490010815203252 0.6201533515517854	-0.119604
C	0.2308916695607758 0.4067667286537005 0.6187680685439474	-0.116198
C	0.1319056021221586 0.3210868261386227 0.6169287327008893	-0.169443
C	0.0862008845988398 0.2803149659941767 0.6207481226538484	0.094273
C	0.9139370248378358 0.0963715642332739 0.6229718960627967	0.100511
C	0.8707003410582065 0.0521160552488481 0.6207063963968193	-0.173912
C	0.7755463587916355 0.9490011285203254 0.6201533515517854	-0.119636
C	0.7308916495607742 0.9067667746536976 0.6187680685439474	-0.116192
C	0.6319056021221585 0.8210868731386229 0.6169287327008893	-0.169443
C	0.5862008695988346 0.7803150589941732 0.6207481226538484	0.094273
C	0.5860630581621604 0.4036284007667267 0.1229719040627974	0.100512
C	0.6292996589417935 0.4478839327511578 0.1207064113968170	-0.173913
C	0.7244536412083645 0.5509988714796746 0.1201533595517861	-0.119635
C	0.7691083504392258 0.5932332713462991 0.1187680765439484	-0.116193
C	0.8680943978778415 0.6789131738613774 0.1169287397008933	-0.169442
C	0.9137991304011654 0.7196849880058271 0.1207481376538461	0.094272
C	0.0860630691621650 0.9036284937667305 0.1229719040627974	0.100510
C	0.1292996169417973 0.9478838407511576 0.1207064113968170	-0.173901
C	0.2244536832083681 0.0509989184796749 0.1201533595517861	-0.119604
C	0.2691083094392261 0.0932332483463012 0.1187680765439484	-0.116199
C	0.3680944398778447 0.1789131848613744 0.1169287397008933	-0.169442
C	0.4137991304011647 0.2196850580058255 0.1207481376538461	0.094272
C	0.5860630581621604 0.5963715532332698 0.8770280729372043	0.100511
C	0.6292996589417935 0.5521161132488457 0.8792935726031816	-0.173912
C	0.7244536412083645 0.4490010815203252 0.8798466794482136	-0.119636
C	0.7691083504392258 0.4067667286537005 0.8812319624560516	-0.116193
C	0.8680943978778415 0.3210868261386227 0.8830712982991097	-0.169444
C	0.9137991304011654 0.2803149659941767 0.8792519083461506	0.094273
C	0.0860630691621650 0.0963715642332739 0.8770280729372043	0.100510
C	0.1292996169417973 0.0521160552488481 0.8792935726031816	-0.173901
C	0.2244536832083681 0.9490011285203254 0.8798466794482136	-0.119605
C	0.2691083094392261 0.9067667746536976 0.8812319624560516	-0.116199
C	0.3680944398778447 0.8210868731386229 0.8830712982991097	-0.169444
C	0.4137991304011647 0.7803150589941732 0.8792519083461506	0.094273
C	0.4139369418378396 0.4036284007667267 0.3770281039372033	0.100510
C	0.3707003830582029 0.4478839327511578 0.3792935726031816	-0.173901
C	0.2755463377916300 0.5509988714796746 0.3798466484482144	-0.119604
C	0.2308916695607758 0.5932332713462991 0.3812319004560530	-0.116199
C	0.1319056021221586 0.6789131738613774 0.3830712362991048	-0.169443
C	0.0862008845988398 0.7196849880058271 0.3792518463461528	0.094272
C	0.9139370248378358 0.9036284937667305 0.3770281039372034	0.100511
C	0.8707003410582065 0.9478838407511576 0.3792935726031816	-0.173913
C	0.7755463587916355 0.0509989184796749 0.3798466484482144	-0.119635
C	0.7308916495607742 0.0932332483463012 0.3812319004560530	-0.116193
C	0.6319056021221585 0.1789131848613744 0.3830712362991048	-0.169443
C	0.5862008695988346 0.2196850580058255 0.3792518463461528	0.094272
C	0.5860630581621604 0.4036284007667267 0.3770281039372034	0.100512
C	0.6292996589417935 0.4478839327511578 0.3792935726031816	-0.173913
C	0.7244536412083645 0.5509988714796746 0.3798466484482144	-0.119635
C	0.7691083504392258 0.5932332713462991 0.3812319004560530	-0.116193
C	0.8680943978778415 0.6789131738613774 0.3830712362991048	-0.169444
C	0.9137991304011654 0.7196849880058271 0.3792518463461528	0.094271
C	0.0860630691621650 0.9036284937667305 0.3770281039372034	0.100510
C	0.1292996169417973 0.9478838407511576 0.3792935726031816	-0.173901
C	0.2244536832083681 0.0509989184796749 0.3798466484482144	-0.119604
C	0.2691083094392261 0.0932332483463012 0.3812319004560530	-0.116199
C	0.3680944398778447 0.1789131848613744 0.3830712362991048	-0.169443
C	0.4137991304011647 0.2196850580058255 0.3792518463461528	0.094271
C	0.4139369418378396 0.5963715532332698 0.8770280729372043	0.100510
C	0.3707003830582029 0.5521161132488457 0.8792935726031816	-0.173901
C	0.2755463377916300 0.4490010815203252 0.8798466794482136	-0.119604
C	0.2308916695607758 0.4067667286537005 0.8812319624560516	-0.116198
C	0.1319056021221586 0.3210868261386227 0.8830712982991097	-0.169444
C	0.0862008845988398 0.2803149659941767 0.8792519083461506	0.094272
C	0.9139370248378358 0.0963715642332739 0.8770280729372043	0.100512
C	0.8707003410582065 0.0521160552488481 0.8792935726031816	-0.173912
C	0.7755463587916355 0.9490011285203254 0.8798466794482136	-0.119636
C	0.7308916495607742 0.9067667746536976 0.8812319624560516	-0.116192
C	0.6319056021221585 0.8210868731386229 0.8830712982991097	-0.169444
C	0.5862008695988346 0.7803150589941732 0.8792519083461506	0.094272
C	0.4139369418378396 0.4036284007667267 0.1229719040627974	0.100510
C	0.3707003830582029 0.4478839327511578 0.1207064113968170	-0.173901
C	0.2755463377916300 0.5509988714796746 0.1201533595517861	-0.119604
C	0.2308916695607758 0.5932332713462991 0.1187680765439484	-0.116199
C	0.1319056021221586 0.6789131738613774 0.1169287397008933	-0.169444
C	0.0862008845988398 0.7196849880058271 0.1207481376538461	0.094271
C	0.9139370248378358 0.9036284937667305 0.1229719040627974	0.100512
C	0.8707003410582065 0.9478838407511576 0.1207064113968170	-0.173913
C	0.7755463587916355 0.0509989184796749 0.1201533595517861	-0.119635
C	0.7308916495607742 0.0932332483463012 0.1187680765439484	-0.116193
C	0.6319056021221585 0.1789131848613744 0.1169287397008933	-0.169444
C	0.5862008695988346 0.2196850580058255 0.1207481376538461	0.094272
C	0.5860630581621604 0.5963715532332698 0.6229718960627967	0.100512
C	0.6292996589417935 0.5521161132488457 0.6207063963968193	-0.173912
C	0.7244536412083645 0.4490010815203252 0.6201533515517854	-0.119636
C	0.7691083504392258 0.4067667286537005 0.6187680685439474	-0.116193
C	0.8680943978778415 0.3210868261386227 0.6169287327008893	-0.169445
C	0.9137991304011654 0.2803149659941767 0.6207481226538484	0.094272
C	0.0860630691621650 0.0963715642332739 0.6229718960627967	0.100510
C	0.1292996169417973 0.0521160552488481 0.6207063963968193	-0.173901
C	0.2244536832083681 0.9490011285203254 0.6201533515517854	-0.119605
C	0.2691083094392261 0.9067667746536976 0.6187680685439474	-0.116199
C	0.3680944398778447 0.8210868731386229 0.6169287327008893	-0.169445
C	0.4137991304011647 0.7803150589941732 0.6207481226538484	0.094272
C	0.3463144492232280 0.5252827280203638 0.7500000149999977	0.106885
C	0.2999254657363808 0.4752902325494248 0.7500000149999977	0.065178
C	0.2056869601693476 0.3851585817819280 0.7500000149999977	0.071245
C	0.1566484234551583 0.3424279094009017 0.7500000149999977	0.100313
C	0.8463144072232311 0.0252827110203663 0.7500000149999977	0.106942
C	0.7999255277363789 0.9752901855494240 0.7500000149999977	0.065176
C	0.7056869601693473 0.8851586047819263 0.7500000149999977	0.071243
C	0.6566484234551584 0.8424278404008998 0.7500000149999977	0.100313
C	0.6536855507767725 0.4747173179796325 0.2500000000000000	0.106943
C	0.7000744722636211 0.5247097674505756 0.2500000000000000	0.065175
C	0.7943130398306527 0.6148414422180740 0.2500000000000000	0.071243
C	0.8433516175448486 0.6575720675990997 0.2500000000000000	0.100313
C	0.1536855617767696 0.9747173649796332 0.2500000000000000	0.106885
C	0.2000745552636174 0.0247097704505719 0.2500000000000000	0.065178
C	0.2943130398306523 0.1148413952180737 0.2500000000000000	0.071245
C	0.3433515765448414 0.1575721015991027 0.2500000000000000	0.100313
C	0.6536855507767725 0.5252827280203638 0.7500000149999977	0.106943
C	0.7000744722636211 0.4752902325494248 0.7500000149999977	0.065176
C	0.7943130398306527 0.3851585817819280 0.7500000149999977	0.071243
C	0.8433516175448486 0.3424279094009017 0.7500000149999977	0.100313
C	0.1536855617767696 0.0252827110203663 0.7500000149999977	0.106885
C	0.2000745552636174 0.9752901855494240 0.7500000149999977	0.065179
C	0.2943130398306523 0.8851586047819263 0.7500000149999977	0.071245
C	0.3433515765448414 0.8424278404008998 0.7500000149999977	0.100313
C	0.3463144492232280 0.4747173179796325 0.2500000000000000	0.106885
C	0.2999254657363808 0.5247097674505756 0.2500000000000000	0.065178
C	0.2056869601693476 0.6148414422180740 0.2500000000000000	0.071245
C	0.1566484234551583 0.6575720675990997 0.2500000000000000	0.100313
C	0.8463144072232311 0.9747173649796332 0.2500000000000000	0.106943
C	0.7999255277363789 0.0247097704505719 0.2500000000000000	0.065175
C	0.7056869601693473 0.1148413952180737 0.2500000000000000	0.071244
C	0.6566484234551584 0.1575721015991027 0.2500000000000000	0.100313
H	0.4311916335230963 0.6144248799549912 0.5184736460878004	0.114879
H	0.3581746061336368 0.5404849948252013 0.5094282978260581	0.107808
H	0.2904736510835188 0.4601501792343826 0.5108759492180419	0.089275
H	0.2160397419965449 0.3909928138571512 0.5103407529313454	0.103860
H	0.1475085386269774 0.3354086010327681 0.5081587854802991	0.120194
H	0.0670169311848160 0.2629999224111822 0.5178662752214073	0.114456
H	0.9311915915230932 0.1144249149549905 0.5184736460878004	0.114878
H	0.8581745651336372 0.0404849308251965 0.5094282978260581	0.107810
H	0.7904736300835202 0.9601501792343828 0.5108759492180419	0.089281
H	0.7160396999965412 0.8909927448571553 0.5103407529313454	0.103860
H	0.6475085286269766 0.8354086010327680 0.5081587854802991	0.120194
H	0.5670169621848148 0.7629998994111836 0.5178662752214073	0.114456
H	0.5688083664769034 0.3855751200450089 0.0184737080877985	0.114878
H	0.6418253938663629 0.4595150521747984 0.0094282978260580	0.107811
H	0.7095263699164798 0.5398497747656134 0.0108760112180400	0.089281
H	0.7839603000034588 0.6090071631428442 0.0103406919313440	0.103860
H	0.8524914713730234 0.6645913529672282 0.0081587854802987	0.120194
H	0.9329829968151854 0.7370001005888164 0.0178662442214082	0.114456
H	0.0688083724769043 0.8855751200450088 0.0184737080877985	0.114879
H	0.1418254348663630 0.9595150521747990 0.0094282978260580	0.107808
H	0.2095263699164794 0.0398498177656136 0.0108760112180400	0.089275
H	0.2839602580034552 0.1090071971428463 0.0103406919313440	0.103860
H	0.3524914713730235 0.1645913759672263 0.0081587854802987	0.120194
H	0.4329830378151850 0.2370000775888178 0.0178662442214082	0.114456
H	0.5688083664769034 0.6144248799549912 -0.0184736650877986	0.114878
H	0.6418253938663629 0.5404849948252013 -0.0094283248260638	0.107810
H	0.7095263699164798 0.4601501792343826 -0.0108759672180362	0.089281
H	0.7839603000034588 0.3909928138571512 -0.0103407459313414	0.103860
H	0.8524914713730234 0.3354086010327681 -0.0081587854802992	0.120194
H	0.9329829968151854 0.2629999224111822 -0.0178662822214114	0.114456
H	0.0688083724769043 0.1144249149549905 -0.0184736650877986	0.114878
H	0.1418254348663630 0.0404849308251965 -0.0094283248260638	0.107808
H	0.2095263699164794 0.9601501792343828 -0.0108759672180362	0.089275
H	0.2839602580034552 0.8909927448571553 -0.0103407459313414	0.103860
H	0.3524914713730235 0.8354086010327680 -0.0081587854802992	0.120194
H	0.4329830378151850 0.7629998994111836 -0.0178662822214114	0.114456
H	0.4311916335230963 0.3855751200450089 0.4815263229122005	0.114878
H	0.3581746061336368 0.4595150521747984 0.4905717331739410	0.107808
H	0.2904736510835188 0.5398497747656134 0.4891240197819590	0.089275
H	0.2160397419965449 0.6090071631428442 0.4896592160686554	0.103860
H	0.1475085386269774 0.6645913529672282 0.4918411835197020	0.120194
H	0.0670169311848160 0.7370001005888164 0.4821337247785927	0.114456
H	0.9311915915230932 0.8855751200450088 0.4815263229122005	0.114878
H	0.8581745651336372 0.9595150521747990 0.4905717331739410	0.107810
H	0.7904736300835202 0.0398498177656136 0.4891240197819590	0.089281
H	0.7160396999965412 0.1090071971428463 0.4896592160686554	0.103860
H	0.6475085286269766 0.1645913759672263 0.4918411835197019	0.120194
H	0.5670169621848148 0.2370000775888178 0.4821337247785927	0.114456
H	0.5688083664769034 0.3855751200450089 0.4815263229122005	0.114878
H	0.6418253938663629 0.4595150521747984 0.4905717331739410	0.107810
H	0.7095263699164798 0.5398497747656134 0.4891240197819590	0.089281
H	0.7839603000034588 0.6090071631428442 0.4896592160686555	0.103860
H	0.8524914713730234 0.6645913529672282 0.4918411835197019	0.120193
H	0.9329829968151854 0.7370001005888164 0.4821337247785927	0.114456
H	0.0688083724769043 0.8855751200450088 0.4815263229122005	0.114879
H	0.1418254348663630 0.9595150521747990 0.4905717331739410	0.107808
H	0.2095263699164794 0.0398498177656136 0.4891240197819590	0.089275
H	0.2839602580034552 0.1090071971428463 0.4896592160686554	0.103860
H	0.3524914713730235 0.1645913759672263 0.4918411835197019	0.120193
H	0.4329830378151850 0.2370000775888178 0.4821337247785927	0.114456
H	0.4311916335230963 0.6144248799549912 -0.0184736650877986	0.114879
H	0.3581746061336368 0.5404849948252013 -0.0094283248260638	0.107808
H	0.2904736510835188 0.4601501792343826 -0.0108759672180362	0.089275
H	0.2160397419965449 0.3909928138571512 -0.0103407459313414	0.103860
H	0.1475085386269774 0.3354086010327681 -0.0081587854802992	0.120193
H	0.0670169311848160 0.2629999224111822 -0.0178662822214114	0.114456
H	0.9311915915230932 0.1144249149549905 -0.0184736650877986	0.114878
H	0.8581745651336371 0.0404849308251965 -0.0094283248260638	0.107810
H	0.7904736300835202 0.9601501792343828 -0.0108759672180362	0.089281
H	0.7160396999965412 0.8909927448571553 -0.0103407459313414	0.103860
H	0.6475085286269766 0.8354086010327680 -0.0081587854802992	0.120193
H	0.5670169621848148 0.7629998994111836 -0.0178662822214114	0.114456
H	0.4311916335230963 0.3855751200450089 0.0184737080877985	0.114879
H	0.3581746061336368 0.4595150521747984 0.0094282978260580	0.107808
H	0.2904736510835188 0.5398497747656134 0.0108760112180400	0.089275
H	0.2160397419965449 0.6090071631428442 0.0103406919313440	0.103860
H	0.1475085386269774 0.6645913529672282 0.0081587854802987	0.120193
H	0.0670169311848160 0.7370001005888164 0.0178662442214082	0.114457
H	0.9311915915230932 0.8855751200450088 0.0184737080877985	0.114879
H	0.8581745651336372 0.9595150521747990 0.0094282978260580	0.107811
H	0.7904736300835202 0.0398498177656136 0.0108760112180400	0.089282
H	0.7160396999965412 0.1090071971428463 0.0103406919313440	0.103860
H	0.6475085286269766 0.1645913759672263 0.0081587854802987	0.120193
H	0.5670169621848148 0.2370000775888178 0.0178662442214082	0.114456
H	0.5688083664769034 0.6144248799549912 0.5184736460878004	0.114878
H	0.6418253938663629 0.5404849948252013 0.5094282978260581	0.107811
H	0.7095263699164798 0.4601501792343826 0.5108759492180419	0.089282
H	0.7839603000034588 0.3909928138571512 0.5103407529313454	0.103860
H	0.8524914713730234 0.3354086010327681 0.5081587854802991	0.120194
H	0.9329829968151854 0.2629999224111822 0.5178662752214073	0.114457
H	0.0688083724769043 0.1144249149549905 0.5184736460878004	0.114879
H	0.1418254348663630 0.0404849308251965 0.5094282978260581	0.107808
H	0.2095263699164794 0.9601501792343828 0.5108759492180419	0.089276
H	0.2839602580034552 0.8909927448571553 0.5103407529313454	0.103860
H	0.3524914713730235 0.8354086010327680 0.5081587854802991	0.120194
H	0.4329830378151850 0.7629998994111836 0.5178662752214073	0.114457
Fe	0.5000000000000000 0.6890995681318456 0.7500000149999977	0.611611
Fe	-0.0000000000000000 0.1890996261318430 0.7500000149999977	0.611611
Fe	0.5000000000000000 0.3109003618681561 0.2500000000000000	0.611611
Fe	-0.0000000000000000 0.8109004318681544 0.2500000000000000	0.611611
F	0.5000000000000000 0.6872450831979311 0.4568199144268564	-0.545538
F	-0.0000000000000000 0.1872451181979303 0.4568199144268564	-0.545538
F	0.5000000000000000 0.3127548938020637 0.9568199144268567	-0.545538
F	-0.0000000000000000 0.8127549168020689 0.9568199144268567	-0.545538
F	0.5000000000000000 0.6872450831979311 0.0431800715731424	-0.545537
F	-0.0000000000000000 0.1872451181979303 0.0431800715731424	-0.545537
F	0.5000000000000000 0.3127548938020637 0.5431800555731409	-0.545537
F	-0.0000000000000000 0.8127549168020689 0.5431800555731409	-0.545538
F	0.4501522962988510 0.7446353386336320 0.2500000000000000	-0.555537
F	0.5499268281322042 0.6296006940931969 0.2500000000000000	-0.550716
F	0.9501522962988510 0.2446353386336318 0.2500000000000000	-0.555538
F	0.0499268491322090 0.1296006940931969 0.2500000000000000	-0.550716
F	0.5498476627011492 0.2553646383663699 0.7500000149999977	-0.555537
F	0.4500731718677963 0.3703993059068029 0.7500000149999977	-0.550716
F	0.0498477147011535 0.7553646613663680 0.7500000149999977	-0.555537
F	0.9500731718677958 0.8703993059068031 0.7500000149999977	-0.550716
F	0.5498476627011492 0.7446353386336320 0.2500000000000000	-0.555537
F	0.4500731718677963 0.6296006940931969 0.2500000000000000	-0.550716
F	0.0498477147011535 0.2446353386336318 0.2500000000000000	-0.555538
F	0.9500731718677958 0.1296006940931969 0.2500000000000000	-0.550716
F	0.4501522962988510 0.2553646383663699 0.7500000149999977	-0.555537
F	0.5499268281322042 0.3703993059068029 0.7500000149999977	-0.550716
F	0.9501522962988510 0.7553646613663680 0.7500000149999977	-0.555537
F	0.0499268491322090 0.8703993059068031 0.7500000149999977	-0.550716
N	0.4363484891385451 0.6184735631351183 0.7500000149999977	-0.191037
N	0.5637409037824994 0.7597667057371362 0.7500000149999977	-0.201718
N	0.9363484481385381 0.1184735511351176 0.7500000149999977	-0.191038
N	0.0637408777824979 0.2597666827371303 0.7500000149999977	-0.201718
N	0.5636515108614549 0.3815264368648815 0.2500000000000000	-0.191038
N	0.4362590962175001 0.2402333172628697 0.2500000000000000	-0.201718
N	0.0636515108614550 0.8815264368648819 0.2500000000000000	-0.191037
N	0.9362591372175004 0.7402332942628638 0.2500000000000000	-0.201717
N	0.5636515108614549 0.6184735631351181 0.7500000149999977	-0.191038
N	0.4362590962175001 0.7597667057371362 0.7500000149999977	-0.201717
N	0.0636515108614550 0.1184735511351176 0.7500000149999977	-0.191037
N	0.9362591372175004 0.2597666827371303 0.7500000149999977	-0.201718
N	0.4363484891385451 0.3815264368648815 0.2500000000000000	-0.191037
N	0.5637409037824994 0.2402333172628697 0.2500000000000000	-0.201718
N	0.9363484481385381 0.8815264368648819 0.2500000000000000	-0.191038
N	0.0637408777824979 0.7402332942628638 0.2500000000000000	-0.201717
Si	0.5000000000000000 0.6870950002925600 0.2500000000000000	1.725813
Si	-0.0000000000000000 0.1870950242925618 0.2500000000000000	1.725813
Si	0.5000000000000000 0.3129049527074397 0.7500000149999977	1.725813
Si	-0.0000000000000000 0.8129049997074400 0.7500000149999977	1.725813
	  	
