#======================================================================

# CRYSTAL DATA

#----------------------------------------------------------------------

data_VESTA_phase_1


_pd_phase_name                         SIFSIX_14_Ni_i
_cell_length_a                         13.25064
_cell_length_b                         13.23705
_cell_length_c                         7.69018
_cell_angle_alpha                      87.36689
_cell_angle_beta                       87.40819
_cell_angle_gamma                      89.77784
_symmetry_space_group_name_H-M         P 1
_symmetry_Int_Tables_number            1

loop_
_symmetry_equiv_pos_as_xyz
   x, y, z

loop_
   _atom_site_label
   _atom_site_fract_x
   _atom_site_fract_y
   _atom_site_fract_z
   _atom_site_charge
C	0.5677912338351937 0.2709690726837014 0.3675957319641808	-0.181813
C	0.4628652570074591 0.2745338600194890 0.3724654934671363	0.108797
C	0.9378068066517726 0.2904703042250495 0.4212675542115951	-0.174010
C	0.0422964034763577 0.2823123476601124 0.4073741218692126	0.108113
C	0.2690463532234339 0.5674370502467259 0.3702964320588263	-0.185164
C	0.2726749100636494 0.4623806971995082 0.3752021484095425	0.110507
C	0.2979446118285495 0.9378844721285924 0.4160329105272394	-0.175944
C	0.2887827805423840 0.0423889989115219 0.4031783975209455	0.108932
C	0.9323961265646840 0.2315584545668327 0.1299999288248546	-0.183733
C	0.0373370964573931 0.2282008700428392 0.1250093217693926	0.109195
C	0.5620622137259463 0.2051616886555322 0.0812077732400888	-0.173818
C	0.4575854571281581 0.2139110046279536 0.0945203741458185	0.109568
C	0.2063153384671001 0.5620480864757279 0.0816781696343748	-0.176093
C	0.2150484419441250 0.4575252288846497 0.0951196300031964	0.109534
C	0.2281868302004192 0.9322176152694361 0.1326151699051190	-0.183531
C	0.2245080833502222 0.0372687471261437 0.1278322876387504	0.110250
C	0.4325905282641449 0.7333449618294100 0.6292103064751446	-0.180460
C	0.5374451353986318 0.7312819396754233 0.6230168616377423	0.110455
C	0.0621981143866936 0.7286070406906949 0.5682195654517901	-0.162293
C	0.9575095421484043 0.7300832694823438 0.5862878553680871	0.111233
C	0.7336497383733385 0.4324688658362651 0.6287492925953090	-0.179797
C	0.7318652907057480 0.5374453162884307 0.6227224921299226	0.111699
C	0.7151746175823037 0.0615099486789050 0.5741960017599222	-0.163570
C	0.7194365314205656 0.9567388737220948 0.5907669863369175	0.110579
C	0.0677090432272215 0.7641947628582219 0.8723677501834934	-0.178231
C	0.9628477736963869 0.7653407268286123 0.8788070239116618	0.108437
C	0.4384476677816346 0.7777416106744958 0.9292928291318638	-0.163537
C	0.5431276732756913 0.7751655559649790 0.9114677228776672	0.110850
C	0.7788293065751605 0.4378972997457506 0.9284761379510361	-0.163071
C	0.7757396271047887 0.5426780092344931 0.9112819960366836	0.110269
C	0.7688910171576583 0.0671427456461294 0.8691678171007282	-0.178576
C	0.7715557824350416 0.9621919655899694 0.8747155965470516	0.111584
C	0.6189404939205918 0.2357427591110544 0.2183858306690532	0.188711
C	0.8811067026495628 0.2630911085721833 0.2817401853245233	0.191264
C	0.2353864844209075 0.6187269585458958 0.2201069484837888	0.190924
C	0.2654620282941542 0.8810582403033451 0.2801766302961589	0.189759
C	0.3815724977361946 0.7563157953122104 0.7867002358034131	0.187827
C	0.1188959645785509 0.7460594428836468 0.7128348765513446	0.185982
C	0.7568708170114030 0.3811630536802034 0.7859414037513123	0.186859
C	0.7409898427553300 0.1183388938119594 0.7145024780780737	0.186362
H	0.6088567282488475 0.2902282520253486 0.4807029456186847	0.109868
H	0.4208380385750005 0.2980497969834837 0.4889712205818050	0.102224
H	0.9008974343702906 0.3173702962798331 0.5393989072908234	0.123306
H	0.0880965670902036 0.3014862682232822 0.5151282349892949	0.106295
H	0.2873581559466803 0.6085997146029412 0.4838548672922837	0.113735
H	0.2950931251061186 0.4202188161616713 0.4924343531507394	0.101914
H	0.3292364711511303 0.9009531194355713 0.5306527331103550	0.124120
H	0.3110144412653795 0.0883435095541361 0.5088523381049723	0.105924
H	0.8913102858967887 0.2150021699963644 0.0154256124494134	0.110147
H	0.0794625539366731 0.2073233648954026 0.0068691694901433	0.101771
H	0.5988859370206813 0.1752099872900606 0.9654440232422250	0.123905
H	0.4116411990979996 0.1926798966390997 0.9882241060453708	0.105169
H	0.1779572824089020 0.5990143807506529 0.9645741960009002	0.123579
H	0.1949683209038544 0.4116462678337047 0.9879523839020585	0.105249
H	0.2070899595889944 0.8910924708000619 0.0206663754114731	0.113640
H	0.1995071113170881 0.0793997465102317 0.0123465439635820	0.102488
H	0.3918958969384404 0.7200759236135893 0.5126091479874835	0.103253
H	0.5795154771558514 0.7136925724651232 0.5031386869032012	0.103245
H	0.0989886646241499 0.7142569789451687 0.4427653471757250	0.121210
H	0.9118782318994103 0.7157073802791161 0.4762456471086980	0.104654
H	0.7207344829342170 0.3917635019676092 0.5120237167066217	0.104590
H	0.7147253255767178 0.5797351065487534 0.5027006747988281	0.102976
H	0.6921863974772873 0.0984916980388966 0.4534467199355213	0.122948
H	0.6997929205572369 0.9109777258247082 0.4834787171402415	0.104459
H	0.1083863853110516 0.7744350744795188 0.9901831429986974	0.102385
H	0.9206657519709504 0.7791159350779594 0.0003283080456764	0.103471
H	0.4017282229438588 0.7960224252563315 0.0529611247335610	0.122069
H	0.5888184249294729 0.7923263644086407 0.0201153095482464	0.105360
H	0.7978859358662246 0.4009384673778705 0.0515644823667474	0.122515
H	0.7928978604489065 0.5883518777943776 0.0200417767103798	0.104165
H	0.7848532177706472 0.1078351941472192 0.9845137991734675	0.105314
H	0.7923206897102488 0.9199788198077142 0.9928364125496372	0.103832
N	0.7751492258094720 0.2769987511362982 0.2970116798841107	-0.105944
N	0.2804323778430156 0.7750296231787842 0.2931933986486215	-0.107074
N	0.7248996172223670 0.2212858927479903 0.2034581640001574	-0.105883
N	0.2208786949305025 0.7247482903964646 0.2067136309082461	-0.105101
N	0.2251084540572698 0.7416389291294828 0.6846540333257662	-0.098294
N	0.7339138732405177 0.2246582892940009 0.6882383742488739	-0.099656
N	0.2753653126254489 0.7616192265017704 0.8146580723006307	-0.097700
N	0.7631327300901605 0.2748498145840797 0.8125871257163926	-0.099405
N	0.4083129063848401 0.2476993521927901 0.2379628735450828	-0.233246
N	0.0917609958510529 0.2519963944829779 0.2615323377913046	-0.233717
N	0.2472506361781922 0.4079883298667416 0.2396922329006576	-0.234440
N	0.2530379228342328 0.0917432189221254 0.2612202844519145	-0.233693
N	0.5922186438489111 0.7514513280133377 0.7615245121232261	-0.230150
N	0.9081953197445021 0.7487663658941262 0.7385235678490023	-0.229534
N	0.7520983363677367 0.5920354368185748 0.7613834142241279	-0.229808
N	0.7478743206186677 0.9075608287878476 0.7379492554475864	-0.230877
F	0.3405631896167587 0.1573285259758111 0.7517446193848460	-0.529723
F	0.1607319694041990 0.3415695273895795 0.7475852509402244	-0.529585
F	0.3421837578107472 0.3393615687837747 0.7316119537973080	-0.531915
F	0.1588247478827194 0.1599858743763108 0.7689135229239566	-0.531717
F	0.6579846677843211 0.8407796178695996 0.2499909381729467	-0.525678
F	0.8412848350621187 0.6601563966654929 0.2495610167141030	-0.526382
F	0.6598535072336624 0.6590614353730234 0.2660285570597755	-0.529295
F	0.8395713911234448 0.8416892349939467 0.2337679624883886	-0.529337
F	0.2495185204507555 0.2472062884071326 0.5203403834323572	-0.506541
F	0.2513888395710585 0.2517792103422429 0.9797807723919774	-0.506684
F	0.7502417386774518 0.7506433219804548 0.4797586644348492	-0.504151
F	0.7493273499884784 0.7498587278132064 0.0199112685557140	-0.504449
Si	0.2506192227740186 0.2494479614104336 0.7499922479580239	1.721774
Si	0.7496272324655979 0.7504640800195835 0.2498341732776167	1.716307
Ni	0.2500795978456807 0.2498292818007808 0.2500591924303300	0.760668
Ni	0.7501927282558364 0.7498483721462530 0.7498348445020645	0.757400
	  	
