#======================================================================

# CRYSTAL DATA

#----------------------------------------------------------------------

data_VESTA_phase_1


_pd_phase_name                         SIFSIX_13_Zn_i
_cell_length_a                         15.38279
_cell_length_b                         15.38093
_cell_length_c                         7.70820
_cell_angle_alpha                      89.74912
_cell_angle_beta                       90.17185
_cell_angle_gamma                      89.79466
_symmetry_space_group_name_H-M         P 1
_symmetry_Int_Tables_number            1

loop_
_symmetry_equiv_pos_as_xyz
   x, y, z

loop_
   _atom_site_label
   _atom_site_fract_x
   _atom_site_fract_y
   _atom_site_fract_z
   _atom_site_charge
C	0.5404618717587530 0.6855826556971595 0.8682848169590065	0.108063
C	0.5439826099362867 0.7760850100665165 0.8666037777467248	-0.150987
C	0.4629227821158124 0.3174723396909240 0.8748061394049795	0.106968
C	0.4594554902747474 0.2270393338169184 0.8753189834552351	-0.142267
C	0.8164238292277668 0.9734000775158007 0.3621902036381386	0.109688
C	0.7261464456977879 0.9700559490322783 0.3583978110138528	-0.137972
C	0.3166206602169016 0.5417286212090749 0.8660547191753973	0.106492
C	0.2261406177924425 0.5460294862003265 0.8636804838988120	-0.149643
C	0.1856909634599856 0.9708390274307243 0.3525077256930775	0.103375
C	0.2760514312824079 0.9694384439531997 0.3502520472114763	-0.138430
C	0.6845906091824714 0.4626519770628072 0.8813284334453182	0.106783
C	0.7749947885455482 0.4596183077676294 0.8806681452191908	-0.142125
C	0.4546039729032574 0.6855089826949504 0.1163093276705709	0.108911
C	0.4512380478602385 0.7759150212014334 0.1182561542680732	-0.140988
C	0.5401880005896632 0.3186689921139236 0.1349758674762273	0.107367
C	0.5430389293247392 0.2281447084238996 0.1403920655230808	-0.151989
C	0.1836686461346533 0.0200438543122149 0.6374046146222152	0.109164
C	0.2738756166639238 0.0226822805677730 0.6444569460055937	-0.140651
C	0.6831589916414725 0.5437791655907118 0.1355160975001223	0.107183
C	0.7737008268277433 0.5473524985054795 0.1391488700687826	-0.150884
C	0.8162449936598107 0.0298895534764692 0.6416639808627501	0.103665
C	0.7259144911863530 0.0309368718232454 0.6467474334353777	-0.137978
C	0.3160106928069547 0.4578366092409058 0.1180797211510360	0.109645
C	0.2255882830878705 0.4552175996503847 0.1194864045320131	-0.141791
C	0.9653753269225459 0.8143178597018274 0.6372811594760122	0.109428
C	0.9640658257572011 0.7239074250592117 0.6439147069925191	-0.137714
C	0.9834874628144243 0.1823138196062621 0.6437238918338689	0.102880
C	0.9793887919785402 0.2725170686091687 0.6463506849858415	-0.139330
C	0.0211635826293171 0.8135007621543836 0.3571608921870123	0.103058
C	0.0244526854031108 0.7232669745044626 0.3550296250141058	-0.138740
C	0.0315537092788648 0.1820362500048594 0.3578925229026128	0.109521
C	0.0315830547643815 0.2724360127699215 0.3511442613431698	-0.139270
C	0.0039869569397053 0.3185949173361917 0.4974958292431516	0.042239
C	0.0010000555589990 0.4138144869297105 0.4972515962026762	0.255874
C	0.4978808429360911 0.8222172679629903 0.9926902676763786	0.056634
C	0.4989057890392217 0.9181378534062136 0.9973885508549554	0.245607
C	0.9951522171727651 0.6773656222289165 0.5007937003387395	0.037744
C	0.9971900137788330 0.5820085913874125 0.5008399637871361	0.248066
C	0.5010531246259810 0.1814243760519138 0.0095712261343449	0.055848
C	0.5003908610474002 0.0853841895846544 0.0104301981523404	0.251027
C	0.6798402684450030 0.9998567067533012 0.5028713791484456	0.037538
C	0.5845556910237394 0.9977734164387240 0.5039876147067380	0.247204
C	0.1796982960102137 0.5011704890431535 0.9913157610227314	0.054759
C	0.0837405137182808 0.5022261716604419 0.9936849819943987	0.250152
C	0.3211255494310741 0.9961351269856102 0.4987772847260498	0.042374
C	0.4163607893330482 0.9961348741498672 0.5019285841092134	0.254904
C	0.8205271033087699 0.5036834396629192 0.0107153079224566	0.055934
C	0.9165143972731392 0.5035163979875389 0.0080961378958050	0.249040
H	0.5715279796579028 0.6471761838421974 0.7667281532516700	0.110647
H	0.5811271954713479 0.8093789802997177 0.7662608974663468	0.123230
H	0.4352077242118968 0.3554877644673302 0.7678277018405786	0.110426
H	0.4273754276139118 0.1924477041567231 0.7701701084064793	0.116936
H	0.8545440536234763 0.9525610694289458 0.2506498810461495	0.108836
H	0.6927846114487065 0.9455108403754852 0.2439183352887573	0.118826
H	0.3552797659002473 0.5716196736739605 0.7631840004214128	0.110856
H	0.1931458811807765 0.5827289760262573 0.7615517100274733	0.123591
H	0.1486831129534684 0.9532378895108994 0.2369999197657588	0.104353
H	0.3100578252687196 0.9495389473335522 0.2330867858049342	0.115109
H	0.6466066543661437 0.4333197917520002 0.7769976214660237	0.110405
H	0.8096154506217897 0.4261670539633634 0.7773479720997183	0.116542
H	0.4235683924013178 0.6469288255159030 0.2179248048872116	0.109948
H	0.4161334100772476 0.8098804346401239 0.2201710951534536	0.116440
H	0.5680596557226189 0.3575914894910819 0.2395487899077534	0.110267
H	0.5762131074221249 0.1953846730290084 0.2474851308500666	0.123746
H	0.1449053728149793 0.0383141400548606 0.7498024914111922	0.108939
H	0.3063095288528924 0.0435754684614753 0.7628237566443232	0.118526
H	0.6442497986148005 0.5729688224625339 0.2386440629535071	0.111155
H	0.8063509587375858 0.5824298973363242 0.2431051710691202	0.122939
H	0.8540066090851661 0.0502685728998264 0.7543113399860932	0.103938
H	0.6926718045880559 0.0538747366697462 0.7625266370135673	0.120108
H	0.3542943635644055 0.4273134018893866 0.2214540396710100	0.109340
H	0.1912124320400991 0.4210461479915784 0.2224187657058595	0.115587
H	0.9442731687379097 0.8527839338703006 0.7481701369452641	0.110469
H	0.9408335410600702 0.6909943102072207 0.7602138524388264	0.118611
H	0.9674576150565342 0.1446499510326453 0.7592980357522146	0.103095
H	0.9585595256094598 0.3058835251624494 0.7634978413409704	0.118912
H	0.0406192973517846 0.8509079016270097 0.2433120994847071	0.103836
H	0.0484742720045896 0.6897188964344246 0.2405806586929969	0.118015
H	0.0503026129671093 0.1438216769789903 0.2450278132911239	0.109843
H	0.0508523871346296 0.3056825070554784 0.2323336094925241	0.118289
N	0.9439769446420901 0.5389522623640898 0.6106695831373835	-0.136561
N	0.4222247286128803 0.0456448864398943 0.0090387690970589	-0.150874
N	0.5423561150023846 0.0504272652482602 0.6160337065146652	-0.135348
N	0.9568228489566267 0.4253945457560007 0.0029070708482214	-0.147022
N	0.0518164991439456 0.5424281303688978 0.3884749157413654	-0.134166
N	0.5777951243312455 0.0436786095123796 0.0118519513042664	-0.147591
N	0.9575153749716109 0.5810104186323394 0.0054327242836395	-0.149394
N	0.5442210353669130 0.9421440660044295 0.3949999256063849	-0.133531
N	0.0540808769263867 0.4569006650282586 0.3875109073543331	-0.130630
N	0.5770894470754778 0.9578829566401197 0.0006639119364045	-0.147024
N	0.4586255517264367 0.9413346651128983 0.3942819809069585	-0.130008
N	0.0432946438891775 0.5803315191390941 0.9939123210056601	-0.146292
N	0.9455310424270235 0.4533229986743081 0.6076911454948408	-0.130634
N	0.4215585768816992 0.9597063151663874 0.0056609472221020	-0.144057
N	0.0427481744942199 0.4247216288397852 0.9984262395070628	-0.149741
N	0.4567744281959731 0.0496556529609407 0.6146550668068559	-0.133659
N	0.0077288015108881 0.1378287497615076 0.5014931031332571	-0.219179
N	0.4976168541844031 0.6413603029967692 0.9925295615657403	-0.221815
N	0.9934217154245367 0.8582744914400835 0.4964659412280008	-0.217130
N	0.5016665624806520 0.3622147561491540 0.0034320743148950	-0.226238
N	0.8606671221489045 0.0023315742919402 0.5016349110854318	-0.218448
N	0.3604559070460424 0.4994667220866317 0.9925149448251444	-0.225275
N	0.1403305171800362 0.9947549832825133 0.4940099535208113	-0.218159
N	0.6396878946715706 0.5030792374021819 0.0075728376959737	-0.222769
Zn	0.0004312424182739 0.9979660937934453 0.4980647845061404	0.729951
Zn	0.5000954816585548 0.5019184803185610 0.9991283395605195	0.729972
Si	0.9997754295863590 0.9973762605846274 0.9984309997235370	1.722476
Si	0.4995471882248566 0.5031160800668787 0.4988653838837691	1.735409
F	0.9980659099723505 0.0008841240791445 0.2255103587910521	-0.501424
F	0.5055318529601310 0.5001715551199409 0.7266174539178155	-0.503499
F	0.0015659393471081 0.9938546950590567 0.7711784122005723	-0.501845
F	0.4937451409370019 0.5059110806809478 0.2711470384429788	-0.504599
F	0.0784069547870671 0.0751926881828127 0.9956242706588063	-0.537754
F	0.5758417917434785 0.5834170459902540 0.4951330085583493	-0.551171
F	0.9211387129760267 0.9197589045281537 0.0010135720793138	-0.537689
F	0.4233589154968637 0.4229697806435099 0.5029199986639360	-0.552706
F	0.9220165258766294 0.0762870184713222 0.9895473436067048	-0.533354
F	0.4194678654320130 0.5798896639756497 0.5091842958906798	-0.551120
F	0.0778485562664421 0.9187543097537637 0.0073177520132873	-0.533887
F	0.5801457724957022 0.4268332087878512 0.4882121921612622	-0.551351
	  	
