#======================================================================

# CRYSTAL DATA

#----------------------------------------------------------------------

data_VESTA_phase_1


_pd_phase_name                         SIFSIX_5_Cu_i
_cell_length_a                         19.69867
_cell_length_b                         19.69867
_cell_length_c                         15.38131
_cell_angle_alpha                      90
_cell_angle_beta                       90
_cell_angle_gamma                      90
_symmetry_space_group_name_H-M         P 1
_symmetry_Int_Tables_number            1

loop_
_symmetry_equiv_pos_as_xyz
   x, y, z

loop_
   _atom_site_label
   _atom_site_fract_x
   _atom_site_fract_y
   _atom_site_fract_z
   _atom_site_charge
F	0.3175830196958530 0.1946398062809492 0.3516810709627829	-0.556259
F	0.1824169683041461 0.3053601937190507 0.3516810709627829	-0.556263
F	0.3053601937190507 0.3175830196958530 0.3516810709627829	-0.556262
F	0.1946398062809492 0.1824169683041461 0.3516810709627829	-0.556260
F	0.6824170043041421 0.6946398302809509 0.1483189290372169	-0.556259
F	0.8175829956958579 0.8053601697190491 0.1483189290372169	-0.556261
F	0.6946398302809509 0.8175829956958579 0.1483189290372169	-0.556261
F	0.8053601697190491 0.6824170043041421 0.1483189290372169	-0.556259
F	0.6824170043041421 0.8053601697190491 0.6483189610372194	-0.556263
F	0.8175829956958579 0.6946398302809509 0.6483189610372194	-0.556259
F	0.6946398302809509 0.6824170043041421 0.6483189610372194	-0.556260
F	0.8053601697190491 0.8175829956958579 0.6483189610372194	-0.556262
F	0.3175830196958530 0.3053601937190507 0.8516810389627806	-0.556261
F	0.1824169683041461 0.1946398062809492 0.8516810389627806	-0.556260
F	0.3053601937190507 0.1824169683041461 0.8516810389627806	-0.556259
F	0.1946398062809492 0.3175830196958530 0.8516810389627806	-0.556262
F	0.2500000000000000 0.2500000000000000 0.4626539946083412	-0.529874
F	0.2500000000000000 0.2500000000000000 0.2404982394014790	-0.531747
F	0.7500000000000000 0.7500000000000000 0.0373460323916574	-0.529877
F	0.7500000000000000 0.7500000000000000 0.2595017445985195	-0.531747
F	0.7500000000000000 0.7500000000000000 0.5373460363916580	-0.529872
F	0.7500000000000000 0.7500000000000000 0.7595017445985193	-0.531748
F	0.2500000000000000 0.2500000000000000 0.9626539636083420	-0.529875
F	0.2500000000000000 0.2500000000000000 0.7404982554014807	-0.531749
N	0.3530912228066779 0.2476992629250027 0.6014009236962811	-0.229026
N	0.1469087771933221 0.2523007370749972 0.6014009236962811	-0.229026
N	0.2523007370749972 0.3530912228066779 0.6014009236962811	-0.229027
N	0.2476992629250027 0.1469087771933221 0.6014009236962811	-0.229026
N	0.6469088011933243 0.7476992389250009 0.8985990763037189	-0.229028
N	0.8530911988066757 0.7523007610749991 0.8985990763037189	-0.229029
N	0.7476992389250009 0.8530911988066757 0.8985990763037189	-0.229029
N	0.7523007610749991 0.6469088011933243 0.8985990763037189	-0.229028
N	0.6469088011933243 0.7523007610749991 0.3985991073037179	-0.229025
N	0.8530911988066757 0.7476992389250009 0.3985991073037179	-0.229025
N	0.7476992389250009 0.6469088011933243 0.3985991073037179	-0.229024
N	0.7523007610749991 0.8530911988066757 0.3985991073037179	-0.229025
N	0.3530912228066779 0.2523007370749972 0.1014009236962811	-0.229027
N	0.1469087771933221 0.2476992629250027 0.1014009236962811	-0.229026
N	0.2523007370749972 0.1469087771933221 0.1014009236962811	-0.229026
N	0.2476992629250027 0.3530912228066779 0.1014009236962811	-0.229027
C	0.3863048320547407 0.2180476203995122 0.6678514756055186	0.102646
C	0.4567083519882028 0.2162421881938260 0.6711868671757655	-0.175478
C	0.4949080119514404 0.2471323502783617 0.6051062403470056	0.105753
C	0.4591079705462743 0.2779028048870870 0.5366711880172829	-0.178753
C	0.3885977567865519 0.2767077368985372 0.5364179928436754	0.103488
C	0.5695546047445209 0.2478075534571968 0.6082342096243802	0.053321
C	0.6059250379754264 0.1908734381246483 0.6378135911156894	-0.131126
C	0.6764001797820227 0.1916991878869888 0.6405406257237448	-0.123817
C	0.7126754296922645 0.2498074601383359 0.6153011726378093	0.067080
C	0.6764126813201331 0.3070059257030034 0.5868145124371614	-0.117167
C	0.6059790249762002 0.3057777629578098 0.5825154499306218	-0.126633
C	0.1136951439452645 0.2819524036004899 0.6678514756055186	0.102647
C	0.0432915880117994 0.2837578358061760 0.6711868671757655	-0.175480
C	0.0050919670485615 0.2528676497216382 0.6051062403470056	0.105751
C	0.0408920564537243 0.2220971951129130 0.5366711880172829	-0.178748
C	0.1114022072134451 0.2232922871014648 0.5364179928436754	0.103485
C	0.9304453472554822 0.2521924225428013 0.6082342096243802	0.053321
C	0.8940750100245705 0.3091265968753509 0.6378135911156894	-0.131123
C	0.8235998202179773 0.3083008241130050 0.6405406257237448	-0.123816
C	0.7873245703077355 0.2501925158616622 0.6153011726378093	0.067077
C	0.8235873656798672 0.1929940742969966 0.5868145124371614	-0.117163
C	0.8940210710238007 0.1942222720421896 0.5825154499306218	-0.126633
C	0.2819524036004899 0.3863048320547407 0.6678514756055186	0.102648
C	0.2837578358061760 0.4567083519882028 0.6711868671757655	-0.175480
C	0.2528676497216382 0.4949080119514404 0.6051062403470056	0.105752
C	0.2220971951129130 0.4591079705462743 0.5366711880172829	-0.178750
C	0.2232922871014648 0.3885977567865519 0.5364179928436754	0.103489
C	0.2521924225428013 0.5695546047445209 0.6082342096243802	0.053320
C	0.3091265968753509 0.6059250379754264 0.6378135911156894	-0.131126
C	0.3083008241130050 0.6764001797820227 0.6405406257237448	-0.123818
C	0.2501925158616622 0.7126754296922645 0.6153011726378093	0.067078
C	0.1929940742969966 0.6764126813201331 0.5868145124371614	-0.117166
C	0.1942222720421896 0.6059790249762002 0.5825154499306218	-0.126634
C	0.2180476203995122 0.1136951439452645 0.6678514756055186	0.102646
C	0.2162421881938260 0.0432915880117994 0.6711868671757655	-0.175477
C	0.2471323502783617 0.0050919670485614 0.6051062403470056	0.105752
C	0.2779028048870870 0.0408920564537243 0.5366711880172829	-0.178750
C	0.2767077368985372 0.1114022072134451 0.5364179928436754	0.103485
C	0.2478075534571968 0.9304453472554822 0.6082342096243802	0.053321
C	0.1908734381246483 0.8940750100245705 0.6378135911156894	-0.131123
C	0.1916991878869888 0.8235998202179773 0.6405406257237448	-0.123815
C	0.2498074601383359 0.7873245703077355 0.6153011726378093	0.067079
C	0.3070059257030034 0.8235873656798672 0.5868145124371614	-0.117164
C	0.3057777629578098 0.8940210710238007 0.5825154499306218	-0.126632
C	0.6136951439452646 0.7180476683995091 0.8321485243944814	0.102645
C	0.5432916000118003 0.7162422121938207 0.8288131328242345	-0.175476
C	0.5050919880485594 0.7471323982783586 0.8948937596529944	0.105751
C	0.5408921254537266 0.7779027568870830 0.9633288119827171	-0.178751
C	0.6114022672134430 0.7767077608985318 0.9635820071563246	0.103484
C	0.4304453952554792 0.7478076254571956 0.8917657903756198	0.053321
C	0.3940749620245737 0.6908734031246492 0.8621864088843106	-0.131123
C	0.3235997482179712 0.6916991518869927 0.8594593742762552	-0.123816
C	0.2873246183077393 0.7498074841383380 0.8846988273621907	0.067078
C	0.3235872706798630 0.8070059257030032 0.9131854875628386	-0.117166
C	0.3940209990237948 0.8057776919578074 0.9174845500693782	-0.126631
C	0.8863048560547354 0.7819523316004909 0.8321485243944814	0.102648
C	0.9567083999881997 0.7837577878061793 0.8288131328242345	-0.175482
C	0.9949080599514375 0.7528676017216414 0.8948937596529944	0.105753
C	0.9591079225462774 0.7220972431129170 0.9633288119827171	-0.178748
C	0.8885977327865570 0.7232922391014682 0.9635820071563246	0.103485
C	0.0695546407445167 0.7521923745428044 0.8917657903756198	0.053320
C	0.1059250259754253 0.8091265968753508 0.8621864088843106	-0.131125
C	0.1764002277820267 0.8083008001130104 0.8594593742762552	-0.123817
C	0.2126753816922606 0.7501925158616620 0.8846988273621907	0.067078
C	0.1764127053201350 0.6929940742969968 0.9131854875628386	-0.117166
C	0.1059790009762052 0.6942222610421923 0.9174845500693782	-0.126635
C	0.7180476683995091 0.8863048560547354 0.8321485243944814	0.102650
C	0.7162422121938207 0.9567083999881997 0.8288131328242345	-0.175478
C	0.7471323982783586 0.9949080599514375 0.8948937596529944	0.105752
C	0.7779027568870830 0.9591079225462774 0.9633288119827171	-0.178751
C	0.7767077608985318 0.8885977327865570 0.9635820071563246	0.103486
C	0.7478076254571956 0.0695546407445167 0.8917657903756198	0.053320
C	0.6908734031246492 0.1059250259754253 0.8621864088843106	-0.131126
C	0.6916991518869927 0.1764002277820267 0.8594593742762552	-0.123816
C	0.7498074841383380 0.2126753816922606 0.8846988273621907	0.067078
C	0.8070059257030032 0.1764127053201350 0.9131854875628386	-0.117166
C	0.8057776919578074 0.1059790009762052 0.9174845500693782	-0.126634
C	0.7819523316004909 0.6136951439452646 0.8321485243944814	0.102645
C	0.7837577878061793 0.5432916000118003 0.8288131328242345	-0.175479
C	0.7528676017216414 0.5050919880485594 0.8948937596529944	0.105752
C	0.7220972431129170 0.5408921254537266 0.9633288119827171	-0.178747
C	0.7232922391014682 0.6114022672134430 0.9635820071563246	0.103484
C	0.7521923745428044 0.4304453952554792 0.8917657903756198	0.053321
C	0.8091265968753508 0.3940749620245737 0.8621864088843106	-0.131123
C	0.8083008001130104 0.3235997482179712 0.8594593742762552	-0.123817
C	0.7501925158616620 0.2873246183077393 0.8846988273621907	0.067078
C	0.6929940742969968 0.3235872706798630 0.9131854875628386	-0.117166
C	0.6942222610421923 0.3940209990237948 0.9174845500693782	-0.126632
C	0.6136951439452646 0.7819523316004909 0.3321485553944802	0.102647
C	0.5432916000118003 0.7837577878061793 0.3288131328242345	-0.175479
C	0.5050919880485594 0.7528676017216414 0.3948937596529939	0.105751
C	0.5408921254537266 0.7220972431129170 0.4633288429827232	-0.178748
C	0.6114022672134430 0.7232922391014682 0.4635820071563247	0.103485
C	0.4304453952554792 0.7521923745428044 0.3917657903756200	0.053325
C	0.3940749620245737 0.8091265968753508 0.3621863778843116	-0.131122
C	0.3235997482179712 0.8083008001130104 0.3594594052762543	-0.123819
C	0.2873246183077393 0.7501925158616620 0.3846987333621901	0.067075
C	0.3235872706798630 0.6929940742969968 0.4131855185628380	-0.117182
C	0.3940209990237948 0.6942222610421923 0.4174845500693787	-0.126648
C	0.8863048560547354 0.7180476683995091 0.3321485553944802	0.102647
C	0.9567083999881997 0.7162422121938207 0.3288131328242345	-0.175477
C	0.9949080599514375 0.7471323982783586 0.3948937596529939	0.105753
C	0.9591079225462774 0.7779027568870830 0.4633288429827232	-0.178752
C	0.8885977327865570 0.7767077608985318 0.4635820071563247	0.103488
C	0.0695546407445167 0.7478076254571956 0.3917657903756200	0.053324
C	0.1059250259754253 0.6908734031246492 0.3621863778843116	-0.131125
C	0.1764002277820267 0.6916991518869927 0.3594594052762543	-0.123819
C	0.2126753816922606 0.7498074841383380 0.3846987333621901	0.067074
C	0.1764127053201350 0.8070059257030032 0.4131855185628380	-0.117185
C	0.1059790009762052 0.8057776919578074 0.4174845500693787	-0.126649
C	0.7180476683995091 0.6136951439452646 0.3321485553944802	0.102647
C	0.7162422121938207 0.5432916000118003 0.3288131328242345	-0.175477
C	0.7471323982783586 0.5050919880485594 0.3948937596529939	0.105752
C	0.7779027568870830 0.5408921254537266 0.4633288429827232	-0.178749
C	0.7767077608985318 0.6114022672134430 0.4635820071563247	0.103485
C	0.7478076254571956 0.4304453952554792 0.3917657903756200	0.053325
C	0.6908734031246492 0.3940749620245737 0.3621863778843116	-0.131122
C	0.6916991518869927 0.3235997482179712 0.3594594052762543	-0.123818
C	0.7498074841383380 0.2873246183077393 0.3846987333621901	0.067077
C	0.8070059257030032 0.3235872706798630 0.4131855185628380	-0.117183
C	0.8057776919578074 0.3940209990237948 0.4174845500693787	-0.126647
C	0.7819523316004909 0.8863048560547354 0.3321485553944802	0.102649
C	0.7837577878061793 0.9567083999881997 0.3288131328242345	-0.175479
C	0.7528676017216414 0.9949080599514375 0.3948937596529939	0.105752
C	0.7220972431129170 0.9591079225462774 0.4633288429827232	-0.178749
C	0.7232922391014682 0.8885977327865570 0.4635820071563247	0.103489
C	0.7521923745428044 0.0695546407445167 0.3917657903756200	0.053324
C	0.8091265968753508 0.1059250259754253 0.3621863778843116	-0.131125
C	0.8083008001130104 0.1764002277820267 0.3594594052762543	-0.123820
C	0.7501925158616620 0.2126753816922606 0.3846987333621901	0.067072
C	0.6929940742969968 0.1764127053201350 0.4131855185628380	-0.117183
C	0.6942222610421923 0.1059790009762052 0.4174845500693787	-0.126650
C	0.3863048320547407 0.2819524036004899 0.1678514606055210	0.102648
C	0.4567083519882028 0.2837578358061760 0.1711868361757663	-0.175481
C	0.4949080119514404 0.2528676497216382 0.1051062403470060	0.105753
C	0.4591079705462743 0.2220971951129130 0.0366711530172836	-0.178748
C	0.3885977567865519 0.2232922871014648 0.0364179848436747	0.103485
C	0.5695546047445209 0.2521924225428013 0.1082342016243793	0.053324
C	0.6059250379754264 0.3091265968753509 0.1378135911156893	-0.131125
C	0.6764001797820227 0.3083008241130050 0.1405405787237443	-0.123820
C	0.7126754296922645 0.2501925158616622 0.1153012436378115	0.067076
C	0.6764126813201331 0.1929940742969966 0.0868144964371599	-0.117184
C	0.6059790249762002 0.1942222720421896 0.0825154649306190	-0.126650
C	0.1136951439452645 0.2180476203995122 0.1678514606055210	0.102646
C	0.0432915880117994 0.2162421881938260 0.1711868361757663	-0.175476
C	0.0050919670485614 0.2471323502783617 0.1051062403470060	0.105751
C	0.0408920564537243 0.2779028048870870 0.0366711530172836	-0.178751
C	0.1114022072134451 0.2767077368985372 0.0364179848436747	0.103484
C	0.9304453472554822 0.2478075534571968 0.1082342016243793	0.053325
C	0.8940750100245705 0.1908734381246483 0.1378135911156893	-0.131124
C	0.8235998202179773 0.1916991878869888 0.1405405787237443	-0.123818
C	0.7873245703077355 0.2498074601383359 0.1153012436378115	0.067072
C	0.8235873656798672 0.3070059257030034 0.0868144964371599	-0.117183
C	0.8940210710238007 0.3057777629578098 0.0825154649306190	-0.126647
C	0.2819524036004899 0.1136951439452645 0.1678514606055210	0.102646
C	0.2837578358061760 0.0432915880117994 0.1711868361757663	-0.175478
C	0.2528676497216382 0.0050919670485614 0.1051062403470060	0.105752
C	0.2220971951129130 0.0408920564537243 0.0366711530172836	-0.178747
C	0.2232922871014648 0.1114022072134451 0.0364179848436747	0.103485
C	0.2521924225428013 0.9304453472554822 0.1082342016243793	0.053325
C	0.3091265968753509 0.8940750100245705 0.1378135911156893	-0.131123
C	0.3083008241130050 0.8235998202179773 0.1405405787237443	-0.123820
C	0.2501925158616622 0.7873245703077355 0.1153012436378115	0.067076
C	0.1929940742969966 0.8235873656798672 0.0868144964371599	-0.117184
C	0.1942222720421896 0.8940210710238007 0.0825154649306190	-0.126648
C	0.2180476203995122 0.3863048320547407 0.1678514606055210	0.102650
C	0.2162421881938260 0.4567083519882028 0.1711868361757663	-0.175477
C	0.2471323502783617 0.4949080119514404 0.1051062403470060	0.105752
C	0.2779028048870870 0.4591079705462743 0.0366711530172836	-0.178751
C	0.2767077368985372 0.3885977567865519 0.0364179848436747	0.103486
C	0.2478075534571968 0.5695546047445209 0.1082342016243793	0.053324
C	0.1908734381246483 0.6059250379754264 0.1378135911156893	-0.131126
C	0.1916991878869888 0.6764001797820227 0.1405405787237443	-0.123818
C	0.2498074601383359 0.7126754296922645 0.1153012436378115	0.067073
C	0.3070059257030034 0.6764126813201331 0.0868144964371599	-0.117183
C	0.3057777629578098 0.6059790249762002 0.0825154649306190	-0.126650
H	0.3550812285459194 0.1970881186819635 0.7200224927534041	0.109218
H	0.4813702992100238 0.1926082809788452 0.7269346333809831	0.114957
H	0.4857618772747480 0.3015579018948979 0.4824575314122642	0.115602
H	0.3590334917715845 0.2981494337237158 0.4829725214578474	0.109507
H	0.5784515527900816 0.1452699277258495 0.6573225743169163	0.100186
H	0.7042236303577568 0.1474002016213563 0.6636665586185236	0.100781
H	0.7041616608984469 0.3518041967359602 0.5651347901502800	0.101358
H	0.5786107586486238 0.3505567571925812 0.5599986009838360	0.103738
H	0.1449187354540776 0.3029119053180383 0.7200224927534041	0.109216
H	0.0186297067899695 0.3073917430211567 0.7269346333809831	0.114959
H	0.0142381117252547 0.1984421101051032 0.4824575314122642	0.115600
H	0.1409665322284176 0.2018505542762833 0.4829725214578474	0.109507
H	0.9215484942099187 0.3547300722741505 0.6573225743169163	0.100186
H	0.7957763696422432 0.3525997863786427 0.6636665586185236	0.100779
H	0.7958383391015531 0.1481958152640408 0.5651347901502800	0.101361
H	0.9213892413513762 0.1494432308074250 0.5599986009838360	0.103741
H	0.3029119053180383 0.3550812285459194 0.7200224927534041	0.109218
H	0.3073917430211567 0.4813702992100238 0.7269346333809831	0.114960
H	0.1984421101051032 0.4857618772747480 0.4824575314122642	0.115601
H	0.2018505542762833 0.3590334917715845 0.4829725214578474	0.109507
H	0.3547300722741505 0.5784515527900816 0.6573225743169163	0.100186
H	0.3525997863786427 0.7042236303577568 0.6636665586185236	0.100780
H	0.1481958152640408 0.7041616608984469 0.5651347901502800	0.101360
H	0.1494432308074250 0.5786107586486238 0.5599986009838360	0.103742
H	0.1970881186819635 0.1449187354540776 0.7200224927534041	0.109216
H	0.1926082809788452 0.0186297067899695 0.7269346333809831	0.114957
H	0.3015579018948979 0.0142381117252547 0.4824575314122642	0.115601
H	0.2981494337237158 0.1409665322284176 0.4829725214578474	0.109507
H	0.1452699277258495 0.9215484942099187 0.6573225743169163	0.100188
H	0.1474002016213563 0.7957763696422432 0.6636665586185236	0.100780
H	0.3518041967359602 0.7958383391015531 0.5651347901502800	0.101359
H	0.3505567571925812 0.9213892413513762 0.5599986009838360	0.103739
H	0.6449187234540765 0.6970881186819637 0.7799775072465959	0.109217
H	0.5186296527899721 0.6926082569788428 0.7730653666190169	0.114957
H	0.5142381227252519 0.8015579018948978 0.0175424535877310	0.115601
H	0.6409665082284155 0.7981494097237135 0.0170275065421550	0.109509
H	0.4215484472099185 0.6452699277258496 0.8426774256830837	0.100187
H	0.2957763936422452 0.6474002136213572 0.8363334413814764	0.100781
H	0.2958383391015532 0.8518041967359603 0.9348652098497200	0.101360
H	0.4213892893513730 0.8505567811925758 0.9400013990161640	0.103740
H	0.8550813245459203 0.8029119293180402 0.7799775072465959	0.109218
H	0.9813702512100271 0.8073917430211572 0.7730653666190169	0.114958
H	0.9857618292747512 0.6984420981051022 0.0175424535877310	0.115602
H	0.8590333957715837 0.7018505902762865 0.0170275065421550	0.109511
H	0.0784515527900815 0.8547300722741504 0.8426774256830837	0.100185
H	0.2042236063577548 0.8525997863786428 0.8363334413814764	0.100778
H	0.2041616608984469 0.6481958512640366 0.9348652098497200	0.101359
H	0.0786107526486235 0.6494432188074242 0.9400013990161640	0.103739
H	0.6970881186819637 0.8550813245459203 0.7799775072465959	0.109217
H	0.6926082569788428 0.9813702512100271 0.7730653666190169	0.114958
H	0.8015579018948978 0.9857618292747512 0.0175424535877310	0.115603
H	0.7981494097237135 0.8590333957715837 0.0170275065421550	0.109511
H	0.6452699277258496 0.0784515527900815 0.8426774256830837	0.100188
H	0.6474002136213572 0.2042236063577548 0.8363334413814764	0.100780
H	0.8518041967359603 0.2041616608984469 0.9348652098497200	0.101359
H	0.8505567811925758 0.0786107526486235 0.9400013990161640	0.103740
H	0.8029119293180402 0.6449187234540765 0.7799775072465959	0.109217
H	0.8073917430211572 0.5186296527899721 0.7730653666190169	0.114958
H	0.6984420981051022 0.5142381227252519 0.0175424535877310	0.115600
H	0.7018505902762865 0.6409665082284155 0.0170275065421550	0.109509
H	0.8547300722741504 0.4215484472099185 0.8426774256830837	0.100185
H	0.8525997863786428 0.2957763936422452 0.8363334413814764	0.100778
H	0.6481958512640366 0.2958383391015532 0.9348652098497200	0.101360
H	0.6494432188074242 0.4213892893513730 0.9400013990161640	0.103741
H	0.6449187234540765 0.8029119293180402 0.2799775392465915	0.109216
H	0.5186296527899721 0.8073917430211572 0.2730653976190160	0.114957
H	0.5142381227252519 0.6984420981051022 0.5175424375877368	0.115598
H	0.6409665082284155 0.7018505902762865 0.5170274785421527	0.109507
H	0.4215484472099185 0.8547300722741504 0.3426773946830848	0.100186
H	0.2957763936422452 0.8525997863786428 0.3363334093814736	0.100779
H	0.2958383391015532 0.6481958512640366 0.4348652408497184	0.101391
H	0.4213892893513730 0.6494432188074242 0.4400014610161619	0.103744
H	0.8550813245459203 0.6970881186819637 0.2799775392465915	0.109218
H	0.9813702512100271 0.6926082569788428 0.2730653976190160	0.114955
H	0.9857618292747512 0.8015579018948978 0.5175424375877368	0.115600
H	0.8590333957715837 0.7981494097237135 0.5170274785421527	0.109507
H	0.0784515527900815 0.6452699277258496 0.3426773946830848	0.100186
H	0.2042236063577548 0.6474002136213572 0.3363334093814736	0.100778
H	0.2041616608984469 0.8518041967359603 0.4348652408497184	0.101385
H	0.0786107526486235 0.8505567811925758 0.4400014610161619	0.103742
H	0.6970881186819637 0.6449187234540765 0.2799775392465915	0.109216
H	0.6926082569788428 0.5186296527899721 0.2730653976190160	0.114955
H	0.8015579018948978 0.5142381227252519 0.5175424375877368	0.115599
H	0.7981494097237135 0.6409665082284155 0.5170274785421527	0.109507
H	0.6452699277258496 0.4215484472099185 0.3426773946830848	0.100188
H	0.6474002136213572 0.2957763936422452 0.3363334093814736	0.100781
H	0.8518041967359603 0.2958383391015532 0.4348652408497184	0.101389
H	0.8505567811925758 0.4213892893513730 0.4400014610161619	0.103742
H	0.8029119293180402 0.8550813245459203 0.2799775392465915	0.109218
H	0.8073917430211572 0.9813702512100271 0.2730653976190160	0.114958
H	0.6984420981051022 0.9857618292747512 0.5175424375877368	0.115599
H	0.7018505902762865 0.8590333957715837 0.5170274785421527	0.109507
H	0.8547300722741504 0.0784515527900815 0.3426773946830848	0.100185
H	0.8525997863786428 0.2042236063577548 0.3363334093814736	0.100777
H	0.6481958512640366 0.2041616608984469 0.4348652408497184	0.101388
H	0.6494432188074242 0.0786107526486235 0.4400014610161619	0.103745
H	0.3550812285459194 0.3029119053180383 0.2200224927534041	0.109217
H	0.4813702992100238 0.3073917430211567 0.2269346483809876	0.114957
H	0.4857618772747480 0.1984421101051032 0.9824575934122693	0.115599
H	0.3590334917715845 0.2018505542762833 0.9829724904578483	0.109511
H	0.5784515527900816 0.3547300722741505 0.1573225893169139	0.100185
H	0.7042236303577568 0.3525997863786427 0.1636666056185240	0.100778
H	0.7041616608984469 0.1481958152640408 0.0651347511502808	0.101389
H	0.5786107586486238 0.1494432308074250 0.0599985619838364	0.103743
H	0.1449187354540776 0.1970881186819635 0.2200224927534041	0.109217
H	0.0186297067899695 0.1926082809788452 0.2269346483809876	0.114955
H	0.0142381117252547 0.3015579018948979 0.9824575934122693	0.115598
H	0.1409665322284176 0.2981494337237158 0.9829724904578483	0.109508
H	0.9215484942099187 0.1452699277258495 0.1573225893169139	0.100187
H	0.7957763696422432 0.1474002016213563 0.1636666056185240	0.100779
H	0.7958383391015531 0.3518041967359602 0.0651347511502808	0.101387
H	0.9213892413513762 0.3505567571925812 0.0599985619838364	0.103744
H	0.3029119053180383 0.1449187354540776 0.2200224927534041	0.109217
H	0.3073917430211567 0.0186297067899695 0.2269346483809876	0.114956
H	0.1984421101051032 0.0142381117252547 0.9824575934122693	0.115597
H	0.2018505542762833 0.1409665322284176 0.9829724904578483	0.109508
H	0.3547300722741505 0.9215484942099187 0.1573225893169139	0.100185
H	0.3525997863786427 0.7957763696422432 0.1636666056185240	0.100779
H	0.1481958152640408 0.7958383391015531 0.0651347511502808	0.101390
H	0.1494432308074250 0.9213892413513762 0.0599985619838364	0.103745
H	0.1970881186819635 0.3550812285459194 0.2200224927534041	0.109217
H	0.1926082809788452 0.4813702992100238 0.2269346483809876	0.114956
H	0.3015579018948979 0.4857618772747480 0.9824575934122693	0.115600
H	0.2981494337237158 0.3590334917715845 0.9829724904578483	0.109511
H	0.1452699277258495 0.5784515527900816 0.1573225893169139	0.100188
H	0.1474002016213563 0.7042236303577568 0.1636666056185240	0.100778
H	0.3518041967359602 0.7041616608984469 0.0651347511502808	0.101386
H	0.3505567571925812 0.5786107586486238 0.0599985619838364	0.103743
Cu	0.2500000000000000 0.2500000000000000 0.6008877398674634	0.723583
Cu	0.7500000000000000 0.7500000000000000 0.8991122601325366	0.723583
Cu	0.7500000000000000 0.7500000000000000 0.3991121981325385	0.723578
Cu	0.2500000000000000 0.2500000000000000 0.1008877628674617	0.723578
Si	0.2500000000000000 0.2500000000000000 0.3516544843821817	1.740542
Si	0.7500000000000000 0.7500000000000000 0.1483455306178159	1.740542
Si	0.7500000000000000 0.7500000000000000 0.6483456086178153	1.740542
Si	0.2500000000000000 0.2500000000000000 0.8516543913821847	1.740542
	  	
