#======================================================================

# CRYSTAL DATA

#----------------------------------------------------------------------

data_VESTA_phase_1


_pd_phase_name                         SIFSIX_15_Cu_i
_cell_length_a                         29.56944
_cell_length_b                         28.62255
_cell_length_c                         8.01068
_cell_angle_alpha                      90
_cell_angle_beta                       90
_cell_angle_gamma                      90
_symmetry_space_group_name_H-M         P 1
_symmetry_Int_Tables_number            1

loop_
_symmetry_equiv_pos_as_xyz
   x, y, z

loop_
   _atom_site_label
   _atom_site_fract_x
   _atom_site_fract_y
   _atom_site_fract_z
   _atom_site_charge
C	0.9355494545332583 0.1048142043764426 0.8953911555454933	0.101906
C	0.9031645942145565 0.0698212846852369 0.9008279332862481	-0.162488
C	0.7701733469019914 0.9364331502715977 0.9023269559941288	-0.116012
C	0.7355776405510185 0.9038505610628007 0.9020652053947411	-0.116085
C	0.5659710031838298 0.7393223903696775 0.8952854575894889	0.097432
C	0.5999372014181020 0.7727112544887722 0.9004315173744768	-0.164209
C	0.4355494865332541 0.6048142203764443 0.8953911555454933	0.101900
C	0.4031646262145592 0.5698212476852371 0.9008279332862481	-0.162488
C	0.2701732829019929 0.4364331832715968 0.9023269559941288	-0.116012
C	0.2355776085510155 0.4038506270628063 0.9020652053947411	-0.116085
C	0.0659710271838319 0.2393223733696797 0.8952854575894889	0.097429
C	0.0999371774181001 0.2727112874887718 0.9004315173744768	-0.164210
C	0.0644505134667459 0.8951857796235557 0.3953911865454921	0.101900
C	0.0968353817854415 0.9301787523147629 0.4008279652862435	-0.162489
C	0.2298266690980101 0.0635668127284027 0.4023270179941270	-0.116011
C	0.2644223754489831 0.0961493889371950 0.4020652053947411	-0.116086
C	0.4340289648161676 0.2606776596303196 0.3952854885894875	0.097432
C	0.4000627985818980 0.2272887125112284 0.4004315173744764	-0.164208
C	0.5644505454667417 0.3951858126235552 0.3953911865454921	0.101900
C	0.5968354057854435 0.4301787523147628 0.4008279652862435	-0.162489
C	0.7298266530980086 0.5635668497284023 0.4023270179941270	-0.116011
C	0.7644223594489815 0.5961494389371993 0.4020652053947411	-0.116086
C	0.9340289968161702 0.7606776096303225 0.3952854885894875	0.097431
C	0.9000627985818980 0.7272887455112279 0.4004315173744764	-0.164208
C	0.0644505134667459 0.1048142043764426 0.6046088134545077	0.101906
C	0.0968353817854415 0.0698212846852369 0.5991719727137512	-0.162489
C	0.2298266690980101 0.9364331502715977 0.5976730130058722	-0.116012
C	0.2644223754489831 0.9038505610628007 0.5979348256052579	-0.116085
C	0.4340289648161676 0.7393223903696775 0.6047144484105105	0.097436
C	0.4000627985818980 0.7727112544887721 0.5995684516255242	-0.164208
C	0.5644505454667417 0.6048142203764443 0.6046088134545077	0.101900
C	0.5968354057854435 0.5698212476852371 0.5991719727137512	-0.162489
C	0.7298266530980086 0.4364331832715968 0.5976730130058722	-0.116012
C	0.7644223594489815 0.4038506270628063 0.5979348256052579	-0.116085
C	0.9340289968161702 0.2393223733696797 0.6047144484105105	0.097432
C	0.9000627985818980 0.2727112874887718 0.5995684516255242	-0.164209
C	0.9355494545332583 0.8951857796235557 0.1046088294545090	0.101900
C	0.9031645942145565 0.9301787523147629 0.0991720117137509	-0.162490
C	0.7701733469019914 0.0635668127284027 0.0976730130058723	-0.116011
C	0.7355776405510185 0.0961493889371950 0.0979348106052531	-0.116085
C	0.5659710031838298 0.2606776596303196 0.1047145034105116	0.097432
C	0.5999372014181020 0.2272887125112284 0.0995684976255214	-0.164208
C	0.4355494865332541 0.3951858126235552 0.1046088294545090	0.101900
C	0.4031646262145592 0.4301787523147628 0.0991720117137509	-0.162490
C	0.2701732829019929 0.5635668497284023 0.0976730130058723	-0.116011
C	0.2355776085510155 0.5961494389371993 0.0979348106052531	-0.116086
C	0.0659710271838319 0.7606776096303225 0.1047145034105116	0.097431
C	0.0999371774181001 0.7272887455112279 0.0995684976255214	-0.164208
C	0.0644505134667459 0.8951857796235557 0.1046088294545090	0.101900
C	0.0968353817854415 0.9301787523147629 0.0991720117137509	-0.162489
C	0.2298266690980101 0.0635668127284027 0.0976730130058723	-0.116011
C	0.2644223754489831 0.0961493889371950 0.0979348106052531	-0.116086
C	0.4340289648161676 0.2606776596303196 0.1047145034105116	0.097432
C	0.4000627985818980 0.2272887125112284 0.0995684976255214	-0.164208
C	0.5644505454667417 0.3951858126235552 0.1046088294545090	0.101900
C	0.5968354057854435 0.4301787523147628 0.0991720117137509	-0.162489
C	0.7298266530980086 0.5635668497284023 0.0976730130058723	-0.116011
C	0.7644223594489815 0.5961494389371993 0.0979348106052531	-0.116086
C	0.9340289968161702 0.7606776096303225 0.1047145034105116	0.097432
C	0.9000627985818980 0.7272887455112279 0.0995684976255214	-0.164208
C	0.9355494545332583 0.1048142043764426 0.6046088134545077	0.101906
C	0.9031645942145565 0.0698212846852369 0.5991719727137512	-0.162488
C	0.7701733469019914 0.9364331502715977 0.5976730130058722	-0.116012
C	0.7355776405510185 0.9038505610628007 0.5979348256052579	-0.116086
C	0.5659710031838298 0.7393223903696775 0.6047144484105105	0.097435
C	0.5999372014181020 0.7727112544887721 0.5995684516255242	-0.164208
C	0.4355494865332541 0.6048142203764443 0.6046088134545077	0.101899
C	0.4031646262145592 0.5698212476852371 0.5991719727137512	-0.162488
C	0.2701732829019929 0.4364331832715968 0.5976730130058722	-0.116012
C	0.2355776085510155 0.4038506270628063 0.5979348256052579	-0.116086
C	0.0659710271838319 0.2393223733696797 0.6047144484105105	0.097432
C	0.0999371774181001 0.2727112874887718 0.5995684516255242	-0.164209
C	0.9355494545332583 0.8951857796235557 0.3953911865454921	0.101900
C	0.9031645942145565 0.9301787523147629 0.4008279652862435	-0.162490
C	0.7701733469019914 0.0635668127284027 0.4023270179941270	-0.116011
C	0.7355776405510185 0.0961493889371950 0.4020652053947411	-0.116086
C	0.5659710031838298 0.2606776596303196 0.3952854885894875	0.097432
C	0.5999372014181020 0.2272887125112284 0.4004315173744764	-0.164208
C	0.4355494865332541 0.3951858126235552 0.3953911865454921	0.101900
C	0.4031646262145592 0.4301787523147628 0.4008279652862435	-0.162490
C	0.2701732829019929 0.5635668497284023 0.4023270179941270	-0.116011
C	0.2355776085510155 0.5961494389371993 0.4020652053947411	-0.116086
C	0.0659710271838319 0.7606776096303225 0.3952854885894875	0.097431
C	0.0999371774181001 0.7272887455112279 0.4004315173744764	-0.164209
C	0.0644505134667459 0.1048142043764426 0.8953911555454933	0.101906
C	0.0968353817854415 0.0698212846852369 0.9008279332862481	-0.162489
C	0.2298266690980101 0.9364331502715977 0.9023269559941288	-0.116012
C	0.2644223754489831 0.9038505610628007 0.9020652053947411	-0.116086
C	0.4340289648161676 0.7393223903696775 0.8952854575894889	0.097432
C	0.4000627985818980 0.7727112544887721 0.9004315173744768	-0.164209
C	0.5644505454667417 0.6048142203764443 0.8953911555454933	0.101900
C	0.5968354057854435 0.5698212476852371 0.9008279332862481	-0.162489
C	0.7298266530980086 0.4364331832715968 0.9023269559941288	-0.116012
C	0.7644223594489815 0.4038506270628063 0.9020652053947411	-0.116085
C	0.9340289968161702 0.2393223733696797 0.8952854575894889	0.097429
C	0.9000627985818980 0.2727112874887718 0.9004315173744768	-0.164210
C	0.6524578025929901 0.8243339217360738 0.7500000160000013	-0.103988
C	0.8861452495756643 0.0515906483215441 0.7500000160000013	0.160587
C	0.8228722835246748 0.9868634028030474 0.7500000160000013	-0.099541
C	0.6178011357569820 0.7903357040297549 0.7500000160000013	0.168207
C	0.7879657704478626 0.9532449057785309 0.7500000160000013	0.128675
C	0.7176562510017761 0.8869618103009278 0.7500000160000013	0.138233
C	0.6825575951378984 0.8535148676893567 0.7500000160000013	-0.099197
C	0.8525704117008034 0.0165060431726812 0.7500000160000013	-0.104158
C	0.1524577865929887 0.3243339217360736 0.7500000160000013	-0.103989
C	0.3861451535756632 0.5515906603215456 0.7500000160000013	0.160587
C	0.3228722835246745 0.4868634028030472 0.7500000160000013	-0.099541
C	0.1178011277569815 0.2903357040297549 0.7500000160000013	0.168207
C	0.2879657384478670 0.4532449057785309 0.7500000160000013	0.128676
C	0.2176562350017746 0.3869618433009268 0.7500000160000013	0.138233
C	0.1825575621378990 0.3535148346893576 0.7500000160000013	-0.099197
C	0.3525703797008007 0.5165060381726770 0.7500000160000013	-0.104157
C	0.3475422294070126 0.1756660782639263 0.2500000000000000	-0.103989
C	0.1138548224243418 0.9484093396784544 0.2500000000000000	0.160587
C	0.1771277164753255 0.0131365931969524 0.2500000000000000	-0.099540
C	0.3821988642430177 0.2096642799702437 0.2500000000000000	0.168207
C	0.2120342455521386 0.0467550862214684 0.2500000000000000	0.128675
C	0.2823437489982242 0.1130381486990724 0.2500000000000000	0.138234
C	0.3174424378621010 0.1464851323106433 0.2500000000000000	-0.099196
C	0.1474296202991994 0.9834939288273238 0.2500000000000000	-0.104158
C	0.8475421974070099 0.6756660782639262 0.2500000000000000	-0.103988
C	0.6138547504243357 0.4484093726784542 0.2500000000000000	0.160587
C	0.6771277164753252 0.5131365971969526 0.2500000000000000	-0.099540
C	0.8821988642430180 0.7096642959702451 0.2500000000000000	0.168207
C	0.7120342295521374 0.5467551272214682 0.2500000000000000	0.128675
C	0.7823437489982239 0.6130381896990722 0.2500000000000000	0.138233
C	0.8174424048621016 0.6464851323106433 0.2500000000000000	-0.099197
C	0.6474295882991966 0.4834939288273236 0.2500000000000000	-0.104158
C	0.3475422294070126 0.8243339217360738 0.7500000160000013	-0.103989
C	0.1138548224243418 0.0515906483215441 0.7500000160000013	0.160588
C	0.1771277164753255 0.9868634028030474 0.7500000160000013	-0.099541
C	0.3821988642430177 0.7903357040297549 0.7500000160000013	0.168207
C	0.2120342455521386 0.9532449057785309 0.7500000160000013	0.128675
C	0.2823437489982242 0.8869618103009278 0.7500000160000013	0.138233
C	0.3174424378621010 0.8535148676893567 0.7500000160000013	-0.099197
C	0.1474296202991994 0.0165060431726812 0.7500000160000013	-0.104158
C	0.8475421974070099 0.3243339217360736 0.7500000160000013	-0.103988
C	0.6138547504243357 0.5515906603215456 0.7500000160000013	0.160587
C	0.6771277164753252 0.4868634028030472 0.7500000160000013	-0.099541
C	0.8821988642430180 0.2903357040297549 0.7500000160000013	0.168206
C	0.7120342295521374 0.4532449057785309 0.7500000160000013	0.128675
C	0.7823437489982239 0.3869618433009268 0.7500000160000013	0.138233
C	0.8174424048621016 0.3535148346893576 0.7500000160000013	-0.099197
C	0.6474295882991966 0.5165060381726770 0.7500000160000013	-0.104157
C	0.6524578025929901 0.1756660782639263 0.2500000000000000	-0.103988
C	0.8861452495756643 0.9484093396784544 0.2500000000000000	0.160587
C	0.8228722835246748 0.0131365931969524 0.2500000000000000	-0.099540
C	0.6178011357569820 0.2096642799702438 0.2500000000000000	0.168206
C	0.7879657704478626 0.0467550862214684 0.2500000000000000	0.128675
C	0.7176562510017761 0.1130381486990724 0.2500000000000000	0.138233
C	0.6825575951378984 0.1464851323106433 0.2500000000000000	-0.099197
C	0.8525704117008034 0.9834939288273238 0.2500000000000000	-0.104158
C	0.1524577865929887 0.6756660782639262 0.2500000000000000	-0.103988
C	0.3861451535756632 0.4484093726784542 0.2500000000000000	0.160587
C	0.3228722835246745 0.5131365971969526 0.2500000000000000	-0.099540
C	0.1178011277569815 0.7096642959702451 0.2500000000000000	0.168207
C	0.2879657384478670 0.5467551272214682 0.2500000000000000	0.128675
C	0.2176562350017746 0.6130381896990722 0.2500000000000000	0.138234
C	0.1825575621378990 0.6464851323106433 0.2500000000000000	-0.099197
C	0.3525703797008007 0.4834939288273236 0.2500000000000000	-0.104158
H	0.9493769260075355 0.1197448893160880 0.0094508228391815	0.108611
H	0.8913100348738284 0.0569515686703702 0.0210967537493358	0.123743
H	0.7839953472289712 0.9493374910725602 0.0196215681940711	0.106637
H	0.7218673308796782 0.8908846849532397 0.0193000309559314	0.115602
H	0.5515812905482184 0.7250536780129556 0.0094405821578878	0.109126
H	0.6123865088565745 0.7847765724421115 0.0208197718929706	0.126972
H	0.4493770220075365 0.6197449053160893 0.0094508228391815	0.108612
H	0.3913099708738301 0.5569515976703757 0.0210967537493358	0.123743
H	0.2839953472289713 0.4493374910725604 0.0196215681940711	0.106637
H	0.2218673468796795 0.3908847839532442 0.0193000309559314	0.115602
H	0.0515812985482190 0.2250537270129562 0.0094405821578878	0.109127
H	0.1123865248565687 0.2847765064421130 0.0208197718929706	0.126972
H	0.0506230139924594 0.8802550946839107 0.5094508518391803	0.108612
H	0.1086900131261685 0.9430484023296243 0.5210967887493354	0.123743
H	0.2160046847710311 0.0506625259274446 0.5196216001940737	0.106636
H	0.2781326691203217 0.1091152410467615 0.5193000269559309	0.115602
H	0.4484187094517816 0.2749462559870460 0.5094405821578877	0.109126
H	0.3876134911434255 0.2152234445578864 0.5208198028929698	0.126971
H	0.5506230739924644 0.3802550946839108 0.5094508518391803	0.108612
H	0.6086899651261716 0.4430484353296301 0.5210967887493354	0.123743
H	0.7160046527710288 0.5506625089274398 0.5196216001940737	0.106636
H	0.7781326691203218 0.6091153150467603 0.5193000269559309	0.115602
H	0.9484187094517816 0.7749463219870444 0.5094405821578877	0.109126
H	0.8876134911434255 0.7152234275578885 0.5208198028929698	0.126971
H	0.0506230139924594 0.1197448893160880 0.4905491791608186	0.108611
H	0.1086900131261685 0.0569515686703702 0.4789032112506577	0.123743
H	0.2160046847710311 0.9493374910725602 0.4803784318059290	0.106637
H	0.2781326691203217 0.8908846849532397 0.4806999730440690	0.115602
H	0.4484187094517816 0.7250536780129556 0.4905594498421150	0.109127
H	0.3876134911434255 0.7847765724421115 0.4791802281070293	0.126972
H	0.5506230739924644 0.6197449053160893 0.4905491791608186	0.108612
H	0.6086899651261716 0.5569515976703757 0.4789032112506577	0.123743
H	0.7160046527710288 0.4493374910725604 0.4803784318059290	0.106637
H	0.7781326691203218 0.3908847839532442 0.4806999730440690	0.115602
H	0.9484187094517816 0.2250537270129562 0.4905594498421150	0.109127
H	0.8876134911434255 0.2847765064421130 0.4791802281070293	0.126972
H	0.9493769260075356 0.8802550946839107 0.9905491791608187	0.108612
H	0.8913100348738284 0.9430484023296243 0.9789031802506585	0.123743
H	0.7839953472289712 0.0506625259274446 0.9803784318059290	0.106636
H	0.7218673308796782 0.1091152410467615 0.9806999420440630	0.115602
H	0.5515812905482184 0.2749462559870460 0.9905594178421123	0.109126
H	0.6123865088565745 0.2152234445578864 0.9791802281070292	0.126971
H	0.4493770220075365 0.3802550946839108 0.9905491791608187	0.108612
H	0.3913099708738301 0.4430484353296301 0.9789031802506585	0.123743
H	0.2839953472289713 0.5506625089274398 0.9803784318059290	0.106637
H	0.2218673468796795 0.6091153150467603 0.9806999420440630	0.115602
H	0.0515812985482190 0.7749463219870444 0.9905594178421123	0.109126
H	0.1123865248565687 0.7152234275578885 0.9791802281070292	0.126972
H	0.0506230139924594 0.8802550946839107 0.9905491791608187	0.108612
H	0.1086900131261685 0.9430484023296243 0.9789031802506585	0.123743
H	0.2160046847710311 0.0506625259274446 0.9803784318059290	0.106637
H	0.2781326691203217 0.1091152410467615 0.9806999420440630	0.115604
H	0.4484187094517816 0.2749462559870460 0.9905594178421123	0.109126
H	0.3876134911434255 0.2152234445578864 0.9791802281070292	0.126972
H	0.5506230739924645 0.3802550946839108 0.9905491791608187	0.108612
H	0.6086899651261716 0.4430484353296301 0.9789031802506585	0.123743
H	0.7160046527710288 0.5506625089274398 0.9803784318059290	0.106637
H	0.7781326691203218 0.6091153150467603 0.9806999420440630	0.115604
H	0.9484187094517816 0.7749463219870444 0.9905594178421123	0.109126
H	0.8876134911434255 0.7152234275578885 0.9791802281070292	0.126972
H	0.9493769260075356 0.1197448893160880 0.4905491791608186	0.108611
H	0.8913100348738284 0.0569515686703702 0.4789032112506577	0.123743
H	0.7839953472289712 0.9493374910725602 0.4803784318059290	0.106637
H	0.7218673308796782 0.8908846849532397 0.4806999730440690	0.115604
H	0.5515812905482184 0.7250536780129556 0.4905594498421150	0.109127
H	0.6123865088565745 0.7847765724421115 0.4791802281070293	0.126972
H	0.4493770220075365 0.6197449053160893 0.4905491791608186	0.108612
H	0.3913099708738301 0.5569515976703757 0.4789032112506577	0.123743
H	0.2839953472289713 0.4493374910725604 0.4803784318059290	0.106637
H	0.2218673468796795 0.3908847839532442 0.4806999730440690	0.115604
H	0.0515812985482190 0.2250537270129562 0.4905594498421150	0.109127
H	0.1123865248565687 0.2847765064421130 0.4791802281070293	0.126972
H	0.9493769260075356 0.8802550946839107 0.5094508518391803	0.108612
H	0.8913100348738284 0.9430484023296243 0.5210967887493354	0.123743
H	0.7839953472289712 0.0506625259274446 0.5196216001940737	0.106636
H	0.7218673308796782 0.1091152410467615 0.5193000269559309	0.115604
H	0.5515812905482184 0.2749462559870460 0.5094405821578877	0.109126
H	0.6123865088565745 0.2152234445578864 0.5208198028929698	0.126971
H	0.4493770220075365 0.3802550946839108 0.5094508518391803	0.108612
H	0.3913099708738301 0.4430484353296301 0.5210967887493354	0.123743
H	0.2839953472289713 0.5506625089274398 0.5196216001940737	0.106636
H	0.2218673468796795 0.6091153150467603 0.5193000269559309	0.115604
H	0.0515812985482190 0.7749463219870444 0.5094405821578877	0.109126
H	0.1123865248565687 0.7152234275578885 0.5208198028929698	0.126972
H	0.0506230139924594 0.1197448893160880 0.0094508228391815	0.108611
H	0.1086900131261685 0.0569515686703702 0.0210967537493358	0.123743
H	0.2160046847710311 0.9493374910725602 0.0196215681940711	0.106637
H	0.2781326691203217 0.8908846849532397 0.0193000309559314	0.115604
H	0.4484187094517816 0.7250536780129556 0.0094405821578878	0.109126
H	0.3876134911434255 0.7847765724421115 0.0208197718929706	0.126972
H	0.5506230739924644 0.6197449053160893 0.0094508228391815	0.108612
H	0.6086899651261716 0.5569515976703757 0.0210967537493358	0.123743
H	0.7160046527710288 0.4493374910725604 0.0196215681940711	0.106637
H	0.7781326691203218 0.3908847839532442 0.0193000309559314	0.115604
H	0.9484187094517816 0.2250537270129562 0.0094405821578878	0.109127
H	0.8876134911434255 0.2847765064421130 0.0208197718929706	0.126972
Cu	0.5000000000000000 0.6728464896311147 0.7500000160000013	0.704261
Cu	-0.0000000000000000 0.1728465066311129 0.7500000160000013	0.704278
Cu	0.5000000000000000 0.3271535103688848 0.2500000000000000	0.704261
Cu	-0.0000000000000000 0.8271535103688853 0.2500000000000000	0.704261
Si	0.5000000000000000 0.6726790532151019 0.2500000000000000	1.721493
Si	-0.0000000000000000 0.1726790532151019 0.2500000000000000	1.721456
Si	0.5000000000000000 0.3273209787849008 0.7500000160000013	1.721492
Si	-0.0000000000000000 0.8273209467848981 0.7500000160000013	1.721493
F	0.5000000000000000 0.7323385931226658 0.2500000000000000	-0.547734
F	0.5000000000000000 0.6130065143501574 0.2500000000000000	-0.544535
F	-0.0000000000000000 0.2323385441226653 0.2500000000000000	-0.547729
F	-0.0000000000000000 0.1130064983501558 0.2500000000000000	-0.544516
F	0.5000000000000000 0.2676614558773346 0.7500000160000013	-0.547734
F	0.5000000000000000 0.3869934526498438 0.7500000160000013	-0.544536
F	-0.0000000000000000 0.7676614068773342 0.7500000160000013	-0.547734
F	-0.0000000000000000 0.8869934856498426 0.7500000160000013	-0.544536
F	0.5578436844882287 0.6726113750618764 0.2500000000000000	-0.547904
F	0.0578437044882303 0.1726114080618754 0.2500000000000000	-0.547899
F	0.4421562835117688 0.3273885589381255 0.7500000160000013	-0.547903
F	0.9421563155117713 0.8273886249381236 0.7500000160000013	-0.547903
F	0.4421562835117688 0.6726113750618764 0.2500000000000000	-0.547904
F	0.9421563155117713 0.1726114080618754 0.2500000000000000	-0.547899
F	0.5578436844882287 0.3273885589381255 0.7500000160000013	-0.547903
F	0.0578437044882303 0.8273886249381236 0.7500000160000013	-0.547903
F	0.5000000000000000 0.6727946331456168 0.4670276292847883	-0.526580
F	-0.0000000000000000 0.1727946501456148 0.4670276292847883	-0.526581
F	0.5000000000000000 0.3272053998543822 0.9670276292847885	-0.526580
F	-0.0000000000000000 0.8272053668543832 0.9670276292847885	-0.526580
F	0.5000000000000000 0.6727946331456168 0.0329723667152114	-0.526580
F	-0.0000000000000000 0.1727946501456148 0.0329723667152114	-0.526581
F	0.5000000000000000 0.3272053998543822 0.5329723387152160	-0.526580
F	-0.0000000000000000 0.8272053668543832 0.5329723387152160	-0.526580
N	0.5492151987313854 0.7228944311018208 0.7500000160000013	-0.222550
N	0.9514621270373327 0.1220368204098394 0.7500000160000013	-0.221028
N	0.0492151627313822 0.2228944151018199 0.7500000160000013	-0.222524
N	0.4514621270373330 0.6220368044098381 0.7500000160000013	-0.220992
N	0.4507848652686132 0.2771055688981789 0.2500000000000000	-0.222545
N	0.0485378809626679 0.8779631955901619 0.2500000000000000	-0.220992
N	0.9507848012686146 0.7771055688981792 0.2500000000000000	-0.222544
N	0.5485378729626673 0.3779631955901619 0.2500000000000000	-0.220992
N	0.4507848652686132 0.7228944311018208 0.7500000160000013	-0.222549
N	0.0485378809626679 0.1220368204098394 0.7500000160000013	-0.221028
N	0.9507848012686146 0.2228944151018199 0.7500000160000013	-0.222524
N	0.5485378729626673 0.6220368044098381 0.7500000160000013	-0.220992
N	0.5492151987313854 0.2771055688981789 0.2500000000000000	-0.222544
N	0.9514621270373327 0.8779631955901619 0.2500000000000000	-0.220992
N	0.0492151627313822 0.7771055688981792 0.2500000000000000	-0.222544
N	0.4514621270373330 0.3779631955901619 0.2500000000000000	-0.220992
	  	
