#======================================================================

# CRYSTAL DATA

#----------------------------------------------------------------------

data_VESTA_phase_1


_pd_phase_name                         SIFSIX_5_Co_i
_cell_length_a                         19.60776
_cell_length_b                         19.60776
_cell_length_c                         15.40455
_cell_angle_alpha                      90
_cell_angle_beta                       90
_cell_angle_gamma                      90
_symmetry_space_group_name_H-M         P 1
_symmetry_Int_Tables_number            1

loop_
_symmetry_equiv_pos_as_xyz
   x, y, z

loop_
   _atom_site_label
   _atom_site_fract_x
   _atom_site_fract_y
   _atom_site_fract_z
   _atom_site_charge
F	0.3178493630712453 0.1947716434273681 0.3518104376710862	-0.552342
F	0.1821506249287537 0.3052283565726319 0.3518104376710862	-0.552346
F	0.3052283565726319 0.3178493630712453 0.3518104376710862	-0.552344
F	0.1947716434273681 0.1821506249287537 0.3518104376710862	-0.552343
F	0.6821506609287498 0.6947716674273696 0.1481895623289139	-0.552343
F	0.8178493390712502 0.8052283325726304 0.1481895623289139	-0.552343
F	0.6947716674273696 0.8178493390712502 0.1481895623289139	-0.552344
F	0.8052283325726304 0.6821506609287498 0.1481895623289139	-0.552342
F	0.6821506609287498 0.8052283325726304 0.6481895943289168	-0.552345
F	0.8178493390712502 0.6947716674273696 0.6481895943289168	-0.552341
F	0.6947716674273696 0.6821506609287498 0.6481895943289168	-0.552343
F	0.8052283325726304 0.8178493390712502 0.6481895943289168	-0.552344
F	0.3178493630712453 0.3052283565726319 0.8518104056710832	-0.552345
F	0.1821506249287537 0.1947716434273681 0.8518104056710832	-0.552343
F	0.3052283565726319 0.1821506249287537 0.8518104056710832	-0.552343
F	0.1947716434273681 0.3178493630712453 0.8518104056710832	-0.552345
F	0.2500000000000000 0.2500000000000000 0.4631566495056795	-0.500506
F	0.2500000000000000 0.2500000000000000 0.2402746529008857	-0.500215
F	0.7500000000000000 0.7500000000000000 0.0368433774943193	-0.500506
F	0.7500000000000000 0.7500000000000000 0.2597253310991130	-0.500218
F	0.7500000000000000 0.7500000000000000 0.5368433814943196	-0.500504
F	0.7500000000000000 0.7500000000000000 0.7597253310991131	-0.500219
F	0.2500000000000000 0.2500000000000000 0.9631566185056804	-0.500504
F	0.2500000000000000 0.2500000000000000 0.7402746689008869	-0.500217
N	0.3503434069900561 0.2477930807511039 0.6014903092901307	-0.189769
N	0.1496565930099438 0.2522069192488961 0.6014903092901307	-0.189769
N	0.2522069192488961 0.3503434069900561 0.6014903092901307	-0.189769
N	0.2477930807511039 0.1496565930099438 0.6014903092901307	-0.189768
N	0.6496566170099460 0.7477930567511016 0.8985096907098693	-0.189768
N	0.8503433829900540 0.7522069432488984 0.8985096907098693	-0.189789
N	0.7477930567511016 0.8503433829900540 0.8985096907098693	-0.189789
N	0.7522069432488984 0.6496566170099460 0.8985096907098693	-0.189768
N	0.6496566170099460 0.7522069432488984 0.3985097217098683	-0.189767
N	0.8503433829900540 0.7477930567511016 0.3985097217098683	-0.189787
N	0.7477930567511016 0.6496566170099460 0.3985097217098683	-0.189766
N	0.7522069432488984 0.8503433829900540 0.3985097217098683	-0.189788
N	0.3503434069900561 0.2522069192488961 0.1014903092901308	-0.189767
N	0.1496565930099438 0.2477930807511039 0.1014903092901308	-0.189767
N	0.2522069192488961 0.1496565930099438 0.1014903092901308	-0.189766
N	0.2477930807511039 0.3503434069900561 0.1014903092901308	-0.189768
C	0.3841947978376679 0.2179037425492380 0.6677279050457569	0.093003
C	0.4548895218878515 0.2162009370170376 0.6709647936029172	-0.174280
C	0.4934563297856526 0.2471308853074059 0.6050851713269224	0.100839
C	0.4572432810988306 0.2778949642094716 0.5368801958420152	-0.176618
C	0.3864504021000305 0.2768899949004960 0.5365830036466998	0.094059
C	0.5685227506668543 0.2478006065136153 0.6082028489898491	0.054726
C	0.6051203860839723 0.1907382896211514 0.6379486262202482	-0.131836
C	0.6759570013427635 0.1915109271731952 0.6406245291925996	-0.123662
C	0.7125234236798588 0.2498069680843100 0.6153439725196614	0.068574
C	0.6759889264633189 0.3071952332547412 0.5867944056795390	-0.119751
C	0.6052006529623547 0.3059061237027145 0.5823661712272614	-0.126164
C	0.1158051781623372 0.2820962814507640 0.6677279050457569	0.093003
C	0.0451104181121507 0.2837990869829644 0.6709647936029172	-0.174283
C	0.0065436492143492 0.2528691146925940 0.6050851713269224	0.100837
C	0.0427567459011681 0.2221050357905284 0.5368801958420152	-0.176614
C	0.1135495618999666 0.2231100290995061 0.5365830036466998	0.094056
C	0.9314772013331488 0.2521993694863827 0.6082028489898491	0.054726
C	0.8948796619160245 0.3092617453788479 0.6379486262202482	-0.131833
C	0.8240429986572365 0.3084890848267988 0.6406245291925996	-0.123661
C	0.7874765763201412 0.2501930079156881 0.6153439725196614	0.068571
C	0.8240111205366815 0.1928047667452587 0.5867944056795390	-0.119747
C	0.8947994430376461 0.1940939112972851 0.5823661712272614	-0.126164
C	0.2820962814507640 0.3841947978376679 0.6677279050457569	0.093004
C	0.2837990869829644 0.4548895218878515 0.6709647936029172	-0.174283
C	0.2528691146925940 0.4934563297856526 0.6050851713269224	0.100838
C	0.2221050357905284 0.4572432810988307 0.5368801958420152	-0.176616
C	0.2231100290995061 0.3864504021000305 0.5365830036466998	0.094059
C	0.2521993694863827 0.5685227506668543 0.6082028489898491	0.054725
C	0.3092617453788479 0.6051203860839723 0.6379486262202482	-0.131836
C	0.3084890848267988 0.6759570013427635 0.6406245291925996	-0.123663
C	0.2501930079156881 0.7125234236798588 0.6153439725196614	0.068572
C	0.1928047667452587 0.6759889264633189 0.5867944056795390	-0.119750
C	0.1940939112972851 0.6052006529623547 0.5823661712272614	-0.126166
C	0.2179037425492380 0.1158051781623372 0.6677279050457569	0.093002
C	0.2162009370170376 0.0451104181121507 0.6709647936029172	-0.174280
C	0.2471308853074059 0.0065436492143492 0.6050851713269224	0.100838
C	0.2778949642094716 0.0427567459011681 0.5368801958420152	-0.176616
C	0.2768899949004960 0.1135495618999666 0.5365830036466998	0.094056
C	0.2478006065136153 0.9314772013331488 0.6082028489898491	0.054726
C	0.1907382896211514 0.8948796619160245 0.6379486262202482	-0.131833
C	0.1915109271731952 0.8240429986572365 0.6406245291925996	-0.123660
C	0.2498069680843100 0.7874765763201412 0.6153439725196614	0.068573
C	0.3071952332547412 0.8240111205366815 0.5867944056795390	-0.119748
C	0.3059061237027145 0.8947994430376461 0.5823661712272614	-0.126163
C	0.6158051781623370 0.7179037905492347 0.8322720949542431	0.093002
C	0.5451104301121520 0.7162009610170325 0.8290352063970828	-0.174279
C	0.5065436702143473 0.7471309333074031 0.8949148286730776	0.100837
C	0.5427568149011706 0.7778949162094677 0.9631198041579848	-0.176617
C	0.6135496218999645 0.7768900189004909 0.9634169963533002	0.094057
C	0.4314772493331459 0.7478006785136142 0.8917971510101509	0.054726
C	0.3948796139160279 0.6907382546211523 0.8620513737797518	-0.131833
C	0.3240429266572304 0.6915108911731991 0.8593754708074004	-0.123661
C	0.2874766243201451 0.7498069920843120 0.8846560274803386	0.068573
C	0.3240110255366772 0.8071952332547409 0.9132055943204610	-0.119749
C	0.3947993710376402 0.8059060527027120 0.9176338287727386	-0.126162
C	0.8841948218376630 0.7820962094507653 0.8322720949542431	0.093053
C	0.9548895698878480 0.7837990389829675 0.8290352063970828	-0.174303
C	0.9934563777856495 0.7528690666925969 0.8949148286730776	0.100841
C	0.9572432330988334 0.7221050837905323 0.9631198041579848	-0.176615
C	0.8864503781000355 0.7231099810995091 0.9634169963533002	0.094061
C	0.0685227866668501 0.7521993214863858 0.8917971510101509	0.054725
C	0.1051203740839711 0.8092617453788477 0.8620513737797518	-0.131835
C	0.1759570493427675 0.8084890608268041 0.8593754708074004	-0.123662
C	0.2125233756798548 0.7501930079156880 0.8846560274803386	0.068572
C	0.1759889504633209 0.6928047667452591 0.9132055943204610	-0.119749
C	0.1052006289623599 0.6940939002972877 0.9176338287727386	-0.126166
C	0.7179037905492347 0.8841948218376630 0.8322720949542431	0.093055
C	0.7162009610170325 0.9548895698878480 0.8290352063970828	-0.174300
C	0.7471309333074031 0.9934563777856495 0.8949148286730776	0.100840
C	0.7778949162094677 0.9572432330988334 0.9631198041579848	-0.176618
C	0.7768900189004909 0.8864503781000355 0.9634169963533002	0.094061
C	0.7478006785136142 0.0685227866668501 0.8917971510101509	0.054725
C	0.6907382546211523 0.1051203740839711 0.8620513737797518	-0.131836
C	0.6915108911731991 0.1759570493427675 0.8593754708074004	-0.123661
C	0.7498069920843120 0.2125233756798548 0.8846560274803386	0.068573
C	0.8071952332547409 0.1759889504633209 0.9132055943204610	-0.119749
C	0.8059060527027120 0.1052006289623599 0.9176338287727386	-0.126165
C	0.7820962094507653 0.6158051781623370 0.8322720949542431	0.093001
C	0.7837990389829675 0.5451104301121520 0.8290352063970828	-0.174282
C	0.7528690666925969 0.5065436702143473 0.8949148286730776	0.100838
C	0.7221050837905323 0.5427568149011706 0.9631198041579848	-0.176614
C	0.7231099810995091 0.6135496218999645 0.9634169963533002	0.094057
C	0.7521993214863858 0.4314772493331459 0.8917971510101509	0.054726
C	0.8092617453788477 0.3948796139160279 0.8620513737797518	-0.131833
C	0.8084890608268041 0.3240429266572304 0.8593754708074004	-0.123662
C	0.7501930079156880 0.2874766243201451 0.8846560274803386	0.068572
C	0.6928047667452591 0.3240110255366772 0.9132055943204610	-0.119749
C	0.6940939002972877 0.3947993710376402 0.9176338287727386	-0.126163
C	0.6158051781623370 0.7820962094507653 0.3322721259542425	0.093003
C	0.5451104301121520 0.7837990389829675 0.3290352063970831	-0.174282
C	0.5065436702143473 0.7528690666925969 0.3949148286730777	0.100837
C	0.5427568149011706 0.7221050837905323 0.4631198351579912	-0.176613
C	0.6135496218999645 0.7231099810995091 0.4634169963533001	0.094056
C	0.4314772493331459 0.7521993214863858 0.3917971510101509	0.054723
C	0.3948796139160279 0.8092617453788477 0.3620513427797529	-0.131826
C	0.3240429266572304 0.8084890608268041 0.3593755018073997	-0.123634
C	0.2874766243201451 0.7501930079156880 0.3846559334803380	0.068577
C	0.3240110255366772 0.6928047667452591 0.4132056253204599	-0.119750
C	0.3947993710376402 0.6940939002972877 0.4176338287727389	-0.126161
C	0.8841948218376630 0.7179037905492347 0.3322721259542425	0.093053
C	0.9548895698878480 0.7162009610170325 0.3290352063970831	-0.174299
C	0.9934563777856495 0.7471309333074031 0.3949148286730777	0.100842
C	0.9572432330988334 0.7778949162094677 0.4631198351579912	-0.176618
C	0.8864503781000355 0.7768900189004909 0.4634169963533001	0.094062
C	0.0685227866668501 0.7478006785136142 0.3917971510101509	0.054723
C	0.1051203740839711 0.6907382546211523 0.3620513427797529	-0.131829
C	0.1759570493427675 0.6915108911731991 0.3593755018073997	-0.123634
C	0.2125233756798548 0.7498069920843120 0.3846559334803380	0.068576
C	0.1759889504633209 0.8071952332547409 0.4132056253204599	-0.119752
C	0.1052006289623599 0.8059060527027120 0.4176338287727389	-0.126162
C	0.7179037905492347 0.6158051781623370 0.3322721259542425	0.093003
C	0.7162009610170325 0.5451104301121520 0.3290352063970831	-0.174279
C	0.7471309333074031 0.5065436702143473 0.3949148286730777	0.100838
C	0.7778949162094677 0.5427568149011706 0.4631198351579912	-0.176615
C	0.7768900189004909 0.6135496218999645 0.4634169963533001	0.094056
C	0.7478006785136142 0.4314772493331459 0.3917971510101509	0.054724
C	0.6907382546211523 0.3948796139160279 0.3620513427797529	-0.131826
C	0.6915108911731991 0.3240429266572304 0.3593755018073997	-0.123633
C	0.7498069920843120 0.2874766243201451 0.3846559334803380	0.068579
C	0.8071952332547409 0.3240110255366772 0.4132056253204599	-0.119750
C	0.8059060527027120 0.3947993710376402 0.4176338287727389	-0.126161
C	0.7820962094507653 0.8841948218376630 0.3322721259542425	0.093054
C	0.7837990389829675 0.9548895698878480 0.3290352063970831	-0.174301
C	0.7528690666925969 0.9934563777856495 0.3949148286730777	0.100841
C	0.7221050837905323 0.9572432330988334 0.4631198351579912	-0.176616
C	0.7231099810995091 0.8864503781000355 0.4634169963533001	0.094063
C	0.7521993214863858 0.0685227866668501 0.3917971510101509	0.054723
C	0.8092617453788477 0.1051203740839711 0.3620513427797529	-0.131829
C	0.8084890608268041 0.1759570493427675 0.3593755018073997	-0.123635
C	0.7501930079156880 0.2125233756798548 0.3846559334803380	0.068574
C	0.6928047667452591 0.1759889504633209 0.4132056253204599	-0.119751
C	0.6940939002972877 0.1052006289623599 0.4176338287727389	-0.126163
C	0.3841947978376679 0.2820962814507640 0.1677278900457587	0.093005
C	0.4548895218878515 0.2837990869829644 0.1709647626029180	-0.174283
C	0.4934563297856526 0.2528691146925940 0.1050851713269224	0.100839
C	0.4572432810988307 0.2221050357905284 0.0368801608420156	-0.176614
C	0.3864504021000305 0.2231100290995061 0.0365829956466991	0.094058
C	0.5685227506668543 0.2521993694863827 0.1082028409898483	0.054723
C	0.6051203860839723 0.3092617453788479 0.1379486262202481	-0.131828
C	0.6759570013427635 0.3084890848267988 0.1406244821925989	-0.123635
C	0.7125234236798588 0.2501930079156881 0.1153440435196638	0.068578
C	0.6759889264633189 0.1928047667452587 0.0867943896795376	-0.119752
C	0.6052006529623547 0.1940939112972851 0.0823661862272589	-0.126163
C	0.1158051781623372 0.2179037425492380 0.1677278900457587	0.093002
C	0.0451104181121507 0.2162009370170376 0.1709647626029180	-0.174278
C	0.0065436492143492 0.2471308853074059 0.1050851713269224	0.100837
C	0.0427567459011681 0.2778949642094716 0.0368801608420156	-0.176617
C	0.1135495618999666 0.2768899949004960 0.0365829956466991	0.094057
C	0.9314772013331488 0.2478006065136153 0.1082028409898483	0.054724
C	0.8948796619160245 0.1907382896211514 0.1379486262202481	-0.131827
C	0.8240429986572365 0.1915109271731952 0.1406244821925989	-0.123633
C	0.7874765763201412 0.2498069680843100 0.1153440435196638	0.068575
C	0.8240111205366815 0.3071952332547412 0.0867943896795376	-0.119750
C	0.8947994430376461 0.3059061237027145 0.0823661862272589	-0.126160
C	0.2820962814507640 0.1158051781623372 0.1677278900457587	0.093002
C	0.2837990869829644 0.0451104181121507 0.1709647626029180	-0.174281
C	0.2528691146925940 0.0065436492143492 0.1050851713269224	0.100838
C	0.2221050357905284 0.0427567459011681 0.0368801608420156	-0.176613
C	0.2231100290995061 0.1135495618999666 0.0365829956466991	0.094057
C	0.2521993694863827 0.9314772013331488 0.1082028409898483	0.054724
C	0.3092617453788479 0.8948796619160245 0.1379486262202481	-0.131827
C	0.3084890848267988 0.8240429986572365 0.1406244821925989	-0.123634
C	0.2501930079156881 0.7874765763201412 0.1153440435196638	0.068578
C	0.1928047667452587 0.8240111205366815 0.0867943896795376	-0.119751
C	0.1940939112972851 0.8947994430376461 0.0823661862272589	-0.126161
C	0.2179037425492380 0.3841947978376679 0.1677278900457587	0.093006
C	0.2162009370170376 0.4548895218878515 0.1709647626029180	-0.174280
C	0.2471308853074059 0.4934563297856526 0.1050851713269224	0.100838
C	0.2778949642094716 0.4572432810988307 0.0368801608420156	-0.176617
C	0.2768899949004960 0.3864504021000305 0.0365829956466991	0.094059
C	0.2478006065136153 0.5685227506668543 0.1082028409898483	0.054723
C	0.1907382896211514 0.6051203860839723 0.1379486262202481	-0.131830
C	0.1915109271731952 0.6759570013427635 0.1406244821925989	-0.123633
C	0.2498069680843100 0.7125234236798588 0.1153440435196638	0.068575
C	0.3071952332547412 0.6759889264633189 0.0867943896795376	-0.119751
C	0.3059061237027145 0.6052006529623547 0.0823661862272589	-0.126163
H	0.3533804435863129 0.1966204960421777 0.7200755567197130	0.110555
H	0.4796786965008376 0.1925374316126830 0.7266928647148901	0.115216
H	0.4840188422914337 0.3015223109581186 0.4826139535291413	0.115364
H	0.3572986849066079 0.2986482683633013 0.4829744170252459	0.110949
H	0.5773889342553634 0.1450171040207582 0.6575250809504901	0.099830
H	0.7035781318422945 0.1468474636212257 0.6638305194194213	0.101131
H	0.7035627455362115 0.3523746272835231 0.5651570842668301	0.101891
H	0.5776133884900262 0.3507821591123181 0.5596690050071219	0.103032
H	0.1466195204136843 0.3033795279578244 0.7200755567197130	0.110553
H	0.0203213094991558 0.3074625923873190 0.7266928647148901	0.115218
H	0.0159811467085691 0.1984777010418825 0.4826139535291413	0.115362
H	0.1427013390933941 0.2013517196366975 0.4829744170252459	0.110950
H	0.9226111127446369 0.3549828959792416 0.6575250809504901	0.099830
H	0.7964218681577055 0.3531525243787735 0.6638305194194213	0.101130
H	0.7964372544637885 0.1476253847164778 0.5651570842668301	0.101895
H	0.9223866115099738 0.1492178288876879 0.5596690050071219	0.103035
H	0.3033795279578244 0.3533804435863129 0.7200755567197130	0.110555
H	0.3074625923873190 0.4796786965008376 0.7266928647148901	0.115219
H	0.1984777010418825 0.4840188422914337 0.4826139535291413	0.115363
H	0.2013517196366975 0.3572986849066079 0.4829744170252459	0.110949
H	0.3549828959792416 0.5773889342553634 0.6575250809504901	0.099830
H	0.3531525243787735 0.7035781318422945 0.6638305194194213	0.101130
H	0.1476253847164778 0.7035627455362115 0.5651570842668301	0.101893
H	0.1492178288876879 0.5776133884900262 0.5596690050071219	0.103036
H	0.1966204960421777 0.1466195204136843 0.7200755567197130	0.110553
H	0.1925374316126830 0.0203213094991558 0.7266928647148901	0.115216
H	0.3015223109581186 0.0159811467085691 0.4826139535291413	0.115363
H	0.2986482683633013 0.1427013390933941 0.4829744170252459	0.110950
H	0.1450171040207582 0.9226111127446369 0.6575250809504901	0.099832
H	0.1468474636212257 0.7964218681577055 0.6638305194194213	0.101131
H	0.3523746272835231 0.7964372544637885 0.5651570842668301	0.101892
H	0.3507821591123181 0.9223866115099738 0.5596690050071219	0.103033
H	0.6466195084136834 0.6966204960421777 0.7799244432802870	0.110554
H	0.5203212554991583 0.6925374076126809 0.7733071352851099	0.115216
H	0.5159811577085662 0.8015223109581188 0.0173860314708540	0.115362
H	0.6427013150933920 0.7986482443632994 0.0170256109747564	0.110949
H	0.4226110657446366 0.6450171040207584 0.8424749190495099	0.099832
H	0.2964218921577075 0.6468474756212269 0.8361694805805787	0.101131
H	0.2964372544637883 0.8523746272835233 0.9348429157331699	0.101893
H	0.4223866595099713 0.8507821831123130 0.9403309949928781	0.103035
H	0.8533805395863134 0.8033795519578263 0.7799244432802870	0.110535
H	0.9796786485008409 0.8074625923873191 0.7733071352851099	0.115220
H	0.9840187942914369 0.6984776890418812 0.0173860314708540	0.115364
H	0.8572985889066072 0.7013517556367006 0.0170256109747564	0.110951
H	0.0773889342553634 0.8549828959792416 0.8424749190495099	0.099829
H	0.2035781078422927 0.8531525243787731 0.8361694805805787	0.101129
H	0.2035627455362117 0.6476254207164736 0.9348429157331699	0.101893
H	0.0776133824900252 0.6492178168876870 0.9403309949928781	0.103033
H	0.6966204960421777 0.8533805395863134 0.7799244432802870	0.110535
H	0.6925374076126809 0.9796786485008409 0.7733071352851099	0.115220
H	0.8015223109581188 0.9840187942914369 0.0173860314708540	0.115365
H	0.7986482443632994 0.8572985889066072 0.0170256109747564	0.110951
H	0.6450171040207584 0.0773889342553634 0.8424749190495099	0.099833
H	0.6468474756212269 0.2035781078422927 0.8361694805805787	0.101130
H	0.8523746272835233 0.2035627455362117 0.9348429157331699	0.101892
H	0.8507821831123130 0.0776133824900252 0.9403309949928781	0.103034
H	0.8033795519578263 0.6466195084136834 0.7799244432802870	0.110554
H	0.8074625923873191 0.5203212554991583 0.7733071352851099	0.115217
H	0.6984776890418812 0.5159811577085662 0.0173860314708540	0.115361
H	0.7013517556367006 0.6427013150933920 0.0170256109747564	0.110949
H	0.8549828959792416 0.4226110657446366 0.8424749190495099	0.099830
H	0.8531525243787731 0.2964218921577075 0.8361694805805787	0.101130
H	0.6476254207164736 0.2964372544637883 0.9348429157331699	0.101894
H	0.6492178168876870 0.4223866595099713 0.9403309949928781	0.103036
H	0.6466195084136834 0.8033795519578263 0.2799244752802826	0.110553
H	0.5203212554991583 0.8074625923873191 0.2733071662851090	0.115216
H	0.5159811577085662 0.6984776890418812 0.5173860154708601	0.115359
H	0.6427013150933920 0.7013517556367006 0.5170255829747540	0.110950
H	0.4226110657446366 0.8549828959792416 0.3424748880495105	0.099827
H	0.2964218921577075 0.8531525243787731 0.3361694485805762	0.101096
H	0.2964372544637883 0.6476254207164736 0.4348429467331689	0.101897
H	0.4223866595099713 0.6492178168876870 0.4403310569928763	0.103034
H	0.8533805395863134 0.6966204960421777 0.2799244752802826	0.110535
H	0.9796786485008409 0.6925374076126809 0.2733071662851090	0.115216
H	0.9840187942914369 0.8015223109581188 0.5173860154708601	0.115361
H	0.8572985889066072 0.7986482443632994 0.5170255829747540	0.110949
H	0.0773889342553634 0.6450171040207584 0.3424748880495105	0.099827
H	0.2035781078422927 0.6468474756212269 0.3361694485805762	0.101096
H	0.2035627455362117 0.8523746272835233 0.4348429467331689	0.101891
H	0.0776133824900252 0.8507821831123130 0.4403310569928763	0.103032
H	0.6966204960421777 0.6466195084136834 0.2799244752802826	0.110553
H	0.6925374076126809 0.5203212554991583 0.2733071662851090	0.115213
H	0.8015223109581188 0.5159811577085662 0.5173860154708601	0.115360
H	0.7986482443632994 0.6427013150933920 0.5170255829747540	0.110950
H	0.6450171040207584 0.4226110657446366 0.3424748880495105	0.099829
H	0.6468474756212269 0.2964218921577075 0.3361694485805762	0.101098
H	0.8523746272835233 0.2964372544637883 0.4348429467331689	0.101894
H	0.8507821831123130 0.4223866595099713 0.4403310569928763	0.103033
H	0.8033795519578263 0.8533805395863134 0.2799244752802826	0.110535
H	0.8074625923873191 0.9796786485008409 0.2733071662851090	0.115219
H	0.6984776890418812 0.9840187942914369 0.5173860154708601	0.115360
H	0.7013517556367006 0.8572985889066072 0.5170255829747540	0.110949
H	0.8549828959792416 0.0773889342553634 0.3424748880495105	0.099826
H	0.8531525243787731 0.2035781078422927 0.3361694485805762	0.101095
H	0.6476254207164736 0.2035627455362117 0.4348429467331689	0.101894
H	0.6492178168876870 0.0776133824900252 0.4403310569928763	0.103035
H	0.3533804435863129 0.3033795279578244 0.2200755567197131	0.110554
H	0.4796786965008376 0.3074625923873190 0.2266928797148947	0.115215
H	0.4840188422914337 0.1984777010418825 0.9826140155291461	0.115361
H	0.3572986849066079 0.2013517196366975 0.9829743860252470	0.110951
H	0.5773889342553634 0.3549828959792416 0.1575250959504880	0.099826
H	0.7035781318422945 0.3531525243787735 0.1638305664194216	0.101095
H	0.7035627455362115 0.1476253847164778 0.0651570452668305	0.101895
H	0.5776133884900262 0.1492178288876879 0.0596689660071220	0.103033
H	0.1466195204136843 0.1966204960421777 0.2200755567197131	0.110553
H	0.0203213094991558 0.1925374316126830 0.2266928797148947	0.115214
H	0.0159811467085691 0.3015223109581186 0.9826140155291461	0.115359
H	0.1427013390933941 0.2986482683633013 0.9829743860252470	0.110948
H	0.9226111127446369 0.1450171040207582 0.1575250959504880	0.099829
H	0.7964218681577055 0.1468474636212257 0.1638305664194216	0.101096
H	0.7964372544637885 0.3523746272835231 0.0651570452668305	0.101893
H	0.9223866115099738 0.3507821591123181 0.0596689660071220	0.103034
H	0.3033795279578244 0.1466195204136843 0.2200755567197131	0.110554
H	0.3074625923873190 0.0203213094991558 0.2266928797148947	0.115215
H	0.1984777010418825 0.0159811467085691 0.9826140155291461	0.115358
H	0.2013517196366975 0.1427013390933941 0.9829743860252470	0.110948
H	0.3549828959792416 0.9226111127446369 0.1575250959504880	0.099827
H	0.3531525243787735 0.7964218681577055 0.1638305664194216	0.101096
H	0.1476253847164778 0.7964372544637885 0.0651570452668305	0.101896
H	0.1492178288876879 0.9223866115099738 0.0596689660071220	0.103035
H	0.1966204960421777 0.3533804435863129 0.2200755567197131	0.110554
H	0.1925374316126830 0.4796786965008376 0.2266928797148947	0.115215
H	0.3015223109581186 0.4840188422914337 0.9826140155291461	0.115362
H	0.2986482683633013 0.3572986849066079 0.9829743860252470	0.110950
H	0.1450171040207582 0.5773889342553634 0.1575250959504880	0.099830
H	0.1468474636212257 0.7035781318422945 0.1638305664194216	0.101095
H	0.3523746272835231 0.7035627455362115 0.0651570452668305	0.101892
H	0.3507821591123181 0.5776133884900262 0.0596689660071220	0.103033
Co	0.2500000000000000 0.2500000000000000 0.6010908845988574	0.577578
Co	0.7500000000000000 0.7500000000000000 0.8989091154011426	0.577581
Co	0.7500000000000000 0.7500000000000000 0.3989090534011446	0.577576
Co	0.2500000000000000 0.2500000000000000 0.1010909075988557	0.577573
Si	0.2500000000000000 0.2500000000000000 0.3518431712297377	1.724152
Si	0.7500000000000000 0.7500000000000000 0.1481568437702598	1.724150
Si	0.7500000000000000 0.7500000000000000 0.6481569217702590	1.724150
Si	0.2500000000000000 0.2500000000000000 0.8518430782297410	1.724152
	  	
