#======================================================================

# CRYSTAL DATA

#----------------------------------------------------------------------

data_VESTA_phase_1


_pd_phase_name                         SIFSIX_15_Ni_i
_cell_length_a                         29.76189
_cell_length_b                         28.89962
_cell_length_c                         7.73716
_cell_angle_alpha                      90
_cell_angle_beta                       90
_cell_angle_gamma                      90
_symmetry_space_group_name_H-M         P 1
_symmetry_Int_Tables_number            1

loop_
_symmetry_equiv_pos_as_xyz
   x, y, z

loop_
   _atom_site_label
   _atom_site_fract_x
   _atom_site_fract_y
   _atom_site_fract_z
   _atom_site_charge
C	0.9342530022163649 0.1035906259208691 0.8997464335541995	0.103600
C	0.9021994031000574 0.0687541157529517 0.9055780896240633	-0.165317
C	0.7699729721790834 0.9363675063316003 0.9075357956466280	-0.114534
C	0.7356168839941944 0.9040700623388463 0.9073233553061257	-0.117408
C	0.5672330369327191 0.7406720646002175 0.8996583838553540	0.102459
C	0.6010771241475598 0.7736729674207272 0.9052789961692722	-0.171329
C	0.4342530342163603 0.6035906419208704 0.8997464335541995	0.103594
C	0.4021994351000598 0.5687540787529520 0.9055780896240633	-0.165320
C	0.2699729081790852 0.4363675393315994 0.9075357956466280	-0.114518
C	0.2356168519941922 0.4040701283388516 0.9073233553061257	-0.117403
C	0.0672330609327209 0.2406720476002194 0.8996583838553540	0.102459
C	0.1010771001475579 0.2736730004207261 0.9052789961692722	-0.171329
C	0.0657469657836397 0.8964093580791296 0.3997464645541987	0.103594
C	0.0978005728999407 0.9312459212470480 0.4055781216240590	-0.165320
C	0.2300270438209180 0.0636324566684004 0.4075358576466264	-0.114539
C	0.2643831320058064 0.0959298876611498 0.4073233553061256	-0.117403
C	0.4327669310672786 0.2593279853997798 0.3996584148553529	0.102458
C	0.3989228758524402 0.2263269995792737 0.4052789961692721	-0.171329
C	0.5657469977836351 0.3964093910791287 0.3997464645541987	0.103601
C	0.5978005968999426 0.4312459212470476 0.4055781216240590	-0.165317
C	0.7300270278209166 0.5636324936683997 0.4075358576466264	-0.114534
C	0.7643831160058056 0.5959299376611537 0.4073233553061256	-0.117409
C	0.9327669630672809 0.7593279353997825 0.3996584148553529	0.102458
C	0.8989228758524402 0.7263270325792728 0.4052789961692721	-0.171329
C	0.0657469657836397 0.1035906259208691 0.6002535354458015	0.103594
C	0.0978005728999407 0.0687541157529517 0.5944218163759361	-0.165319
C	0.2300270438209180 0.9363675063316003 0.5924641733533730	-0.114534
C	0.2643831320058064 0.9040700623388463 0.5926766756938733	-0.117408
C	0.4327669310672786 0.7406720646002175 0.6003415221446453	0.102459
C	0.3989228758524402 0.7736729674207272 0.5947209728307288	-0.171329
C	0.5657469977836351 0.6035906419208704 0.6002535354458015	0.103601
C	0.5978005968999426 0.5687540787529520 0.5944218163759361	-0.165317
C	0.7300270278209166 0.4363675393315994 0.5924641733533730	-0.114540
C	0.7643831160058056 0.4040701283388516 0.5926766756938733	-0.117402
C	0.9327669630672809 0.2406720476002194 0.6003415221446453	0.102459
C	0.8989228758524402 0.2736730004207261 0.5947209728307288	-0.171329
C	0.9342530022163649 0.8964093580791296 0.1002535514458027	0.103601
C	0.9021994031000574 0.9312459212470480 0.0944218553759356	-0.165317
C	0.7699729721790834 0.0636324566684004 0.0924641733533727	-0.114540
C	0.7356168839941944 0.0959298876611498 0.0926766606938685	-0.117403
C	0.5672330369327191 0.2593279853997798 0.1003415771446464	0.102458
C	0.6010771241475598 0.2263269995792737 0.0947210188307256	-0.171329
C	0.4342530342163603 0.3964093910791287 0.1002535514458027	0.103594
C	0.4021994351000598 0.4312459212470476 0.0944218553759356	-0.165320
C	0.2699729081790852 0.5636324936683997 0.0924641733533727	-0.114512
C	0.2356168519941922 0.5959299376611537 0.0926766606938685	-0.117410
C	0.0672330609327209 0.7593279353997825 0.1003415771446464	0.102458
C	0.1010771001475579 0.7263270325792728 0.0947210188307256	-0.171329
C	0.0657469657836397 0.8964093580791296 0.1002535514458027	0.103594
C	0.0978005728999407 0.9312459212470480 0.0944218553759356	-0.165320
C	0.2300270438209180 0.0636324566684004 0.0924641733533726	-0.114539
C	0.2643831320058064 0.0959298876611498 0.0926766606938685	-0.117403
C	0.4327669310672786 0.2593279853997798 0.1003415771446464	0.102458
C	0.3989228758524402 0.2263269995792737 0.0947210188307256	-0.171329
C	0.5657469977836351 0.3964093910791287 0.1002535514458027	0.103600
C	0.5978005968999426 0.4312459212470476 0.0944218553759356	-0.165317
C	0.7300270278209166 0.5636324936683997 0.0924641733533727	-0.114534
C	0.7643831160058056 0.5959299376611537 0.0926766606938685	-0.117409
C	0.9327669630672809 0.7593279353997825 0.1003415771446464	0.102458
C	0.8989228758524402 0.7263270325792728 0.0947210188307256	-0.171329
C	0.9342530022163649 0.1035906259208691 0.6002535354458015	0.103600
C	0.9021994031000574 0.0687541157529517 0.5944218163759361	-0.165316
C	0.7699729721790834 0.9363675063316003 0.5924641733533730	-0.114534
C	0.7356168839941944 0.9040700623388463 0.5926766756938733	-0.117408
C	0.5672330369327191 0.7406720646002175 0.6003415221446453	0.102459
C	0.6010771241475598 0.7736729674207272 0.5947209728307288	-0.171330
C	0.4342530342163603 0.6035906419208704 0.6002535354458015	0.103594
C	0.4021994351000598 0.5687540787529520 0.5944218163759361	-0.165319
C	0.2699729081790852 0.4363675393315994 0.5924641733533730	-0.114518
C	0.2356168519941922 0.4040701283388516 0.5926766756938733	-0.117403
C	0.0672330609327209 0.2406720476002194 0.6003415221446453	0.102459
C	0.1010771001475579 0.2736730004207261 0.5947209728307288	-0.171330
C	0.9342530022163649 0.8964093580791296 0.3997464645541987	0.103600
C	0.9021994031000574 0.9312459212470480 0.4055781216240590	-0.165317
C	0.7699729721790834 0.0636324566684004 0.4075358576466264	-0.114540
C	0.7356168839941944 0.0959298876611498 0.4073233553061256	-0.117403
C	0.5672330369327191 0.2593279853997798 0.3996584148553529	0.102458
C	0.6010771241475598 0.2263269995792737 0.4052789961692721	-0.171329
C	0.4342530342163603 0.3964093910791287 0.3997464645541987	0.103594
C	0.4021994351000598 0.4312459212470476 0.4055781216240590	-0.165320
C	0.2699729081790852 0.5636324936683997 0.4075358576466264	-0.114511
C	0.2356168519941922 0.5959299376611537 0.4073233553061256	-0.117410
C	0.0672330609327209 0.7593279353997825 0.3996584148553529	0.102458
C	0.1010771001475579 0.7263270325792728 0.4052789961692721	-0.171329
C	0.0657469657836397 0.1035906259208691 0.8997464335541995	0.103593
C	0.0978005728999407 0.0687541157529517 0.9055780896240633	-0.165320
C	0.2300270438209180 0.9363675063316003 0.9075357956466280	-0.114534
C	0.2643831320058064 0.9040700623388463 0.9073233553061257	-0.117408
C	0.4327669310672786 0.7406720646002175 0.8996583838553540	0.102459
C	0.3989228758524402 0.7736729674207272 0.9052789961692722	-0.171330
C	0.5657469977836351 0.6035906419208704 0.8997464335541995	0.103600
C	0.5978005968999426 0.5687540787529520 0.9055780896240633	-0.165317
C	0.7300270278209166 0.4363675393315994 0.9075357956466280	-0.114540
C	0.7643831160058056 0.4040701283388516 0.9073233553061257	-0.117402
C	0.9327669630672809 0.2406720476002194 0.8996583838553540	0.102459
C	0.8989228758524402 0.2736730004207261 0.9052789961692722	-0.171330
C	0.6532486793443163 0.8249651947371289 0.7500000160000013	-0.103045
C	0.8852855499541754 0.0505358305700553 0.7500000160000013	0.161784
C	0.8224478650043119 0.9863228617317703 0.7500000160000013	-0.096857
C	0.6188903235853382 0.7911857698306923 0.7500000160000013	0.170749
C	0.7876955304011339 0.9529920179617488 0.7500000160000013	0.123612
C	0.7178530054830017 0.8872790065186226 0.7500000160000013	0.139598
C	0.6830203760743461 0.8540254588920414 0.7500000160000013	-0.104581
C	0.8519648974257547 0.0156707594736701 0.7500000160000013	-0.106553
C	0.1532486633443149 0.3249651947371287 0.7500000160000013	-0.103045
C	0.3852854539541749 0.5505358425700563 0.7500000160000013	0.161774
C	0.3224478650043118 0.4863228617317704 0.7500000160000013	-0.096933
C	0.1188903155853379 0.2911857698306923 0.7500000160000013	0.170750
C	0.2876954984011382 0.4529920179617488 0.7500000160000013	0.123613
C	0.2178529894830000 0.3872790395186214 0.7500000160000013	0.139584
C	0.1830203430743468 0.3540254258920423 0.7500000160000013	-0.104583
C	0.3519648654257522 0.5156707544736659 0.7500000160000013	-0.106484
C	0.3467513526556865 0.1750348052628715 0.2500000000000000	-0.103045
C	0.1147145220458304 0.9494641574299437 0.2500000000000000	0.161777
C	0.1775521349956882 0.0136771342682292 0.2500000000000000	-0.096874
C	0.3811096764146614 0.2088142141693065 0.2500000000000000	0.170749
C	0.2123044855988676 0.0470079740382506 0.2500000000000000	0.123615
C	0.2821469945169989 0.1127209524813778 0.2500000000000000	0.139583
C	0.3169796569256531 0.1459745411079584 0.2500000000000000	-0.104582
C	0.1480351345742477 0.9843292125263349 0.2500000000000000	-0.106512
C	0.8467513206556837 0.6750348052628711 0.2500000000000000	-0.103045
C	0.6147144500458246 0.4494641904299428 0.2500000000000000	0.161784
C	0.6775521349956881 0.5136771382682297 0.2500000000000000	-0.096856
C	0.8811096764146618 0.7088142301693077 0.2500000000000000	0.170749
C	0.7123044695988661 0.5470080150382504 0.2500000000000000	0.123612
C	0.7821469945169983 0.6127209934813774 0.2500000000000000	0.139599
C	0.8169796239256539 0.6459745411079586 0.2500000000000000	-0.104581
C	0.6480351025742453 0.4843292125263347 0.2500000000000000	-0.106554
C	0.3467513526556865 0.8249651947371289 0.7500000160000013	-0.103046
C	0.1147145220458304 0.0505358305700553 0.7500000160000013	0.161777
C	0.1775521349956882 0.9863228617317703 0.7500000160000013	-0.096875
C	0.3811096764146614 0.7911857698306923 0.7500000160000013	0.170749
C	0.2123044855988676 0.9529920179617488 0.7500000160000013	0.123616
C	0.2821469945169989 0.8872790065186226 0.7500000160000013	0.139598
C	0.3169796569256531 0.8540254588920414 0.7500000160000013	-0.104580
C	0.1480351345742477 0.0156707594736701 0.7500000160000013	-0.106511
C	0.8467513206556837 0.3249651947371287 0.7500000160000013	-0.103045
C	0.6147144500458246 0.5505358425700563 0.7500000160000013	0.161784
C	0.6775521349956881 0.4863228617317704 0.7500000160000013	-0.096857
C	0.8811096764146618 0.2911857698306923 0.7500000160000013	0.170749
C	0.7123044695988661 0.4529920179617488 0.7500000160000013	0.123612
C	0.7821469945169983 0.3872790395186214 0.7500000160000013	0.139582
C	0.8169796239256539 0.3540254258920423 0.7500000160000013	-0.104582
C	0.6480351025742453 0.5156707544736659 0.7500000160000013	-0.106553
C	0.6532486793443163 0.1750348052628715 0.2500000000000000	-0.103044
C	0.8852855499541754 0.9494641574299437 0.2500000000000000	0.161784
C	0.8224478650043119 0.0136771342682292 0.2500000000000000	-0.096856
C	0.6188903235853382 0.2088142141693065 0.2500000000000000	0.170749
C	0.7876955304011339 0.0470079740382506 0.2500000000000000	0.123612
C	0.7178530054830017 0.1127209524813778 0.2500000000000000	0.139583
C	0.6830203760743461 0.1459745411079584 0.2500000000000000	-0.104582
C	0.8519648974257547 0.9843292125263349 0.2500000000000000	-0.106554
C	0.1532486633443149 0.6750348052628711 0.2500000000000000	-0.103045
C	0.3852854539541749 0.4494641904299428 0.2500000000000000	0.161774
C	0.3224478650043118 0.5136771382682297 0.2500000000000000	-0.096933
C	0.1188903155853379 0.7088142301693077 0.2500000000000000	0.170749
C	0.2876954984011382 0.5470080150382504 0.2500000000000000	0.123612
C	0.2178529894830000 0.6127209934813774 0.2500000000000000	0.139600
C	0.1830203430743468 0.6459745411079586 0.2500000000000000	-0.104581
C	0.3519648654257522 0.4843292125263347 0.2500000000000000	-0.106485
H	0.9474806975532156 0.1180564167667618 0.0189671650349921	0.101898
H	0.8903849099031785 0.0559637274922373 0.0297743923451475	0.120128
H	0.7836271568445066 0.9493118593957723 0.0288119500328161	0.106162
H	0.7219996947250953 0.8913084361504492 0.0287797530891016	0.115755
H	0.5532468691279899 0.7270337834407909 0.0189549921180951	0.100644
H	0.6135042547440930 0.7856410821203134 0.0296607439966762	0.125518
H	0.4474807935532165 0.6180564327667631 0.0189671650349921	0.101899
H	0.3903848459031808 0.5559637564922431 0.0297743923451475	0.120125
H	0.2836271568445068 0.4493118593957723 0.0288119500328161	0.106160
H	0.2219997107250967 0.3913085351504538 0.0287797530891016	0.115762
H	0.0532468771279908 0.2270338324407913 0.0189549921180951	0.100644
H	0.1135042707440872 0.2856410161203152 0.0296607439966762	0.125518
H	0.0525192424467793 0.8819435672332369 0.5189671940349911	0.101899
H	0.1096151380968179 0.9440362435077569 0.5297744273451470	0.120125
H	0.2163728751554959 0.0506881576042326 0.5288119820328184	0.106162
H	0.2780003052749045 0.1086914898495518 0.5287797490891012	0.115762
H	0.4467531308720099 0.2729661505592110 0.5189549921180951	0.100643
H	0.3864957452559070 0.2143589348796844 0.5296607749966753	0.125517
H	0.5525193024467844 0.3819435672332368 0.5189671940349911	0.101898
H	0.6096150900968215 0.4440362765077630 0.5297744273451470	0.120128
H	0.7163728431554934 0.5506881406042277 0.5288119820328184	0.106162
H	0.7780003052749047 0.6086915638495508 0.5287797490891012	0.115755
H	0.9467531308720101 0.7729662165592091 0.5189549921180951	0.100643
H	0.8864957452559070 0.7143589178796866 0.5296607749966753	0.125517
H	0.0525192424467793 0.1180564167667618 0.4810328369650083	0.101899
H	0.1096151380968179 0.0559637274922373 0.4702255726548460	0.120125
H	0.2163728751554959 0.9493118593957723 0.4711880499671838	0.106162
H	0.2780003052749045 0.8913084361504492 0.4712202509108988	0.115755
H	0.4467531308720099 0.7270337834407909 0.4810450398819074	0.100644
H	0.3864957452559070 0.7856410821203134 0.4703392560033239	0.125518
H	0.5525193024467844 0.6180564327667631 0.4810328369650083	0.101898
H	0.6096150900968215 0.5559637564922431 0.4702255726548460	0.120128
H	0.7163728431554934 0.4493118593957723 0.4711880499671838	0.106163
H	0.7780003052749047 0.3913085351504538 0.4712202509108988	0.115763
H	0.9467531308720101 0.2270338324407913 0.4810450398819074	0.100644
H	0.8864957452559070 0.2856410161203152 0.4703392560033239	0.125518
H	0.9474806975532156 0.8819435672332369 0.9810328369650079	0.101898
H	0.8903849099031785 0.9440362435077569 0.9702255416548469	0.120128
H	0.7836271568445066 0.0506881576042326 0.9711880499671842	0.106163
H	0.7219996947250953 0.1086914898495518 0.9712202199108927	0.115763
H	0.5532468691279899 0.2729661505592110 0.9810450078819049	0.100643
H	0.6135042547440930 0.2143589348796844 0.9703392560033237	0.125517
H	0.4474807935532165 0.3819435672332368 0.9810328369650079	0.101899
H	0.3903848459031808 0.4440362765077630 0.9702255416548469	0.120125
H	0.2836271568445068 0.5506881406042277 0.9711880499671842	0.106160
H	0.2219997107250967 0.6086915638495508 0.9712202199108927	0.115755
H	0.0532468771279908 0.7729662165592091 0.9810450078819049	0.100644
H	0.1135042707440872 0.7143589178796866 0.9703392560033237	0.125518
H	0.0525192424467793 0.8819435672332369 0.9810328369650079	0.101899
H	0.1096151380968179 0.9440362435077569 0.9702255416548469	0.120125
H	0.2163728751554959 0.0506881576042326 0.9711880499671842	0.106162
H	0.2780003052749045 0.1086914898495518 0.9712202199108927	0.115764
H	0.4467531308720099 0.2729661505592110 0.9810450078819049	0.100643
H	0.3864957452559070 0.2143589348796844 0.9703392560033237	0.125518
H	0.5525193024467844 0.3819435672332368 0.9810328369650079	0.101898
H	0.6096150900968215 0.4440362765077630 0.9702255416548469	0.120128
H	0.7163728431554934 0.5506881406042277 0.9711880499671842	0.106162
H	0.7780003052749047 0.6086915638495508 0.9712202199108927	0.115756
H	0.9467531308720101 0.7729662165592091 0.9810450078819049	0.100643
H	0.8864957452559070 0.7143589178796866 0.9703392560033237	0.125518
H	0.9474806975532156 0.1180564167667618 0.4810328369650083	0.101898
H	0.8903849099031785 0.0559637274922373 0.4702255726548460	0.120127
H	0.7836271568445066 0.9493118593957723 0.4711880499671838	0.106162
H	0.7219996947250953 0.8913084361504492 0.4712202509108988	0.115756
H	0.5532468691279899 0.7270337834407909 0.4810450398819074	0.100644
H	0.6135042547440930 0.7856410821203134 0.4703392560033239	0.125518
H	0.4474807935532165 0.6180564327667631 0.4810328369650083	0.101899
H	0.3903848459031808 0.5559637564922431 0.4702255726548460	0.120125
H	0.2836271568445068 0.4493118593957723 0.4711880499671838	0.106160
H	0.2219997107250967 0.3913085351504538 0.4712202509108988	0.115764
H	0.0532468771279908 0.2270338324407913 0.4810450398819074	0.100644
H	0.1135042707440872 0.2856410161203152 0.4703392560033239	0.125518
H	0.9474806975532156 0.8819435672332369 0.5189671940349911	0.101898
H	0.8903849099031785 0.9440362435077569 0.5297744273451470	0.120128
H	0.7836271568445066 0.0506881576042326 0.5288119820328184	0.106163
H	0.7219996947250953 0.1086914898495518 0.5287797490891012	0.115764
H	0.5532468691279899 0.2729661505592110 0.5189549921180951	0.100643
H	0.6135042547440930 0.2143589348796844 0.5296607749966753	0.125518
H	0.4474807935532165 0.3819435672332368 0.5189671940349911	0.101899
H	0.3903848459031808 0.4440362765077630 0.5297744273451470	0.120125
H	0.2836271568445068 0.5506881406042277 0.5288119820328184	0.106159
H	0.2219997107250967 0.6086915638495508 0.5287797490891012	0.115756
H	0.0532468771279908 0.7729662165592091 0.5189549921180951	0.100643
H	0.1135042707440872 0.7143589178796866 0.5296607749966753	0.125518
H	0.0525192424467793 0.1180564167667618 0.0189671650349921	0.101899
H	0.1096151380968179 0.0559637274922373 0.0297743923451475	0.120124
H	0.2163728751554959 0.9493118593957723 0.0288119500328161	0.106162
H	0.2780003052749045 0.8913084361504492 0.0287797530891016	0.115756
H	0.4467531308720099 0.7270337834407909 0.0189549921180951	0.100644
H	0.3864957452559070 0.7856410821203134 0.0296607439966762	0.125518
H	0.5525193024467844 0.6180564327667631 0.0189671650349921	0.101898
H	0.6096150900968215 0.5559637564922431 0.0297743923451475	0.120127
H	0.7163728431554934 0.4493118593957723 0.0288119500328161	0.106163
H	0.7780003052749047 0.3913085351504538 0.0287797530891016	0.115764
H	0.9467531308720101 0.2270338324407913 0.0189549921180951	0.100643
H	0.8864957452559070 0.2856410161203152 0.0296607439966762	0.125518
Ni	0.5000000000000000 0.6730100593891565 0.7500000160000013	0.767456
Ni	-0.0000000000000000 0.1730100763891544 0.7500000160000013	0.767456
Ni	0.5000000000000000 0.3269899406108434 0.2500000000000000	0.767456
Ni	-0.0000000000000000 0.8269899406108435 0.2500000000000000	0.767456
Si	0.5000000000000000 0.6727479405371323 0.2500000000000000	1.714263
Si	-0.0000000000000000 0.1727479405371324 0.2500000000000000	1.714263
Si	0.5000000000000000 0.3272520914628703 0.7500000160000013	1.714263
Si	-0.0000000000000000 0.8272520594628677 0.7500000160000013	1.714263
F	0.5000000000000000 0.7315370686909054 0.2500000000000000	-0.532478
F	0.5000000000000000 0.6139797527900108 0.2500000000000000	-0.529293
F	-0.0000000000000000 0.2315370196909050 0.2500000000000000	-0.532478
F	-0.0000000000000000 0.1139797367900098 0.2500000000000000	-0.529293
F	0.5000000000000000 0.2684629803090949 0.7500000160000013	-0.532477
F	0.5000000000000000 0.3860202142099899 0.7500000160000013	-0.529294
F	-0.0000000000000000 0.7684629313090946 0.7500000160000013	-0.532477
F	-0.0000000000000000 0.8860202472099892 0.7500000160000013	-0.529293
F	0.5570908482568973 0.6726813627672021 0.2500000000000000	-0.531602
F	0.0570908682568992 0.1726813957672014 0.2500000000000000	-0.531602
F	0.4429091197430998 0.3273185712327993 0.7500000160000013	-0.531601
F	0.9429091517431027 0.8273186372327979 0.7500000160000013	-0.531601
F	0.4429091197430998 0.6726813627672021 0.2500000000000000	-0.531602
F	0.9429091517431027 0.1726813957672014 0.2500000000000000	-0.531602
F	0.5570908482568973 0.3273185712327993 0.7500000160000013	-0.531601
F	0.0570908682568992 0.8273186372327979 0.7500000160000013	-0.531601
F	0.5000000000000000 0.6728630878990483 0.4790592827219982	-0.501017
F	-0.0000000000000000 0.1728631048990460 0.4790592827219982	-0.501017
F	0.5000000000000000 0.3271369451009510 0.9790592827219983	-0.501017
F	-0.0000000000000000 0.8271369121009517 0.9790592827219983	-0.501017
F	0.5000000000000000 0.6728630878990483 0.0209407132780014	-0.501017
F	-0.0000000000000000 0.1728631048990460 0.0209407132780014	-0.501017
F	0.5000000000000000 0.3271369451009510 0.5209406852780062	-0.501017
F	-0.0000000000000000 0.8271369121009517 0.5209406852780062	-0.501017
N	0.5502771961410921 0.7241263047852476 0.7500000160000013	-0.238736
N	0.9502983188108133 0.1210311245057564 0.7500000160000013	-0.238476
N	0.0502771601410893 0.2241262887852463 0.7500000160000013	-0.238737
N	0.4502983188108132 0.6210311085057547 0.7500000160000013	-0.238475
N	0.4497228678589058 0.2758736952147525 0.2500000000000000	-0.238737
N	0.0497016891891876 0.8789688914942453 0.2500000000000000	-0.238475
N	0.9497228038589079 0.7758736952147524 0.2500000000000000	-0.238736
N	0.5497016811891867 0.3789688914942448 0.2500000000000000	-0.238476
N	0.4497228678589058 0.7241263047852476 0.7500000160000013	-0.238736
N	0.0497016891891876 0.1210311245057564 0.7500000160000013	-0.238475
N	0.9497228038589079 0.2241262887852463 0.7500000160000013	-0.238737
N	0.5497016811891867 0.6210311085057547 0.7500000160000013	-0.238477
N	0.5502771961410921 0.2758736952147525 0.2500000000000000	-0.238737
N	0.9502983188108133 0.8789688914942453 0.2500000000000000	-0.238477
N	0.0502771601410893 0.7758736952147524 0.2500000000000000	-0.238736
N	0.4502983188108132 0.3789688914942448 0.2500000000000000	-0.238475
	  	
