#======================================================================

# CRYSTAL DATA

#----------------------------------------------------------------------

data_VESTA_phase_1


_pd_phase_name                         SIFSIX_1_Co
_cell_length_a                         11.00489
_cell_length_b                         11.00489
_cell_length_c                         7.82282
_cell_angle_alpha                      90
_cell_angle_beta                       90
_cell_angle_gamma                      90
_symmetry_space_group_name_H-M         P 1
_symmetry_Int_Tables_number            1

loop_
_symmetry_equiv_pos_as_xyz
   x, y, z

loop_
   _atom_site_label
   _atom_site_fract_x
   _atom_site_fract_y
   _atom_site_fract_z
   _atom_site_charge
C	0.2593654157796764 0.4562780285239275 0.3646196074791566	0.094525
C	0.1331234808993899 0.4556316555820815 0.3602506097079846	-0.170484
C	0.7406346712203272 0.5437220144760725 0.3646196074791566	0.094525
C	0.8668765631006136 0.5443683444179186 0.3602506097079846	-0.170484
C	0.5437220144760725 0.2593654157796764 0.3646196074791566	0.094525
C	0.5443683444179186 0.1331234808993899 0.3602506097079846	-0.170484
C	0.4562780285239275 0.7406346712203272 0.3646196074791566	0.094525
C	0.4556316555820815 0.8668765631006136 0.3602506097079846	-0.170484
C	0.7406346712203272 0.4562780285239275 0.6353803625208406	0.094527
C	0.8668765631006136 0.4556316555820815 0.6397493612920098	-0.170489
C	0.2593654157796764 0.5437220144760725 0.6353803625208406	0.094526
C	0.1331234808993899 0.5443683444179186 0.6397493612920098	-0.170488
C	0.4562780285239275 0.2593654157796764 0.6353803625208406	0.094527
C	0.4556316555820815 0.1331234808993899 0.6397493612920097	-0.170488
C	0.5437220144760725 0.7406346712203272 0.6353803625208406	0.094527
C	0.5443683444179186 0.8668765631006136 0.6397493612920097	-0.170489
C	0.0670936557862118 0.5000000000000000 0.5000000000000000	0.097999
C	0.9329064202137873 0.5000000000000000 0.5000000000000000	0.098003
C	0.5000000000000000 0.0670936557862118 0.5000000000000000	0.097999
C	0.5000000000000000 0.9329064202137873 0.5000000000000000	0.098004
H	0.3125526975437858 0.4231367561365613 0.2566853974848609	0.110923
H	0.0870899751967120 0.4187095074310522 0.2483865343952383	0.122803
H	0.6874472594562145 0.5768632438634388 0.2566853974848609	0.110923
H	0.9129100408032897 0.5812904925689478 0.2483865343952383	0.122802
H	0.5768632438634388 0.3125526975437858 0.2566853974848609	0.110923
H	0.5812904925689478 0.0870899751967120 0.2483865343952383	0.122804
H	0.4231367561365613 0.6874472594562145 0.2566853974848609	0.110923
H	0.4187095074310522 0.9129100408032897 0.2483865343952383	0.122803
H	0.6874472594562145 0.4231367561365613 0.7433145735151402	0.110923
H	0.9129100408032897 0.4187095074310522 0.7516135246047632	0.122806
H	0.3125526975437858 0.5768632438634388 0.7433145735151402	0.110923
H	0.0870899751967120 0.5812904925689478 0.7516135246047632	0.122805
H	0.4231367561365613 0.3125526975437858 0.7433145735151402	0.110923
H	0.4187095074310522 0.0870899751967120 0.7516135246047632	0.122808
H	0.5768632438634388 0.6874472594562145 0.7433145735151402	0.110923
H	0.5812904925689478 0.9129100408032897 0.7516135246047632	0.122807
Co	0.5000000000000000 0.5000000000000000 0.5000000000000000	0.567618
Si	0.5000000000000000 0.5000000000000000 0.0000000000000000	1.718241
F	0.5000000000000000 0.5000000000000000 0.7781545637569165	-0.505084
F	0.5000000000000000 0.5000000000000000 0.2218454362430834	-0.505084
F	0.3900886313714501 0.3900886313714501 0.0000000000000000	-0.544885
F	0.6099113686285496 0.6099113686285496 0.0000000000000000	-0.544885
F	0.6099113686285496 0.3900886313714501 0.0000000000000000	-0.544885
F	0.3900886313714501 0.6099113686285496 0.0000000000000000	-0.544885
N	0.3216740032859045 0.5000000000000000 0.5000000000000000	-0.187573
N	0.6783260187140976 0.5000000000000000 0.5000000000000000	-0.187573
N	0.5000000000000000 0.3216740032859045 0.5000000000000000	-0.187573
N	0.5000000000000000 0.6783260187140977 0.5000000000000000	-0.187573
	  	
