#======================================================================

# CRYSTAL DATA

#----------------------------------------------------------------------

data_VESTA_phase_1


_pd_phase_name                         SIFSIX_1_Cd
_cell_length_a                         11.71227
_cell_length_b                         11.71227
_cell_length_c                         7.95272
_cell_angle_alpha                      90
_cell_angle_beta                       90
_cell_angle_gamma                      90
_symmetry_space_group_name_H-M         P 1
_symmetry_Int_Tables_number            1

loop_
_symmetry_equiv_pos_as_xyz
   x, y, z

loop_
   _atom_site_label
   _atom_site_fract_x
   _atom_site_fract_y
   _atom_site_fract_z
   _atom_site_charge
C	0.2431356422921407 0.4589897111130777 0.3665770353168391	0.104057
C	0.1243962112485939 0.4576633314345508 0.3621344192206213	-0.174679
C	0.7568644447078633 0.5410103318869223 0.3665770353168391	0.104057
C	0.8756038327514094 0.5423366685654494 0.3621344192206213	-0.174679
C	0.5410103318869223 0.2431356422921407 0.3665770353168391	0.104058
C	0.5423366685654494 0.1243962112485939 0.3621344192206213	-0.174679
C	0.4589897111130777 0.7568644447078633 0.3665770353168391	0.104058
C	0.4576633314345508 0.8756038327514094 0.3621344192206213	-0.174679
C	0.7568644447078633 0.4589897111130777 0.6334229346831579	0.104058
C	0.8756038327514094 0.4576633314345508 0.6378655517793725	-0.174678
C	0.2431356422921407 0.5410103318869223 0.6334229346831579	0.104058
C	0.1243962112485939 0.5423366685654494 0.6378655517793725	-0.174677
C	0.4589897111130777 0.2431356422921407 0.6334229346831579	0.104058
C	0.4576633314345508 0.1243962112485939 0.6378655517793725	-0.174677
C	0.5410103318869223 0.7568644447078633 0.6334229346831579	0.104058
C	0.5423366685654494 0.8756038327514094 0.6378655517793725	-0.174678
C	0.0629943490617337 0.5000000000000000 0.5000000000000000	0.100741
C	0.9370057269382653 0.5000000000000000 0.5000000000000000	0.100742
C	0.5000000000000000 0.0629943490617337 0.5000000000000000	0.100741
C	0.5000000000000000 0.9370057269382653 0.5000000000000000	0.100742
H	0.2941766098057033 0.4276328615464503 0.2610565382298222	0.108026
H	0.0798179853836545 0.4222693175971973 0.2536622924370960	0.121055
H	0.7058233471942962 0.5723671384535496 0.2610565382298222	0.108026
H	0.9201820306163472 0.5777306824028028 0.2536622924370960	0.121054
H	0.5723671384535496 0.2941766098057033 0.2610565382298222	0.108026
H	0.5777306824028028 0.0798179853836545 0.2536622924370960	0.121055
H	0.4276328615464504 0.7058233471942962 0.2610565382298222	0.108026
H	0.4222693175971973 0.9201820306163472 0.2536622924370960	0.121055
H	0.7058233471942962 0.4276328615464503 0.7389434327701792	0.108026
H	0.9201820306163472 0.4222693175971973 0.7463377665629055	0.121053
H	0.2941766098057033 0.5723671384535496 0.7389434327701792	0.108026
H	0.0798179853836545 0.5777306824028028 0.7463377665629055	0.121053
H	0.4276328615464504 0.2941766098057033 0.7389434327701792	0.108026
H	0.4222693175971973 0.0798179853836545 0.7463377665629055	0.121053
H	0.5723671384535496 0.7058233471942962 0.7389434327701792	0.108026
H	0.5777306824028028 0.9201820306163472 0.7463377665629055	0.121053
Cd	0.5000000000000000 0.5000000000000000 0.5000000000000000	0.827509
Si	0.5000000000000000 0.5000000000000000 0.0000000000000000	1.750884
F	0.5000000000000000 0.5000000000000000 0.7810376059547276	-0.512312
F	0.5000000000000000 0.5000000000000000 0.2189623940452723	-0.512312
F	0.3967341710785530 0.3967341710785530 0.0000000000000000	-0.564018
F	0.6032658289214469 0.6032658289214469 0.0000000000000000	-0.564018
F	0.6032658289214469 0.3967341710785530 0.0000000000000000	-0.564018
F	0.3967341710785530 0.6032658289214469 0.0000000000000000	-0.564018
N	0.3008352300432346 0.5000000000000000 0.5000000000000000	-0.242083
N	0.6991647919567671 0.5000000000000000 0.5000000000000000	-0.242083
N	0.5000000000000000 0.3008352300432346 0.5000000000000000	-0.242083
N	0.5000000000000000 0.6991647919567671 0.5000000000000000	-0.242083
	  	
