#======================================================================

# CRYSTAL DATA

#----------------------------------------------------------------------

data_VESTA_phase_1


_pd_phase_name                         SIFSIX_14_Zn_i
_cell_length_a                         13.36660
_cell_length_b                         13.34475
_cell_length_c                         7.75266
_cell_angle_alpha                      87.47561
_cell_angle_beta                       87.41952
_cell_angle_gamma                      89.83490
_symmetry_space_group_name_H-M         P 1
_symmetry_Int_Tables_number            1

loop_
_symmetry_equiv_pos_as_xyz
   x, y, z

loop_
   _atom_site_label
   _atom_site_fract_x
   _atom_site_fract_y
   _atom_site_fract_z
   _atom_site_charge
C	0.5695461870928717 0.2699845602817040 0.3678138478788525	-0.183064
C	0.4655681766210655 0.2732794539968855 0.3725143265360689	0.110291
C	0.9362135328828605 0.2886541032652162 0.4210931871154872	-0.173655
C	0.0398526709924078 0.2806326342627526 0.4073305268266136	0.110943
C	0.2679974800224755 0.5690107094991019 0.3702379291583376	-0.184605
C	0.2713590511907869 0.4648502233864252 0.3750944606506034	0.110933
C	0.2960042049415703 0.9362397567872498 0.4161216285400691	-0.175751
C	0.2870418664097830 0.0399511739708370 0.4035487304328017	0.108824
C	0.9308956612194019 0.2327544591158514 0.1296920735390957	-0.184278
C	0.0348923825097669 0.2295950179811235 0.1247932479661090	0.109428
C	0.5640563479687158 0.2069387243244704 0.0812274289209530	-0.174115
C	0.4604268057478947 0.2155285565165070 0.0942719794508363	0.109066
C	0.2080531305955883 0.5634404921320095 0.0817264286188839	-0.176610
C	0.2166157163538463 0.4597270283747741 0.0949825698564632	0.108875
C	0.2292422256995143 0.9305741388138036 0.1324700891224365	-0.184912
C	0.2258455828187713 0.0347440879388235 0.1278806856350394	0.111864
C	0.4308870251738591 0.7348645332544317 0.6292706132636465	-0.179614
C	0.5348171676458402 0.7328795994756097 0.6234909258372460	0.110467
C	0.0638726858879806 0.7294625880934428 0.5690079730846469	-0.162880
C	0.9600050843959851 0.7316737128327636 0.5864797387370979	0.112056
C	0.7351628336990593 0.4309795405166453 0.6289481111304355	-0.179450
C	0.7334394211268302 0.5350878696179170 0.6233386768843084	0.112843
C	0.7163251134126167 0.0634227644787335 0.5743466461855616	-0.163025
C	0.7211174190951314 0.9594297424903110 0.5899675586864496	0.109366
C	0.0692927929627868 0.7626468684053759 0.8722504518454646	-0.180521
C	0.9653592758211990 0.7637875590549059 0.8785476013116973	0.109820
C	0.4363688133756413 0.7766526330459445 0.9287375636289957	-0.162402
C	0.5402282508310946 0.7734076454274187 0.9118616003532414	0.110474
C	0.7775806096045303 0.4363527663289231 0.9280504989422838	-0.166269
C	0.7738467416533279 0.5403448687125201 0.9117754765237748	0.111218
C	0.7676070751699137 0.0689350109402234 0.8686532055433176	-0.178574
C	0.7701263981563315 0.9648560552569043 0.8737972211844234	0.110105
C	0.6201501846636381 0.2360942681119290 0.2186839090911018	0.187566
C	0.8802132580171055 0.2628149682087629 0.2813828123824614	0.190237
C	0.2357033534395353 0.6196212444017491 0.2202110220896183	0.190769
C	0.2651034489608688 0.8800162053278934 0.2798935835417939	0.190220
C	0.3803232801174157 0.7566967814298305 0.7861462272266427	0.185410
C	0.1198813564611035 0.7455506085723563 0.7133200417123504	0.186154
C	0.7571528890174313 0.3802756673655664 0.7854936425176896	0.187853
C	0.7406961112067963 0.1195759704203305 0.7146912745976229	0.185500
H	0.6102922986924560 0.2882416122966088 0.4805871670072736	0.110336
H	0.4233845435990982 0.2956206004034943 0.4883097581391248	0.103667
H	0.8996182097235162 0.3143095627099734 0.5391199856449999	0.122840
H	0.0854962727057688 0.2982399841186121 0.5151829607339228	0.105706
H	0.2852044183724587 0.6100433389354053 0.4833343191548318	0.113361
H	0.2926602092474300 0.4226468491120192 0.4914412286285485	0.104107
H	0.3262169115759957 0.8996753989115238 0.5305558067580466	0.123879
H	0.3078825100978952 0.0857952551361539 0.5093471904959848	0.106915
H	0.8901119862775729 0.2172673337069669 0.0155511077856714	0.110646
H	0.0771035646299126 0.2098148833379429 0.0074958416265367	0.103923
H	0.6006285134059168 0.1781006684932306 0.9655870011023682	0.124173
H	0.4147144044340610 0.1956123240955336 0.9878259842757434	0.106303
H	0.1807858064947575 0.6000015371666166 0.9649124497147966	0.123601
H	0.1979785974016905 0.4139141488385127 0.9877977179042782	0.106856
H	0.2094172139516726 0.8896156877458985 0.0207588525730820	0.113098
H	0.2021698667851061 0.0769391842092497 0.0130714487410233	0.103257
H	0.3905601864121890 0.7225304519290436 0.5130190839796868	0.103912
H	0.5770617151220513 0.7167896659341262 0.5043507646732492	0.104337
H	0.1004203315236266 0.7157877312377259 0.4442695583822139	0.121614
H	0.9144335528919576 0.7191909251224585 0.4763444088267016	0.105942
H	0.7232958706051557 0.3905014177420983 0.5126421569464310	0.104313
H	0.7177020568206202 0.5774759546283200 0.5041957615527662	0.104318
H	0.6940608993257823 0.1001212452972573 0.4542571621290943	0.122525
H	0.7031628835428384 0.9137193572961524 0.4823659643809814	0.106547
H	0.1096726685642583 0.7720700218456027 0.9894828801403663	0.102511
H	0.9230945034219106 0.7762937113647949 -0.0007771766816109	0.105488
H	0.3998423462730394 0.7941921950095122 0.0517095640934004	0.121761
H	0.5858394659965706 0.7886607291362706 0.0207884872760577	0.106692
H	0.7958935793658192 0.3996379932781509 0.0504025130676459	0.123052
H	0.7890110335087203 0.5859938265035524 0.0208298469488735	0.106212
H	0.7826625241287801 0.1093637976845866 0.9836681535565883	0.105105
H	0.7894677787309833 0.9225316156181850 0.9911354188248525	0.106022
N	0.7751548749256092 0.2763531269158337 0.2974467190367444	-0.104422
N	0.2797550013365485 0.7748436233133196 0.2933480309658375	-0.105815
N	0.7252347828197528 0.2221766943514737 0.2028686199141412	-0.104145
N	0.2213266366431313 0.7247663026153264 0.2064951235729079	-0.103396
N	0.2252171529141987 0.7407440580729878 0.6855493820741114	-0.098708
N	0.7331001408566593 0.2250353652572510 0.6893371300254539	-0.099236
N	0.2749885340129132 0.7621284331613116 0.8137188556166323	-0.097287
N	0.7641403130422127 0.2748330043597097 0.8111512109221731	-0.099772
N	0.4118656970697023 0.2477198483692540 0.2378580094408936	-0.222045
N	0.0885298646790615 0.2518905452942767 0.2614082601177379	-0.224787
N	0.2473819459553699 0.4110627262334359 0.2395426247762456	-0.224688
N	0.2529964415404378 0.0885390432865297 0.2614279518399319	-0.223190
N	0.5886550485817451 0.7514288663468385 0.7620999331206540	-0.220980
N	0.9115052962899661 0.7489788958087136 0.7383805566044730	-0.221723
N	0.7517785403213226 0.5888982950455296 0.7621749200792421	-0.222450
N	0.7479131915952458 0.9110051865140394 0.7369716821378390	-0.219981
F	0.3404378073840354 0.1578388504468454 0.7506231124928352	-0.537790
F	0.1610082371969050 0.3403795669747571 0.7498166249867428	-0.538614
F	0.3414603072885330 0.3387442938088898 0.7323193220406422	-0.540593
F	0.1599462710963467 0.1597090823297264 0.7677285847358806	-0.540386
F	0.6576329239751035 0.8394182632164323 0.2513146970633209	-0.534088
F	0.8412250828465409 0.6616066595622689 0.2491505798760122	-0.535642
F	0.6609729076868215 0.6590195001733248 0.2654661430633664	-0.537948
F	0.8380629517279696 0.8419104394378750 0.2346571737852822	-0.538034
F	0.2497915590075989 0.2478371359857567 0.5238192135442892	-0.501394
F	0.2517181966976030 0.2505737717841341 0.9763400754989190	-0.501584
F	0.7500549715508787 0.7506232649914849 0.4767094770082780	-0.501038
F	0.7489823953759571 0.7504814416839504 0.0234980710906699	-0.501394
Si	0.2508119512111177 0.2490812296289311 0.7500513044555996	1.722540
Si	0.7494312232826256 0.7506008775223550 0.2500508061283389	1.719144
Zn	0.2501259199202758 0.2498454836244461 0.2500197482048827	0.733669
Zn	0.7500758215748564 0.7498927676193829 0.7499467908458732	0.732203
	  	
