#======================================================================

# CRYSTAL DATA

#----------------------------------------------------------------------

data_VESTA_phase_1


_pd_phase_name                         SIFSIX_7_Cd
_cell_length_a                         19.84204
_cell_length_b                         19.84204
_cell_length_c                         8.12321
_cell_angle_alpha                      90
_cell_angle_beta                       90
_cell_angle_gamma                      90
_symmetry_space_group_name_H-M         P 1
_symmetry_Int_Tables_number            1

loop_
_symmetry_equiv_pos_as_xyz
   x, y, z

loop_
   _atom_site_label
   _atom_site_fract_x
   _atom_site_fract_y
   _atom_site_fract_z
   _atom_site_charge
C	0.6512481036929552 0.8677679226468018 0.7050971149271573	0.098073
C	0.6014276961115838 0.9170416970254908 0.7071835809900380	-0.177620
C	0.5858998906471847 0.8994266761084895 0.4176597824444181	-0.170429
C	0.6362844716349424 0.8510241387482169 0.4242176423790330	0.091927
C	0.8487518963070448 0.6322320773531982 0.7050971149271573	0.098073
C	0.8985723538884133 0.5829583539745099 0.7071835809900380	-0.177628
C	0.9141000083528176 0.6005733748915041 0.4176597824444181	-0.170441
C	0.8637155283650576 0.6489758612517831 0.4242176423790330	0.091928
C	0.6322320773531982 0.6512481036929552 0.7050971149271573	0.098074
C	0.5829583539745099 0.6014276961115838 0.7071835809900380	-0.177628
C	0.6005733748915041 0.5858998906471847 0.4176597824444181	-0.170440
C	0.6489758612517831 0.6362844716349424 0.4242176423790330	0.091929
C	0.8677679226468018 0.8487518963070448 0.7050971149271573	0.098073
C	0.9170416970254908 0.8985723538884133 0.7071835809900380	-0.177620
C	0.8994266761084895 0.9141000083528176 0.4176597824444181	-0.170429
C	0.8510241387482169 0.8637155283650576 0.4242176423790330	0.091927
C	0.3487518713070469 0.3677678726467974 0.2949029150728454	0.098060
C	0.3985723038884160 0.4170416970254908 0.2928164490099647	-0.177618
C	0.4141001093528151 0.3994266251084959 0.5823402175555816	-0.170479
C	0.3637154773650637 0.3510241387482170 0.5757823876209690	0.091920
C	0.1512481286929531 0.1322321143532051 0.2949029150728454	0.098060
C	0.1014276961115838 0.0829583029745091 0.2928164490099647	-0.177619
C	0.0858998716471798 0.1005733748915043 0.5823402175555816	-0.170478
C	0.1362845226349361 0.1489758492517821 0.5757823876209690	0.091920
C	0.3677678726467974 0.1512481286929531 0.2949029150728454	0.098061
C	0.4170416970254908 0.1014276961115838 0.2928164490099647	-0.177619
C	0.3994266251084959 0.0858998716471798 0.5823402175555816	-0.170477
C	0.3510241387482170 0.1362845226349361 0.5757823876209690	0.091920
C	0.1322321143532051 0.3487518713070469 0.2949029150728454	0.098060
C	0.0829583029745091 0.3985723038884160 0.2928164490099647	-0.177618
C	0.1005733748915043 0.4141001093528151 0.5823402175555816	-0.170479
C	0.1489758492517821 0.3637154773650637 0.5757823876209690	0.091920
C	0.4342794232385398 0.0672576437352448 0.4384784686472366	0.139318
C	0.4859515324031730 0.0151139222971637 0.4338777900411119	-0.119082
C	0.0657205767614601 0.4327423492647584 0.4384784686472366	0.139329
C	0.0140484355968244 0.4848860137028382 0.4338777900411119	-0.119135
C	0.4327423492647584 0.4342794232385398 0.4384784686472366	0.139329
C	0.4848860137028382 0.4859515324031730 0.4338777900411119	-0.119135
C	0.0672576437352448 0.0657205767614600 0.4384784686472366	0.139318
C	0.0151139222971637 0.0140484355968244 0.4338777900411119	-0.119082
C	0.5657205767614596 0.5672576507352421 0.5615215313527634	0.139366
C	0.5140485185968205 0.5151139362971576 0.5661222389588876	-0.119038
C	0.9342793732385434 0.9327422992647537 0.5615215313527634	0.139308
C	0.9859515324031730 0.9848861147028430 0.5661222389588876	-0.119061
C	0.5672576507352421 0.9342793732385434 0.5615215313527634	0.139308
C	0.5151139362971576 0.9859515324031730 0.5661222389588876	-0.119061
C	0.9327422992647537 0.5657205767614596 0.5615215313527634	0.139366
C	0.9848861147028430 0.5140485185968205 0.5661222389588876	-0.119037
H	0.6771899591030273 0.8528888933740376 0.8180408022352941	0.107724
H	0.5891340413115524 0.9420416801024913 0.8228421416385410	0.114343
H	0.5611091074036533 0.9087570182881411 0.3002027153048841	0.115976
H	0.6518401917829334 0.8238797653499701 0.3135433500190440	0.107304
H	0.8228100408969727 0.6471111066259624 0.8180408022352941	0.107724
H	0.9108659586884476 0.5579583708975093 0.8228421416385410	0.114344
H	0.9388909435963474 0.5912430327118595 0.3002027153048840	0.115978
H	0.8481598082170666 0.6761202346500299 0.3135433500190440	0.107304
H	0.6471111066259624 0.6771899591030273 0.8180408022352941	0.107724
H	0.5579583708975093 0.5891340413115524 0.8228421416385410	0.114344
H	0.5912430327118595 0.5611091074036533 0.3002027153048840	0.115978
H	0.6761202346500299 0.6518401917829334 0.3135433500190440	0.107304
H	0.8528888933740376 0.8228100408969727 0.8180408022352941	0.107724
H	0.9420416801024913 0.9108659586884476 0.8228421416385410	0.114343
H	0.9087570182881411 0.9388909435963474 0.3002027153048841	0.115976
H	0.8238797653499701 0.8481598082170666 0.3135433500190440	0.107304
H	0.3228100668969753 0.3528888173740380 0.1819591827647081	0.107725
H	0.4108658826884410 0.4420416291024903 0.1771578143614552	0.114343
H	0.4388909435963479 0.4087570182881409 0.6997972546951204	0.115982
H	0.3481598332170718 0.3238797913499728 0.6864566499809558	0.107305
H	0.1771899461030223 0.1471112086259640 0.1819591827647081	0.107725
H	0.0891340923115533 0.0579583868975111 0.1771578143614552	0.114343
H	0.0611090504036519 0.0912430077118612 0.6997972546951204	0.115982
H	0.1518401917829336 0.1761201966500268 0.6864566499809558	0.107305
H	0.3528888173740380 0.1771899461030223 0.1819591827647081	0.107725
H	0.4420416291024903 0.0891340923115533 0.1771578143614552	0.114343
H	0.4087570182881409 0.0611090504036519 0.6997972546951204	0.115981
H	0.3238797913499728 0.1518401917829336 0.6864566499809558	0.107305
H	0.1471112086259640 0.3228100668969753 0.1819591827647081	0.107725
H	0.0579583868975111 0.4108658826884410 0.1771578143614552	0.114343
H	0.0912430077118612 0.4388909435963479 0.6997972546951204	0.115982
H	0.1761201966500268 0.3481598332170718 0.6864566499809558	0.107305
H	0.5026552668275546 0.0003799514294940 0.3107259297895353	0.099056
H	0.9973447841724461 0.4996200205705036 0.3107259297895353	0.099065
H	0.4996200205705036 0.5026552668275546 0.3107259297895353	0.099065
H	0.0003799514294940 0.9973447841724461 0.3107259297895353	0.099056
H	0.4973447331724459 0.5003799294294993 0.6892741002104594	0.099023
H	0.0026552578275570 0.9996200205705037 0.6892741002104594	0.099055
H	0.5003799294294993 0.0026552578275570 0.6892741002104594	0.099055
H	0.9996200205705037 0.4973447331724459 0.6892741002104594	0.099023
Cd	0.2500000000000000 0.2500000000000000 0.4331097330298551	0.825193
Cd	0.7500000000000000 0.7500000000000000 0.5668902669701447	0.825205
Si	0.2500000000000000 0.2500000000000000 0.9344590568346139	1.731312
Si	0.7500000000000000 0.7500000000000000 0.0655409281653887	1.731312
F	0.2500000000000000 0.2500000000000000 0.1505113711425847	-0.512990
F	0.2500000000000000 0.2500000000000000 0.7183573598836247	-0.512124
F	0.7500000000000000 0.7500000000000000 0.8494886588574172	-0.512991
F	0.7500000000000000 0.7500000000000000 0.2816426401163751	-0.512125
F	0.3148317879351054 0.3063611546992614 0.9349392947250423	-0.546477
F	0.1851682370648935 0.1936388703007373 0.9349392947250423	-0.546477
F	0.1936388703007373 0.3148317879351054 0.9349392947250423	-0.546477
F	0.3063611546992613 0.1851682370648935 0.9349392947250423	-0.546477
F	0.6851682370648935 0.8063611546992615 0.0650607052749572	-0.546477
F	0.8148317629351065 0.6936388453007385 0.0650607052749572	-0.546477
F	0.8063611546992615 0.8148317629351065 0.0650607052749572	-0.546477
F	0.6936388453007385 0.6851682370648935 0.0650607052749572	-0.546477
N	0.3353019973708117 0.1684276146075193 0.4343727727122952	-0.242910
N	0.1646980276291868 0.3315724103924790 0.4343727727122952	-0.242910
N	0.3315724103924790 0.3353019973708117 0.4343727727122952	-0.242910
N	0.1684276146075193 0.1646980276291868 0.4343727727122952	-0.242910
N	0.6646980026291885 0.6684275896075214 0.5656272272877042	-0.242965
N	0.8353019973708115 0.8315724103924786 0.5656272272877042	-0.242965
N	0.6684275896075214 0.8353019973708115 0.5656272272877042	-0.242964
N	0.8315724103924786 0.6646980026291885 0.5656272272877042	-0.242965
	  	
