#======================================================================

# CRYSTAL DATA

#----------------------------------------------------------------------

data_VESTA_phase_1


_pd_phase_name                         SIFSIX_18_Fe
_cell_length_a                         14.34851
_cell_length_b                         13.97143
_cell_length_c                         7.85676
_cell_angle_alpha                      90
_cell_angle_beta                       94.98550
_cell_angle_gamma                      90
_symmetry_space_group_name_H-M         P 1
_symmetry_Int_Tables_number            1

loop_
_symmetry_equiv_pos_as_xyz
   x, y, z

loop_
   _atom_site_label
   _atom_site_fract_x
   _atom_site_fract_y
   _atom_site_fract_z
   _atom_site_charge
F	0.4178714123013310 0.3870509246520635 0.5098591496152509	-0.538250
F	0.5208731546751666 0.4776204115060207 0.7254207529556864	-0.499636
F	0.4160357906067953 0.5590547049841567 0.5127443709946792	-0.502899
F	0.9178714463013272 0.8870508556520609 0.5098591496152509	-0.538249
F	0.0208731806751616 0.9776203765060208 0.7254207529556864	-0.499640
F	0.9160358246067982 0.0590546709841611 0.5127443709946792	-0.502899
F	0.5821285506986690 0.3870509246520635 0.4901408503847490	-0.538250
F	0.4791268423248364 0.4776204115060207 0.2745792470443137	-0.499635
F	0.5839642053932043 0.5590547049841567 0.4872556300053246	-0.502898
F	0.0821285716986675 0.8870508556520609 0.4901408503847490	-0.538249
F	0.9791267073248362 0.9776203765060208 0.2745792470443137	-0.499640
F	0.0839641803932058 0.0590546709841611 0.4872556300053246	-0.502899
C	0.6835684294170741 0.1492464821446649 0.6529243059958240	-0.425497
C	0.7553289172658412 0.1477088092146737 0.8011419801960841	0.207902
C	0.7601616638468913 0.1969862254998896 0.9568174718135057	-0.150596
C	0.6894768035706874 0.2610291042976166 0.0165343589933650	-0.148300
C	0.6751423288689520 0.3589955199619265 0.9739793239253239	0.221027
C	0.7314606714250306 0.4201450704746195 0.8658761249261056	-0.425616
C	0.8917430990017955 0.2112303808945673 0.2064839524099114	-0.435874
C	0.8482249475245567 0.1727651732125004 0.0415618438708580	0.220990
C	0.6218555649761001 0.2387918266748581 0.1287054049196723	0.202592
C	0.5975636157985564 0.1472472003812406 0.2114304592643645	-0.424958
C	0.1835684794170711 0.6492465341446620 0.6529243059958240	-0.425488
C	0.2553289512658439 0.6477087922146687 0.8011419801960841	0.207899
C	0.2601616298468883 0.6969861914998866 0.9568174718135057	-0.150600
C	0.1894768035706876 0.7610291212976144 0.0165343589933650	-0.148300
C	0.1751423118689471 0.8589955539619294 0.9739793239253239	0.221029
C	0.2314606874250249 0.9201450354746200 0.8658761249261056	-0.425618
C	0.3917429980017907 0.7112302948945676 0.2064839524099114	-0.435879
C	0.3482250155245548 0.6727651732125003 0.0415618438708580	0.221019
C	0.1218555399761016 0.7387917406748581 0.1287054049196723	0.202591
C	0.0975636997985563 0.6472472693812426 0.2114304592643645	-0.424958
C	0.3164315675829292 0.1492464821446649 0.3470756950041797	-0.425495
C	0.2446710757341547 0.1477088092146737 0.1988579398039165	0.207902
C	0.2398383651531077 0.1969862254998896 0.0431825041864997	-0.150598
C	0.3105231924293121 0.2610291042976166 0.9834656320066376	-0.148287
C	0.3248577371310531 0.3589955199619265 0.0260207270746770	0.221026
C	0.2685393435749743 0.4201450704746195 0.1341238910738957	-0.425615
C	0.1082569839982077 0.2112303808945673 0.7935160955900927	-0.435874
C	0.1517750314754455 0.1727651732125004 0.9584381441291410	0.220990
C	0.3781444660238990 0.2387918266748581 0.8712946190803222	0.202541
C	0.4024363102014445 0.1472472003812406 0.7885694617356405	-0.424906
C	0.8164315675829292 0.6492465341446620 0.3470756950041797	-0.425486
C	0.7446710757341547 0.6477087922146687 0.1988579398039165	0.207898
C	0.7398383311531118 0.6969861914998866 0.0431825041864997	-0.150602
C	0.8105231924293123 0.7610291212976144 0.9834656320066376	-0.148287
C	0.8248576701310515 0.8589955539619294 0.0260207270746770	0.221028
C	0.7685393265749693 0.9201450354746200 0.1341238910738957	-0.425617
C	0.6082568999982080 0.7112302948945676 0.7935160955900927	-0.435879
C	0.6517750484754430 0.6727651732125003 0.9584381441291411	0.221019
C	0.8781444320238961 0.7387917406748581 0.8712946190803222	0.202541
C	0.9024363772014465 0.6472472693812426 0.7885694617356405	-0.424907
H	0.7150442722264331 0.1709231756446867 0.5363623296255841	0.150952
H	0.6284191206296150 0.2008461421134690 0.6753960743605867	0.141683
H	0.6517148262020868 0.0782894337320443 0.6296470972023700	0.134304
H	0.6872758560683649 0.4613285317989108 0.7714059218385132	0.149664
H	0.7788630868320103 0.3753698411670848 0.7977022230585292	0.135703
H	0.7741539581921372 0.4707848139632559 0.9468219090925155	0.125388
H	0.8610374858329787 0.0636243887929652 0.6980487959923540	0.283635
H	0.9018383819088129 0.1562572720218688 0.3062297790688994	0.156751
H	0.8471783234644774 0.2680490282452913 0.2520008008591590	0.132516
H	0.9608631130612475 0.2418108595255658 0.1884304832550807	0.138457
H	0.5717483813347969 0.1601252753747182 0.3368452967221051	0.141560
H	0.6585921985287091 0.0999526849923643 0.2281587048860634	0.146953
H	0.5422135295504402 0.1089421150941554 0.1327926935232997	0.130038
H	0.5260883861176321 0.3347453585715713 0.2332001037827504	0.281691
H	0.2150443232264337 0.6709230726446893 0.5363623296255841	0.150962
H	0.1284192046296147 0.7008460731134670 0.6753960743605867	0.141689
H	0.1517148762020837 0.5782893737320388 0.6296470972023700	0.134282
H	0.1872758730683625 0.9613284637989054 0.7714059218385132	0.149662
H	0.2788631208320130 0.8753698751670879 0.7977022230585292	0.135705
H	0.2741539911921364 0.9707848139632557 0.9468219090925155	0.125388
H	0.3610374518329827 0.5636244317929648 0.6980487959923540	0.283633
H	0.4018384489088149 0.6562572380218659 0.3062297790688994	0.156752
H	0.3471782554644791 0.7680490632452910 0.2520008008591590	0.132516
H	0.4608631800612423 0.7418109105255593 0.1884304832550807	0.138458
H	0.0717483733347961 0.6601252923747158 0.3368452967221051	0.141560
H	0.1585921645287064 0.5999526419923640 0.2281587048860634	0.146953
H	0.0422135655504433 0.6089420630941584 0.1327926935232997	0.130037
H	0.0260883711176343 0.8347453585715714 0.2332001037827504	0.281691
H	0.2849556587735719 0.1709231756446867 0.4636377023744117	0.150951
H	0.3715807783703803 0.2008461421134690 0.3246039906394152	0.141680
H	0.3482851027979182 0.0782894337320443 0.3703529027976300	0.134299
H	0.3127241389316385 0.4613285317989108 0.2285940461614916	0.149662
H	0.2211369081679858 0.3753698411670848 0.2022977449414676	0.135702
H	0.2258460378078694 0.4707848139632559 0.0531780639074855	0.125386
H	0.1389625151670180 0.0636243887929652 0.3019511090076420	0.283635
H	0.0981615410911844 0.1562572720218688 0.6937702529311032	0.156752
H	0.1528217405355207 0.2680490282452913 0.7479991991408410	0.132515
H	0.0391368159387573 0.2418108595255658 0.8115695487449148	0.138458
H	0.4282516486652057 0.1601252753747182 0.6631547032778947	0.141559
H	0.3414078634712961 0.0999526849923643 0.7718412471139322	0.146951
H	0.4577864354495604 0.1089421150941554 0.8672073464767035	0.130007
H	0.4739115748823686 0.3347453585715713 0.7667998492172491	0.281688
H	0.7849557257735668 0.6709230726446893 0.4636377023744117	0.150961
H	0.8715808793703850 0.7008460731134670 0.3246039906394152	0.141686
H	0.8482851027979180 0.5782893737320388 0.3703529027976300	0.134277
H	0.8127241389316382 0.9613284637989054 0.2285940461614916	0.149660
H	0.7211369081679857 0.8753698751670879 0.2022977449414676	0.135704
H	0.7258460378078696 0.9707848139632557 0.0531780639074855	0.125387
H	0.6389625061670207 0.5636244317929648 0.3019511090076420	0.283633
H	0.5981616500911826 0.6562572380218659 0.6937702529311032	0.156752
H	0.6528216735355188 0.7680490632452910 0.7479991991408410	0.132515
H	0.5391368519387532 0.7418109105255593 0.8115695487449148	0.138459
H	0.9282515816652036 0.6601252923747158 0.6631547032778947	0.141559
H	0.8414077964712940 0.5999526419923640 0.7718412471139322	0.146951
H	0.9577864354495604 0.6089420630941584 0.8672073464767035	0.130006
H	0.9739115408823725 0.8347453585715714 0.7667998492172491	0.281688
N	0.8345527278302554 0.0959576176460781 0.8015056388327741	-0.144574
N	0.6031250259556151 0.3935433863755563 0.0541030229868428	-0.261873
N	0.8924574237284345 0.1104884805430817 0.9452801089035855	-0.267131
N	0.5726175337323807 0.3198055819782846 0.1460974252058899	-0.141329
N	0.3345527278302552 0.5959575406460823 0.8015056388327741	-0.144566
N	0.1031250929556171 0.8935433863755565 0.0541030229868428	-0.261878
N	0.3924574577284371 0.6104885315430821 0.9452801089035855	-0.267144
N	0.0726175257323797 0.8198055469782852 0.1460974252058899	-0.141329
N	0.1654472541697433 0.0959576176460781 0.1984944091672226	-0.144574
N	0.3968748680443834 0.3935433863755563 0.9458969530131554	-0.261873
N	0.1075425462715632 0.1104884805430817 0.0547198710964129	-0.267131
N	0.4273824632676230 0.3198055819782846 0.8539025907941113	-0.141314
N	0.6654472711697410 0.5959575406460823 0.1984944091672226	-0.144566
N	0.8968749690443880 0.8935433863755565 0.9458969530131554	-0.261878
N	0.6075425712715686 0.6104885315430821 0.0547198710964129	-0.267143
N	0.9273824972676183 0.8198055469782852 0.8539025907941113	-0.141314
Si	0.4999999979999998 0.4730908047571131 0.5000000000000000	1.702953
Si	0.0000000000000000 0.9730908047571127 0.5000000000000000	1.702955
Fe	0.5000000000000000 0.5081977252833907 0.0000000000000000	0.826493
Fe	0.0000000000000000 0.0081977322833950 0.0000000000000000	0.826535
	  	
