#======================================================================

# CRYSTAL DATA

#----------------------------------------------------------------------

data_VESTA_phase_1


_pd_phase_name                         SIFSIX_13_Cd_i
_cell_length_a                         15.78586
_cell_length_b                         15.77090
_cell_length_c                         7.64765
_cell_angle_alpha                      89.12732
_cell_angle_beta                       89.71134
_cell_angle_gamma                      82.89310
_symmetry_space_group_name_H-M         P 1
_symmetry_Int_Tables_number            1

loop_
_symmetry_equiv_pos_as_xyz
   x, y, z

loop_
   _atom_site_label
   _atom_site_fract_x
   _atom_site_fract_y
   _atom_site_fract_z
   _atom_site_charge
C	0.5379548600343640 0.6912962175359465 0.8418389771799709	0.112297
C	0.5438151471914079 0.7788190409959959 0.8435934385691196	-0.151862
C	0.4669314228147915 0.3156570901677991 0.8788053861743266	0.103914
C	0.4630853272893069 0.2279426504526021 0.8783341863864804	-0.146143
C	0.8097027957996392 0.9687806600990274 0.3645718118454703	0.106169
C	0.7220970287230437 0.9653733258405401 0.3601574529848289	-0.143219
C	0.3020548045511842 0.5480673800378516 0.8590507535712234	0.102939
C	0.2133543596221353 0.5515426348447184 0.8603821772190645	-0.150425
C	0.1947466988893601 0.9712859443200537 0.3536528031087210	0.095763
C	0.2828503628684386 0.9706960931336165 0.3506485883913869	-0.137298
C	0.6994625818177495 0.4485831360757587 0.9202494256183276	0.105430
C	0.7876239179325143 0.4470095522046007 0.9142648973720379	-0.142335
C	0.4521557825472780 0.7005004261007860 0.0906639559374235	0.105764
C	0.4514117626677213 0.7885777930152336 0.0964887268705143	-0.139226
C	0.5490635585816480 0.3043920690890123 0.1322024305790282	0.099935
C	0.5521159418307239 0.2156777406688608 0.1352659617651192	-0.151665
C	0.1854177301763114 0.0235007583685360 0.6373921908023541	0.106008
C	0.2729786393870795 0.0266378217481331 0.6436345023949829	-0.142180
C	0.6874691779299498 0.5429050787369484 0.1522052410384425	0.107840
C	0.7750303191903486 0.5479208641787501 0.1495079662293687	-0.150696
C	0.8007126318945945 0.0271779495921501 0.6429752461300291	0.094182
C	0.7125541161085801 0.0284146133608303 0.6469179139393806	-0.136251
C	0.3137296429169299 0.4602598461091615 0.1070624484766254	0.106200
C	0.2261873682798664 0.4566232397768326 0.1116927415609505	-0.147142
C	0.9662501059820268 0.8086575635620337 0.6314287811895187	0.105372
C	0.9636005369896343 0.7209116014471061 0.6377855017311481	-0.144524
C	0.9744920041132547 0.1919499024254053 0.6523374597434694	0.099110
C	0.9745950759769847 0.2799962533164854 0.6564439010853543	-0.137214
C	0.0257575513485132 0.8015506235408915 0.3519193627493822	0.098271
C	0.0276914695916930 0.7131980674519928 0.3496274000668869	-0.134745
C	0.0274193516613948 0.1858546068342619 0.3672717818789434	0.106247
C	0.0312659933124843 0.2734290974557823 0.3619473837703780	-0.143738
C	0.0031156994609441 0.3215495748411396 0.5084185956402818	0.041603
C	0.0024288166745421 0.4145193321227833 0.5062528037632160	0.254558
C	0.4994497685179271 0.8284180342608122 0.9727105515800781	0.054315
C	0.5025560171633960 0.9212412508877975 0.9856247339113450	0.245592
C	0.9961415781554089 0.6720728088507650 0.4952342522255092	0.035186
C	0.9983052010861336 0.5788391667110867 0.4994234431833215	0.249277
C	0.5071514384972341 0.1769429561739519 0.0080847354511831	0.055384
C	0.5056938504453344 0.0835677484312070 0.0085380086778939	0.250305
C	0.6724588804483310 0.9966094960906769 0.5033055824776671	0.035578
C	0.5795763506060029 0.9962240611042832 0.5034553570154634	0.247226
C	0.1748682066275325 0.5039621821263871 0.9869349852806886	0.054592
C	0.0815651463719875 0.5031691907300559 0.9925022043195617	0.247294
C	0.3227170108878172 0.9987126620417434 0.4984207971266699	0.042145
C	0.4156052532139501 0.9978746413078710 0.5012108568230298	0.254348
C	0.8261459006068811 0.4988545509932625 0.0291308151513291	0.053419
C	0.9190687433960645 0.5010053167477074 0.0181870820468114	0.248449
H	0.5678867226730039 0.6507510218368900 0.7385288764875727	0.110588
H	0.5816400593902926 0.8074221232404334 0.7443756861701138	0.121961
H	0.4377400763502518 0.3575372830410697 0.7746357469929993	0.109903
H	0.4285117108320310 0.1991607225324275 0.7765090619306915	0.120245
H	0.8503749796930562 0.9476271919383950 0.2536313023224862	0.109374
H	0.6930339353890022 0.9400163199185294 0.2464589574768453	0.119567
H	0.3359516618502749 0.5795479854470039 0.7567269751851219	0.116434
H	0.1754802836077116 0.5896341629476881 0.7619612199746849	0.121614
H	0.1605441492586063 0.9519969335551646 0.2400400348488091	0.110267
H	0.3191078538941635 0.9505864811186835 0.2337304780411552	0.109907
H	0.6660657772703339 0.4132922671514849 0.8266838901874007	0.105982
H	0.8254625990546034 0.4094879414572188 0.8167755361691507	0.111905
H	0.4201615350870953 0.6658437797295191 0.1905043878420240	0.111251
H	0.4178839950165634 0.8251683231977532 0.2007078834413863	0.111304
H	0.5782372176689585 0.3386077375772967 0.2346455102862196	0.115832
H	0.5875352474540503 0.1779054287392413 0.2375367799028285	0.121699
H	0.1446213477657018 0.0425132295088678 0.7493814682288320	0.108329
H	0.3020800537700881 0.0487044765904733 0.7605616211082339	0.119995
H	0.6456591107552340 0.5762248430623018 0.2502197663287366	0.113122
H	0.8027297780276847 0.5887072985852708 0.2415511055554872	0.122142
H	0.8350903290483674 0.0483307185162230 0.7545225012630021	0.111171
H	0.6764890417537834 0.0521438812114497 0.7615378902239507	0.112579
H	0.3555752183602900 0.4286909431080029 0.2078217373613185	0.104616
H	0.1975848883528860 0.4203468449481370 0.2136220142279872	0.118526
H	0.9446778880543997 0.8486379874046951 0.7421567814169892	0.108469
H	0.9382938700409510 0.6910026620916397 0.7527170082600141	0.119425
H	0.9545565626883379 0.1565289882656381 0.7658960786498702	0.109151
H	0.9544023408624167 0.3149237512836046 0.7742567666164073	0.112305
H	0.0474214917459939 0.8366742610189999 0.2395083923367826	0.109727
H	0.0522812562959153 0.6776995652729743 0.2353113368195136	0.114748
H	0.0461247801180250 0.1462853047024619 0.2543072270573664	0.108312
H	0.0539236910983156 0.3037863243347383 0.2447969696313225	0.119135
N	0.9449905493525432 0.5442231235148077 0.6112802036311930	-0.135798
N	0.4285739714118322 0.0546781538721585 0.0141532778208319	-0.151508
N	0.5324447084897785 0.0508004211788056 0.6112166449080647	-0.140553
N	0.9689030941336328 0.4251558981390030 0.0060385150410622	-0.146347
N	0.0546883122125744 0.5327226173542426 0.3933244636683998	-0.136411
N	0.5812021848659832 0.0330006470001992 0.0073126870622390	-0.147505
N	0.9482404469468824 0.5780435039407161 0.0132172573361033	-0.149149
N	0.5463667912035811 0.9409389747113031 0.3974740749526090	-0.136021
N	0.0571636473006926 0.4489378815583159 0.3976893719840186	-0.135803
N	0.5797552058282980 0.9497441739616724 -0.0084716689494428	-0.147040
N	0.4629199950262820 0.9414236391297188 0.3974246562714940	-0.128263
N	0.0315129968852935 0.5790837421386577 0.9961785727074035	-0.145352
N	0.9467322077298115 0.4606083134118110 0.6137268990102160	-0.129815
N	0.4272257678876560 0.9712685428660420 0.0052120577507251	-0.141797
N	0.0523436114704922 0.4261141125537362 0.9955036970712761	-0.150560
N	0.4488852281952876 0.0521060781577217 0.6091821833094436	-0.136189
N	-0.0008411704037667 0.1462236671259745 0.5095888848273592	-0.228981
N	0.4942360231599122 0.6529565394049649 0.9655019325446158	-0.225766
N	0.9968499370732116 0.8479683878083232 0.4911024997779943	-0.226942
N	0.5079349608020115 0.3530203693101829 0.0051146096792419	-0.234197
N	0.8480120243433108 -0.0010886785602396 0.5038042241572583	-0.228087
N	0.3509826981737481 0.5039451347270633 0.9816153913614696	-0.229093
N	0.1473342346369635 0.9961369171819660 0.4949679197610180	-0.229454
N	0.6504486816266456 0.4952256391168921 0.0371547524458842	-0.224866
Cd	-0.0022523744365937 0.9971673311107314 0.4996981517972665	0.826448
Cd	0.5011470025637178 0.5037560184298197 0.9982986647687101	0.826899
Si	-0.0018393387552325 0.9964286562172610 -0.0008392378050523	1.714396
Si	0.5011705390484524 0.5107162610018104 0.4971462931716502	1.726039
F	0.9743522788638429 0.0265858413100200 0.2121376233227163	-0.506262
F	0.5424937454653901 0.4880666863415667 0.7078601679756917	-0.516899
F	0.0216453205953595 0.9662626267529528 0.7860919176430381	-0.505487
F	0.4599180856212780 0.5327022936874938 0.2861859622469882	-0.514550
F	0.0683766555291190 0.0706584408797569 0.9846192638793474	-0.544465
F	0.5695784639014555 0.5861906151738596 0.4685885760927446	-0.544845
F	0.9279790565163791 0.9225608186599299 0.0136512919638896	-0.544629
F	0.4327243082489704 0.4361724694272634 0.5278446195563448	-0.557293
F	0.9177171356321158 0.0719774337359199 0.9294973585595547	-0.522347
F	0.4270450934376362 0.5881184738904738 0.5785506418240121	-0.545302
F	0.0789377360919483 0.9215819713412254 0.0682430869800241	-0.521342
F	0.5765449049146668 0.4352769111923547 0.4137357335130051	-0.550499
	  	
