#======================================================================

# CRYSTAL DATA

#----------------------------------------------------------------------

data_VESTA_phase_1


_pd_phase_name                         SIFSIX_5_Cd_i
_cell_length_a                         20.30026
_cell_length_b                         20.30026
_cell_length_c                         15.76179
_cell_angle_alpha                      90
_cell_angle_beta                       90
_cell_angle_gamma                      90
_symmetry_space_group_name_H-M         P 1
_symmetry_Int_Tables_number            1

loop_
_symmetry_equiv_pos_as_xyz
   x, y, z

loop_
   _atom_site_label
   _atom_site_fract_x
   _atom_site_fract_y
   _atom_site_fract_z
   _atom_site_charge
F	0.3146517618491356 0.1957713584422132 0.3510634732064852	-0.569173
F	0.1853482261508635 0.3042286415577868 0.3510634732064852	-0.569177
F	0.3042286415577868 0.3146517618491356 0.3510634732064852	-0.569176
F	0.1957713584422132 0.1853482261508635 0.3510634732064852	-0.569173
F	0.6853482621508594 0.6957713824422146 0.1489365267935149	-0.569174
F	0.8146517378491406 0.8042286175577854 0.1489365267935149	-0.569176
F	0.6957713824422146 0.8146517378491406 0.1489365267935149	-0.569176
F	0.8042286175577854 0.6853482621508594 0.1489365267935149	-0.569173
F	0.6853482621508594 0.8042286175577854 0.6489365587935176	-0.569177
F	0.8146517378491406 0.6957713824422146 0.6489365587935176	-0.569173
F	0.6957713824422146 0.6853482621508594 0.6489365587935176	-0.569174
F	0.8042286175577854 0.8146517378491406 0.6489365587935176	-0.569176
F	0.3146517618491356 0.3042286415577868 0.8510634412064824	-0.569176
F	0.1853482261508635 0.1957713584422132 0.8510634412064824	-0.569174
F	0.3042286415577868 0.1853482261508635 0.8510634412064824	-0.569174
F	0.1957713584422132 0.3146517618491356 0.8510634412064824	-0.569177
F	0.2500000000000000 0.2500000000000000 0.4605263899518972	-0.508957
F	0.2500000000000000 0.2500000000000000 0.2414504651379549	-0.509003
F	0.7500000000000000 0.7500000000000000 0.0394736370481014	-0.508957
F	0.7500000000000000 0.7500000000000000 0.2585495188620440	-0.509003
F	0.7500000000000000 0.7500000000000000 0.5394736410481018	-0.508955
F	0.7500000000000000 0.7500000000000000 0.7585495188620437	-0.509005
F	0.2500000000000000 0.2500000000000000 0.9605263589518982	-0.508955
F	0.2500000000000000 0.2500000000000000 0.7414504811379563	-0.509005
N	0.3645301107899953 0.2471995852727334 0.6013058010057550	-0.243116
N	0.1354698892100046 0.2528004147272667 0.6013058010057550	-0.243116
N	0.2528004147272667 0.3645301107899953 0.6013058010057550	-0.243117
N	0.2471995852727334 0.1354698892100046 0.6013058010057550	-0.243116
N	0.6354699132100067 0.7471995612727316 0.8986941989942450	-0.243116
N	0.8645300867899933 0.7528004387272684 0.8986941989942450	-0.243116
N	0.7471995612727316 0.8645300867899933 0.8986941989942450	-0.243117
N	0.7528004387272684 0.6354699132100067 0.8986941989942450	-0.243116
N	0.6354699132100067 0.7528004387272684 0.3986942299942443	-0.243114
N	0.8645300867899933 0.7471995612727316 0.3986942299942443	-0.243114
N	0.7471995612727316 0.6354699132100067 0.3986942299942443	-0.243114
N	0.7528004387272684 0.8645300867899933 0.3986942299942443	-0.243115
N	0.3645301107899954 0.2528004147272667 0.1013058010057548	-0.243114
N	0.1354698892100046 0.2471995852727334 0.1013058010057548	-0.243114
N	0.2528004147272667 0.1354698892100046 0.1013058010057548	-0.243114
N	0.2471995852727334 0.3645301107899954 0.1013058010057548	-0.243115
C	0.3967118070297053 0.2188055648860958 0.6663209463435601	0.104368
C	0.4650709660132872 0.2171186829748633 0.6699654973628280	-0.178521
C	0.5020775789240879 0.2471765412519439 0.6054446308796868	0.105256
C	0.4674688825285310 0.2769651922699122 0.5385005355670794	-0.179557
C	0.3990356742250222 0.2753715749823287 0.5381088589741165	0.103674
C	0.5745607192026156 0.2479180205282360 0.6084346345646686	0.053414
C	0.6099484240907891 0.1926943431181200 0.6371422376509183	-0.128893
C	0.6784061615259696 0.1934897988891705 0.6394538197440079	-0.127277
C	0.7137422160803594 0.2497886156557364 0.6146273844051072	0.069530
C	0.6783137999177333 0.3052529993448793 0.5871227767489544	-0.119516
C	0.6098851195559738 0.3041774625053337 0.5832633588338321	-0.125486
C	0.1032881689702998 0.2811944591139063 0.6663209463435601	0.104368
C	0.0349289739867150 0.2828813410251388 0.6699654973628280	-0.178523
C	-0.0020775999240859 0.2528234587480560 0.6054446308796868	0.105252
C	0.0325311444714677 0.2230348077300878 0.5385005355670794	-0.179553
C	0.1009642897749747 0.2246284490176733 0.5381088589741165	0.103672
C	0.9254392327973875 0.2520819554717619 0.6084346345646686	0.053421
C	0.8900516239092078 0.3073056918818795 0.6371422376509183	-0.128890
C	0.8215938384740304 0.3065102131108234 0.6394538197440079	-0.127276
C	0.7862577839196406 0.2502113603442616 0.6146273844051072	0.069527
C	0.8216862470822670 0.1947470006551207 0.5871227767489544	-0.119502
C	0.8901149764440270 0.1958225724946655 0.5832633588338321	-0.125514
C	0.2811944591139063 0.3967118070297053 0.6663209463435601	0.104369
C	0.2828813410251388 0.4650709660132872 0.6699654973628280	-0.178523
C	0.2528234587480560 0.5020775789240879 0.6054446308796868	0.105254
C	0.2230348077300878 0.4674688825285310 0.5385005355670794	-0.179555
C	0.2246284490176733 0.3990356742250222 0.5381088589741165	0.103675
C	0.2520819554717619 0.5745607192026156 0.6084346345646686	0.053420
C	0.3073056918818795 0.6099484240907891 0.6371422376509183	-0.128893
C	0.3065102131108234 0.6784061615259696 0.6394538197440079	-0.127277
C	0.2502113603442616 0.7137422160803594 0.6146273844051072	0.069527
C	0.1947470006551207 0.6783137999177333 0.5871227767489544	-0.119505
C	0.1958225724946655 0.6098851195559738 0.5832633588338321	-0.125516
C	0.2188055648860958 0.1032881689702998 0.6663209463435601	0.104368
C	0.2171186829748633 0.0349289739867150 0.6699654973628280	-0.178521
C	0.2471765412519439 -0.0020775999240859 0.6054446308796868	0.105255
C	0.2769651922699122 0.0325311444714677 0.5385005355670794	-0.179555
C	0.2753715749823287 0.1009642897749747 0.5381088589741165	0.103672
C	0.2479180205282360 0.9254392327973875 0.6084346345646686	0.053415
C	0.1926943431181200 0.8900516239092078 0.6371422376509183	-0.128890
C	0.1934897988891705 0.8215938384740304 0.6394538197440079	-0.127275
C	0.2497886156557364 0.7862577839196406 0.6146273844051072	0.069530
C	0.3052529993448793 0.8216862470822670 0.5871227767489544	-0.119513
C	0.3041774625053337 0.8901149764440270 0.5832633588338321	-0.125484
C	0.6032881689702999 0.7188056128860926 0.8336790536564399	0.104367
C	0.5349289859867162 0.7171187069748579 0.8300345026371720	-0.178519
C	0.4979224210759123 0.7471765892519409 0.8945553691203132	0.105253
C	0.5325312134714699 0.7769651442699081 0.9614994644329206	-0.179557
C	0.6009643497749727 0.7753715989823233 0.9618911410258835	0.103672
C	0.4254392807973845 0.7479180925282347 0.8915653654353314	0.053421
C	0.3900515759092109 0.6926943081181206 0.8628577623490817	-0.128890
C	0.3215937664740245 0.6934897628891743 0.8605461802559921	-0.127276
C	0.2862578319196444 0.7497886396557382 0.8853726155948928	0.069527
C	0.3216861520822624 0.8052529993448794 0.9128772232510456	-0.119504
C	0.3901149044440211 0.8041773915053314 0.9167366411661679	-0.125513
C	0.8967118310297001 0.7811943871139074 0.8336790536564399	0.104369
C	0.9650710140132838 0.7828812930251421 0.8300345026371720	-0.178525
C	0.0020776269240846 0.7528234107480591 0.8945553691203132	0.105255
C	0.9674688345285340 0.7230348557300919 0.9614994644329206	-0.179554
C	0.8990356502250273 0.7246284010176767 0.9618911410258835	0.103674
C	0.0745607552026114 0.7520819074717653 0.8915653654353314	0.053420
C	0.1099484120907880 0.8073056918818794 0.8628577623490817	-0.128891
C	0.1784062095259735 0.8065101891108288 0.8605461802559921	-0.127277
C	0.2137421680803557 0.7502113603442618 0.8853726155948928	0.069529
C	0.1783138239177355 0.6947470006551206 0.9128772232510456	-0.119505
C	0.1098850955559789 0.6958225614946683 0.9167366411661679	-0.125516
C	0.7188056128860926 0.8967118310297001 0.8336790536564399	0.104371
C	0.7171187069748579 0.9650710140132838 0.8300345026371720	-0.178521
C	0.7471765892519409 0.0020776269240846 0.8945553691203132	0.105253
C	0.7769651442699081 0.9674688345285340 0.9614994644329206	-0.179557
C	0.7753715989823233 0.8990356502250273 0.9618911410258835	0.103674
C	0.7479180925282347 0.0745607552026114 0.8915653654353314	0.053420
C	0.6926943081181206 0.1099484120907880 0.8628577623490817	-0.128892
C	0.6934897628891743 0.1784062095259735 0.8605461802559921	-0.127276
C	0.7497886396557382 0.2137421680803557 0.8853726155948928	0.069528
C	0.8052529993448794 0.1783138239177355 0.9128772232510456	-0.119504
C	0.8041773915053314 0.1098850955559789 0.9167366411661679	-0.125516
C	0.7811943871139074 0.6032881689702999 0.8336790536564399	0.104367
C	0.7828812930251421 0.5349289859867162 0.8300345026371720	-0.178523
C	0.7528234107480591 0.4979224210759123 0.8945553691203132	0.105254
C	0.7230348557300919 0.5325312134714699 0.9614994644329206	-0.179553
C	0.7246284010176767 0.6009643497749727 0.9618911410258835	0.103673
C	0.7520819074717653 0.4254392807973845 0.8915653654353314	0.053421
C	0.8073056918818794 0.3900515759092109 0.8628577623490817	-0.128889
C	0.8065101891108288 0.3215937664740245 0.8605461802559921	-0.127278
C	0.7502113603442618 0.2862578319196444 0.8853726155948928	0.069529
C	0.6947470006551206 0.3216861520822624 0.9128772232510456	-0.119505
C	0.6958225614946683 0.3901149044440211 0.9167366411661679	-0.125513
C	0.6032881689702999 0.7811943871139074 0.3336790846564385	0.104368
C	0.5349289859867162 0.7828812930251421 0.3300345026371722	-0.178522
C	0.4979224210759123 0.7528234107480591 0.3945553691203135	0.105253
C	0.5325312134714699 0.7230348557300919 0.4614994954329263	-0.179553
C	0.6009643497749727 0.7246284010176767 0.4618911410258836	0.103672
C	0.4254392807973845 0.7520819074717653 0.3915653654353314	0.053421
C	0.3900515759092109 0.8073056918818794 0.3628577313490826	-0.128889
C	0.3215937664740245 0.8065101891108288 0.3605462112559908	-0.127278
C	0.2862578319196444 0.7502113603442618 0.3853725215948920	0.069528
C	0.3216861520822624 0.6947470006551206 0.4128772542510445	-0.119503
C	0.3901149044440211 0.6958225614946683 0.4167366411661678	-0.125513
C	0.8967118310297001 0.7188056128860926 0.3336790846564385	0.104369
C	0.9650710140132838 0.7171187069748579 0.3300345026371722	-0.178520
C	0.0020776269240846 0.7471765892519409 0.3945553691203135	0.105256
C	0.9674688345285340 0.7769651442699081 0.4614994954329263	-0.179557
C	0.8990356502250273 0.7753715989823233 0.4618911410258836	0.103674
C	0.0745607552026114 0.7479180925282347 0.3915653654353314	0.053420
C	0.1099484120907880 0.6926943081181206 0.3628577313490826	-0.128892
C	0.1784062095259735 0.6934897628891743 0.3605462112559908	-0.127278
C	0.2137421680803557 0.7497886396557382 0.3853725215948920	0.069529
C	0.1783138239177355 0.8052529993448794 0.4128772542510445	-0.119506
C	0.1098850955559789 0.8041773915053314 0.4167366411661678	-0.125514
C	0.7188056128860926 0.6032881689702999 0.3336790846564385	0.104369
C	0.7171187069748579 0.5349289859867162 0.3300345026371722	-0.178520
C	0.7471765892519409 0.4979224210759123 0.3945553691203135	0.105254
C	0.7769651442699081 0.5325312134714699 0.4614994954329263	-0.179555
C	0.7753715989823233 0.6009643497749727 0.4618911410258836	0.103672
C	0.7479180925282347 0.4254392807973845 0.3915653654353314	0.053421
C	0.6926943081181206 0.3900515759092109 0.3628577313490826	-0.128888
C	0.6934897628891743 0.3215937664740245 0.3605462112559908	-0.127277
C	0.7497886396557382 0.2862578319196444 0.3853725215948920	0.069530
C	0.8052529993448794 0.3216861520822624 0.4128772542510445	-0.119504
C	0.8041773915053314 0.3901149044440211 0.4167366411661678	-0.125512
C	0.7811943871139074 0.8967118310297001 0.3336790846564385	0.104370
C	0.7828812930251421 0.9650710140132838 0.3300345026371722	-0.178523
C	0.7528234107480591 0.0020776269240846 0.3945553691203135	0.105254
C	0.7230348557300919 0.9674688345285340 0.4614994954329263	-0.179555
C	0.7246284010176767 0.8990356502250273 0.4618911410258836	0.103675
C	0.7520819074717653 0.0745607552026114 0.3915653654353314	0.053420
C	0.8073056918818794 0.1099484120907880 0.3628577313490826	-0.128892
C	0.8065101891108288 0.1784062095259735 0.3605462112559908	-0.127279
C	0.7502113603442618 0.2137421680803557 0.3853725215948920	0.069527
C	0.6947470006551206 0.1783138239177355 0.4128772542510445	-0.119505
C	0.6958225614946683 0.1098850955559789 0.4167366411661678	-0.125515
C	0.3967118070297053 0.2811944591139063 0.1663209313435628	0.104370
C	0.4650709660132872 0.2828813410251388 0.1699654663628288	-0.178524
C	0.5020775789240879 0.2528234587480560 0.1054446308796866	0.105255
C	0.4674688825285310 0.2230348077300878 0.0385005005670804	-0.179554
C	0.3990356742250222 0.2246284490176733 0.0381088509741158	0.103674
C	0.5745607192026156 0.2520819554717619 0.1084346265646678	0.053420
C	0.6099484240907891 0.3073056918818795 0.1371422376509184	-0.128891
C	0.6784061615259696 0.3065102131108234 0.1394537727440078	-0.127278
C	0.7137422160803594 0.2502113603442616 0.1146274554051096	0.069530
C	0.6783137999177333 0.1947470006551207 0.0871227607489531	-0.119505
C	0.6098851195559738 0.1958225724946655 0.0832633738338298	-0.125515
C	0.1032881689702998 0.2188055648860958 0.1663209313435628	0.104367
C	0.0349289739867150 0.2171186829748633 0.1699654663628288	-0.178519
C	-0.0020775999240859 0.2471765412519439 0.1054446308796866	0.105254
C	0.0325311444714677 0.2769651922699122 0.0385005005670804	-0.179556
C	0.1009642897749747 0.2753715749823287 0.0381088509741158	0.103672
C	0.9254392327973875 0.2479180205282360 0.1084346265646678	0.053415
C	0.8900516239092078 0.1926943431181200 0.1371422376509184	-0.128890
C	0.8215938384740304 0.1934897988891705 0.1394537727440078	-0.127277
C	0.7862577839196406 0.2497886156557364 0.1146274554051096	0.069529
C	0.8216862470822670 0.3052529993448793 0.0871227607489531	-0.119514
C	0.8901149764440270 0.3041774625053337 0.0832633738338298	-0.125483
C	0.2811944591139063 0.1032881689702998 0.1663209313435628	0.104367
C	0.2828813410251388 0.0349289739867150 0.1699654663628288	-0.178522
C	0.2528234587480560 -0.0020775999240859 0.1054446308796866	0.105255
C	0.2230348077300878 0.0325311444714677 0.0385005005670804	-0.179553
C	0.2246284490176733 0.1009642897749747 0.0381088509741158	0.103674
C	0.2520819554717619 0.9254392327973875 0.1084346265646678	0.053421
C	0.3073056918818795 0.8900516239092078 0.1371422376509184	-0.128889
C	0.3065102131108234 0.8215938384740304 0.1394537727440078	-0.127278
C	0.2502113603442616 0.7862577839196406 0.1146274554051096	0.069529
C	0.1947470006551207 0.8216862470822670 0.0871227607489531	-0.119505
C	0.1958225724946655 0.8901149764440270 0.0832633738338298	-0.125513
C	0.2188055648860958 0.3967118070297053 0.1663209313435628	0.104371
C	0.2171186829748633 0.4650709660132872 0.1699654663628288	-0.178520
C	0.2471765412519439 0.5020775789240879 0.1054446308796866	0.105255
C	0.2769651922699122 0.4674688825285310 0.0385005005670804	-0.179556
C	0.2753715749823287 0.3990356742250222 0.0381088509741158	0.103674
C	0.2479180205282360 0.5745607192026156 0.1084346265646678	0.053414
C	0.1926943431181200 0.6099484240907891 0.1371422376509184	-0.128892
C	0.1934897988891705 0.6784061615259696 0.1394537727440078	-0.127277
C	0.2497886156557364 0.7137422160803594 0.1146274554051096	0.069529
C	0.3052529993448793 0.6783137999177333 0.0871227607489531	-0.119514
C	0.3041774625053337 0.6098851195559738 0.0832633738338298	-0.125486
H	0.3663433695992122 0.1983072235392800 0.7171605963764967	0.105881
H	0.4891583986210959 0.1942154777225994 0.7242672195737079	0.113275
H	0.4935438753120232 0.3000956649622046 0.4858872882346059	0.113724
H	0.3704049976423676 0.2961578505910219 0.4858114555441942	0.105907
H	0.5834443724465782 0.1483457139709621 0.6563987927980864	0.099390
H	0.7052646932412516 0.1503873983936240 0.6620371143461862	0.101744
H	0.7050650380772694 0.3489250922133901 0.5661536129838370	0.101306
H	0.5834139947107051 0.3478354935955477 0.5615864844578449	0.103812
H	0.1336565944007851 0.3016928004607219 0.7171605963764967	0.105880
H	0.0108416073788974 0.3057845462774026 0.7242672195737079	0.113278
H	0.0064561136879794 0.1999043470377964 0.4858872882346059	0.113722
H	0.1295950263576343 0.2038421374089771 0.4858114555441942	0.105907
H	0.9165556745534221 0.3516542860290379 0.6563987927980864	0.099390
H	0.7947353067587484 0.3496125896063750 0.6620371143461862	0.101743
H	0.7949349619227306 0.1510749197866108 0.5661536129838370	0.101310
H	0.9165860052892949 0.1521644944044585 0.5615864844578449	0.103832
H	0.3016928004607219 0.3663433695992122 0.7171605963764967	0.105881
H	0.3057845462774026 0.4891583986210959 0.7242672195737079	0.113278
H	0.1999043470377964 0.4935438753120232 0.4858872882346059	0.113723
H	0.2038421374089771 0.3704049976423676 0.4858114555441942	0.105907
H	0.3516542860290379 0.5834443724465782 0.6563987927980864	0.099389
H	0.3496125896063750 0.7052646932412516 0.6620371143461862	0.101742
H	0.1510749197866108 0.7050650380772694 0.5661536129838370	0.101308
H	0.1521644944044585 0.5834139947107051 0.5615864844578449	0.103832
H	0.1983072235392800 0.1336565944007851 0.7171605963764967	0.105879
H	0.1942154777225994 0.0108416073788974 0.7242672195737079	0.113275
H	0.3000956649622046 0.0064561136879794 0.4858872882346059	0.113723
H	0.2961578505910219 0.1295950263576343 0.4858114555441942	0.105907
H	0.1483457139709621 0.9165556745534221 0.6563987927980864	0.099391
H	0.1503873983936240 0.7947353067587484 0.6620371143461862	0.101744
H	0.3489250922133901 0.7949349619227306 0.5661536129838370	0.101309
H	0.3478354935955477 0.9165860052892949 0.5615864844578449	0.103812
H	0.6336565824007837 0.6983072235392798 0.7828394036235033	0.105880
H	0.5108415533788999 0.6942154537225972 0.7757327804262921	0.113276
H	0.5064561246879767 0.8000956649622045 0.0141126967653894	0.113723
H	0.6295950023576320 0.7961578265910195 0.0141885724558081	0.105906
H	0.4165556275534221 0.6483457139709619 0.8436012072019136	0.099391
H	0.2947353307587507 0.6503874103936249 0.8379628856538138	0.101744
H	0.2949349619227306 0.8489250922133903 0.9338463870161630	0.101308
H	0.4165860532892914 0.8478355175955425 0.9384135155421551	0.103831
H	0.8663434655992132 0.8016928244607242 0.7828394036235033	0.105881
H	0.9891583506210992 0.8057845462774028 0.7757327804262921	0.113277
H	0.9935438273120264 0.6999043350377955 0.0141126967653894	0.113724
H	0.8704049016423672 0.7038421734089805 0.0141885724558081	0.105908
H	0.0834443724465780 0.8516542860290381 0.8436012072019136	0.099388
H	0.2052646692412492 0.8496125896063751 0.8379628856538138	0.101742
H	0.2050650380772695 0.6510749557866066 0.9338463870161630	0.101308
H	0.0834139887107049 0.6521644824044575 0.9384135155421551	0.103830
H	0.6983072235392798 0.8663434655992132 0.7828394036235033	0.105880
H	0.6942154537225972 0.9891583506210992 0.7757327804262921	0.113276
H	0.8000956649622045 0.9935438273120264 0.0141126967653894	0.113725
H	0.7961578265910195 0.8704049016423672 0.0141885724558081	0.105909
H	0.6483457139709619 0.0834443724465780 0.8436012072019136	0.099391
H	0.6503874103936249 0.2052646692412492 0.8379628856538138	0.101743
H	0.8489250922133903 0.2050650380772695 0.9338463870161630	0.101307
H	0.8478355175955425 0.0834139887107049 0.9384135155421551	0.103829
H	0.8016928244607242 0.6336565824007837 0.7828394036235033	0.105880
H	0.8057845462774028 0.5108415533788999 0.7757327804262921	0.113276
H	0.6999043350377955 0.5064561246879767 0.0141126967653894	0.113721
H	0.7038421734089805 0.6295950023576320 0.0141885724558081	0.105905
H	0.8516542860290381 0.4165556275534221 0.8436012072019136	0.099388
H	0.8496125896063751 0.2947353307587507 0.8379628856538138	0.101743
H	0.6510749557866066 0.2949349619227306 0.9338463870161630	0.101309
H	0.6521644824044575 0.4165860532892914 0.9384135155421551	0.103831
H	0.6336565824007837 0.8016928244607242 0.2828394356234986	0.105879
H	0.5108415533788999 0.8057845462774028 0.2757328114262909	0.113277
H	0.5064561246879767 0.6999043350377955 0.5141126807653953	0.113720
H	0.6295950023576320 0.7038421734089805 0.5141885444558058	0.105906
H	0.4165556275534221 0.8516542860290381 0.3436011762019146	0.099389
H	0.2947353307587507 0.8496125896063751 0.3379628536538116	0.101743
H	0.2949349619227306 0.6510749557866066 0.4338464180161619	0.101311
H	0.4165860532892914 0.6521644824044575 0.4384135775421534	0.103830
H	0.8663434655992132 0.6983072235392798 0.2828394356234986	0.105880
H	0.9891583506210992 0.6942154537225972 0.2757328114262909	0.113274
H	0.9935438273120264 0.8000956649622045 0.5141126807653953	0.113723
H	0.8704049016423672 0.7961578265910195 0.5141885444558058	0.105907
H	0.0834443724465780 0.6483457139709619 0.3436011762019146	0.099389
H	0.2052646692412492 0.6503874103936249 0.3379628536538116	0.101743
H	0.2050650380772695 0.8489250922133903 0.4338464180161619	0.101305
H	0.0834139887107049 0.8478355175955425 0.4384135775421534	0.103827
H	0.6983072235392798 0.6336565824007837 0.2828394356234986	0.105879
H	0.6942154537225972 0.5108415533788999 0.2757328114262909	0.113274
H	0.8000956649622045 0.5064561246879767 0.5141126807653953	0.113722
H	0.7961578265910195 0.6295950023576320 0.5141885444558058	0.105907
H	0.6483457139709619 0.4165556275534221 0.3436011762019146	0.099390
H	0.6503874103936249 0.2947353307587507 0.3379628536538116	0.101744
H	0.8489250922133903 0.2949349619227306 0.4338464180161619	0.101308
H	0.8478355175955425 0.4165860532892914 0.4384135775421534	0.103827
H	0.8016928244607242 0.8663434655992132 0.2828394356234986	0.105881
H	0.8057845462774028 0.9891583506210992 0.2757328114262909	0.113277
H	0.6999043350377955 0.9935438273120264 0.5141126807653953	0.113722
H	0.7038421734089805 0.8704049016423672 0.5141885444558058	0.105906
H	0.8516542860290381 0.0834443724465780 0.3436011762019146	0.099388
H	0.8496125896063751 0.2052646692412492 0.3379628536538116	0.101742
H	0.6510749557866066 0.2050650380772695 0.4338464180161619	0.101308
H	0.6521644824044575 0.0834139887107049 0.4384135775421534	0.103830
H	0.3663433695992122 0.3016928004607219 0.2171605963764970	0.105880
H	0.4891583986210959 0.3057845462774026 0.2242672345737129	0.113276
H	0.4935438753120232 0.1999043470377964 0.9858873502346108	0.113722
H	0.3704049976423676 0.2038421374089771 0.9858114245441952	0.105907
H	0.5834443724465782 0.3516542860290379 0.1563988077980842	0.099388
H	0.7052646932412516 0.3496125896063750 0.1620371613461862	0.101742
H	0.7050650380772694 0.1510749197866108 0.0661535739838375	0.101309
H	0.5834139947107051 0.1521644944044585 0.0615864454578450	0.103828
H	0.1336565944007851 0.1983072235392800 0.2171605963764970	0.105880
H	0.0108416073788974 0.1942154777225994 0.2242672345737129	0.113274
H	0.0064561136879794 0.3000956649622046 0.9858873502346108	0.113721
H	0.1295950263576343 0.2961578505910219 0.9858114245441952	0.105905
H	0.9165556745534221 0.1483457139709621 0.1563988077980842	0.099390
H	0.7947353067587484 0.1503873983936240 0.1620371613461862	0.101744
H	0.7949349619227306 0.3489250922133901 0.0661535739838375	0.101308
H	0.9165860052892949 0.3478354935955477 0.0615864454578450	0.103813
H	0.3016928004607219 0.1336565944007851 0.2171605963764970	0.105880
H	0.3057845462774026 0.0108416073788974 0.2242672345737129	0.113275
H	0.1999043470377964 0.0064561136879794 0.9858873502346108	0.113719
H	0.2038421374089771 0.1295950263576343 0.9858114245441952	0.105905
H	0.3516542860290379 0.9165556745534221 0.1563988077980842	0.099388
H	0.3496125896063750 0.7947353067587484 0.1620371613461862	0.101743
H	0.1510749197866108 0.7949349619227306 0.0661535739838375	0.101309
H	0.1521644944044585 0.9165860052892949 0.0615864454578450	0.103829
H	0.1983072235392800 0.3663433695992122 0.2171605963764970	0.105880
H	0.1942154777225994 0.4891583986210959 0.2242672345737129	0.113275
H	0.3000956649622046 0.4935438753120232 0.9858873502346108	0.113724
H	0.2961578505910219 0.3704049976423676 0.9858114245441952	0.105908
H	0.1483457139709621 0.5834443724465782 0.1563988077980842	0.099391
H	0.1503873983936240 0.7052646932412516 0.1620371613461862	0.101743
H	0.3489250922133901 0.7050650380772694 0.0661535739838375	0.101307
H	0.3478354935955477 0.5834139947107051 0.0615864454578450	0.103811
Cd	0.2500000000000000 0.2500000000000000 0.6007366097714876	0.825966
Cd	0.7500000000000000 0.7500000000000000 0.8992633902285124	0.825966
Cd	0.7500000000000000 0.7500000000000000 0.3992633282285140	0.825963
Cd	0.2500000000000000 0.2500000000000000 0.1007366327714863	0.825962
Si	0.2500000000000000 0.2500000000000000 0.3510571400914106	1.753010
Si	0.7500000000000000 0.7500000000000000 0.1489428749085871	1.753009
Si	0.7500000000000000 0.7500000000000000 0.6489429529085863	1.753009
Si	0.2500000000000000 0.2500000000000000 0.8510570470914137	1.753010
	  	
