#======================================================================

# CRYSTAL DATA

#----------------------------------------------------------------------

data_VESTA_phase_1


_pd_phase_name                         SIFSIX_16_Ni_i
_cell_length_a                         25.05825
_cell_length_b                         25.05825
_cell_length_c                         7.44712
_cell_angle_alpha                      90
_cell_angle_beta                       90
_cell_angle_gamma                      90
_symmetry_space_group_name_H-M         P 1
_symmetry_Int_Tables_number            1

loop_
_symmetry_equiv_pos_as_xyz
   x, y, z

loop_
   _atom_site_label
   _atom_site_fract_x
   _atom_site_fract_y
   _atom_site_fract_z
   _atom_site_charge
C	0.4773649975860844 0.3884170482676234 0.3640441345238442	0.101666
C	0.4762905465234703 0.3329985602198182 0.3594403576372878	-0.173107
C	0.9546052406199775 0.6133369779278341 0.9431451799798514	-0.127200
C	0.9548011293245410 0.5579442789837388 0.9437182241529565	-0.122669
C	0.5226350404139115 0.6115829897323726 0.3640441345238442	0.101671
C	0.5237094534765298 0.6670014777801779 0.3594403576372878	-0.173117
C	0.0453946833800235 0.3866629830721662 0.9431451799798514	-0.127200
C	0.0451988896754568 0.4420557590162643 0.9437182241529565	-0.122669
C	0.6115829897323726 0.4773649975860844 0.3640441345238442	0.101666
C	0.6670014777801779 0.4762905465234703 0.3594403576372878	-0.173107
C	0.3866629830721662 0.9546052406199775 0.9431451799798514	-0.127200
C	0.4420557590162643 0.9548011293245410 0.9437182241529565	-0.122669
C	0.3884170482676234 0.5226350404139115 0.3640441345238442	0.101670
C	0.3329985602198182 0.5237094534765298 0.3594403576372878	-0.173117
C	0.6133369779278341 0.0453946833800235 0.9431451799798514	-0.127200
C	0.5579442789837388 0.0451988896754568 0.9437182241529565	-0.122669
C	0.5226350404139115 0.3884170482676234 0.6359558654761559	0.101670
C	0.5237094534765298 0.3329985602198182 0.6405596103627096	-0.173117
C	0.0453946833800235 0.6133369779278341 0.0568548320201495	-0.127200
C	0.0451988896754568 0.5579442789837388 0.0562817518470417	-0.122669
C	0.4773649975860844 0.6115829897323726 0.6359558654761559	0.101666
C	0.4762905465234703 0.6670014777801779 0.6405596103627096	-0.173108
C	0.9546052406199775 0.3866629830721662 0.0568548320201495	-0.127200
C	0.9548011293245410 0.4420557590162643 0.0562817518470417	-0.122669
C	0.3884170482676234 0.4773649975860844 0.6359558654761559	0.101666
C	0.3329985602198182 0.4762905465234703 0.6405596103627096	-0.173107
C	0.6133369779278341 0.9546052406199775 0.0568548320201495	-0.127200
C	0.5579442789837388 0.9548011293245410 0.0562817518470417	-0.122670
C	0.6115829897323726 0.5226350404139115 0.6359558654761559	0.101670
C	0.6670014777801779 0.5237094534765298 0.6405596103627096	-0.173117
C	0.3866629830721662 0.0453946833800235 0.0568548320201495	-0.127200
C	0.4420557590162643 0.0451988896754568 0.0562817518470417	-0.122669
C	0.5453947213800264 0.8866629450721701 0.5568548520201442	-0.127199
C	0.5451988706754590 0.9420557590162644 0.5562817438470409	-0.122669
C	0.0226349944139149 0.1115829327323786 0.1359558654761558	0.101670
C	0.0237094514765295 0.1670014397801819 0.1405596263627109	-0.173116
C	0.4546053166199766 0.1133370259278311 0.5568548520201442	-0.127199
C	0.4548010913245453 0.0579442259837380 0.5562817438470409	-0.122669
C	0.9773649595860885 0.8884170102676274 0.1359558654761558	0.101670
C	0.9762905465234702 0.8329985602198181 0.1405596263627109	-0.173117
C	0.1133370259278311 0.5453947213800264 0.5568548520201442	-0.127199
C	0.0579442259837380 0.5451988706754590 0.5562817438470409	-0.122669
C	0.8884170102676274 0.0226349944139149 0.1359558654761558	0.101670
C	0.8329985602198181 0.0237094514765295 0.1405596263627109	-0.173117
C	0.8866629450721701 0.4546053166199766 0.5568548520201442	-0.127199
C	0.9420557590162644 0.4548010913245453 0.5562817438470409	-0.122669
C	0.1115829327323786 0.9773649595860885 0.1359558654761558	0.101670
C	0.1670014397801819 0.9762905465234702 0.1405596263627109	-0.173116
C	0.4546053166199766 0.8866629450721701 0.4431451799798516	-0.127200
C	0.4548010913245453 0.9420557590162644 0.4437182561529590	-0.122669
C	0.9773649595860885 0.1115829327323786 0.8640441665238396	0.101670
C	0.9762905465234702 0.1670014397801819 0.8594403576372878	-0.173116
C	0.5453947213800264 0.1133370259278311 0.4431451799798516	-0.127199
C	0.5451988706754590 0.0579442259837380 0.4437182561529590	-0.122669
C	0.0226349944139149 0.8884170102676274 0.8640441665238396	0.101670
C	0.0237094514765295 0.8329985602198181 0.8594403576372878	-0.173117
C	0.8866629450721701 0.5453947213800264 0.4431451799798516	-0.127200
C	0.9420557590162644 0.5451988706754590 0.4437182561529590	-0.122669
C	0.1115829327323786 0.0226349944139149 0.8640441665238396	0.101670
C	0.1670014397801819 0.0237094514765295 0.8594403576372878	-0.173116
C	0.1133370259278311 0.4546053166199766 0.4431451799798516	-0.127200
C	0.0579442259837380 0.4548010913245453 0.4437182561529590	-0.122669
C	0.8884170102676274 0.9773649595860885 0.8640441665238396	0.101670
C	0.8329985602198181 0.9762905465234702 0.8594403576372878	-0.173117
C	0.5000000000000000 0.3038860973680431 0.5000000000000000	0.174149
C	0.5000000000000000 0.2472693874099696 0.5000000000000000	-0.116245
C	0.5000000000000000 0.1985813572671920 0.5000000000000000	-0.097172
C	0.5000000000000000 0.1420236407223306 0.5000000000000000	0.125166
C	0.5000000000000000 0.0293226363158248 0.5000000000000000	0.065479
C	0.0000000000000000 0.8038860783680380 -0.0000000000000000	0.174151
C	0.0000000000000000 0.7472693674099681 -0.0000000000000000	-0.116246
C	0.0000000000000000 0.6985813192671959 -0.0000000000000000	-0.097172
C	0.0000000000000000 0.6420236027223273 -0.0000000000000000	0.125166
C	0.0000000000000000 0.5293226503158260 -0.0000000000000000	0.065479
C	0.5000000000000000 0.6961138836319588 0.5000000000000000	0.174149
C	0.5000000000000000 0.7527306705900280 0.5000000000000000	-0.116245
C	0.5000000000000000 0.8014186427328081 0.5000000000000000	-0.097172
C	0.5000000000000000 0.8579763592776696 0.5000000000000000	0.125166
C	0.5000000000000000 0.9706773496841740 0.5000000000000000	0.065479
C	0.0000000000000000 0.1961139026319567 -0.0000000000000000	0.174151
C	0.0000000000000000 0.2527306125900303 -0.0000000000000000	-0.116246
C	0.0000000000000000 0.3014186227328063 -0.0000000000000000	-0.097172
C	0.0000000000000000 0.3579763592776695 -0.0000000000000000	0.125166
C	0.0000000000000000 0.4706773876841772 -0.0000000000000000	0.065479
C	0.6961138836319588 0.5000000000000000 0.5000000000000000	0.174149
C	0.7527306705900280 0.5000000000000000 0.5000000000000000	-0.116245
C	0.8014186427328081 0.5000000000000000 0.5000000000000000	-0.097172
C	0.8579763592776696 0.5000000000000000 0.5000000000000000	0.125166
C	0.9706773496841740 0.5000000000000000 0.5000000000000000	0.065479
C	0.1961139026319567 0.0000000000000000 -0.0000000000000000	0.174151
C	0.2527306125900303 0.0000000000000000 -0.0000000000000000	-0.116246
C	0.3014186227328063 0.0000000000000000 -0.0000000000000000	-0.097172
C	0.3579763592776695 0.0000000000000000 -0.0000000000000000	0.125166
C	0.4706773876841772 0.0000000000000000 -0.0000000000000000	0.065479
C	0.3038860973680431 0.5000000000000000 0.5000000000000000	0.174149
C	0.2472693874099696 0.5000000000000000 0.5000000000000000	-0.116245
C	0.1985813572671920 0.5000000000000000 0.5000000000000000	-0.097172
C	0.1420236407223306 0.5000000000000000 0.5000000000000000	0.125166
C	0.0293226363158248 0.5000000000000000 0.5000000000000000	0.065479
C	0.8038860783680380 0.0000000000000000 -0.0000000000000000	0.174151
C	0.7472693674099681 0.0000000000000000 -0.0000000000000000	-0.116246
C	0.6985813192671959 0.0000000000000000 -0.0000000000000000	-0.097172
C	0.6420236027223273 0.0000000000000000 -0.0000000000000000	0.125166
C	0.5293226503158260 0.0000000000000000 -0.0000000000000000	0.065479
H	0.4603199344123595 0.4116777686532077 0.2542403085734005	0.105859
H	0.4575135153132127 0.3124099419316366 0.2473543499902132	0.124376
H	0.9195356001639841 0.6351198514574574 0.8973494682703090	0.111375
H	0.9199163886875696 0.5362469393682631 0.8952583985723530	0.105940
H	0.5396800655876404 0.5883222313467924 0.2542403085734005	0.105859
H	0.5424865226867905 0.6875901340683624 0.2473543499902132	0.124382
H	0.0804643808360181 0.3648801485425426 0.8973494682703090	0.111375
H	0.0800836403124293 0.4637530996317367 0.8952583985723530	0.105940
H	0.5883222313467924 0.4603199344123595 0.2542403085734005	0.105859
H	0.6875901340683624 0.4575135153132127 0.2473543499902132	0.124376
H	0.3648801485425426 0.9195356001639841 0.8973494682703090	0.111375
H	0.4637530996317367 0.9199163886875696 0.8952583985723530	0.105940
H	0.4116777686532077 0.5396800655876404 0.2542403085734005	0.105859
H	0.3124099419316366 0.5424865226867905 0.2473543499902132	0.124382
H	0.6351198514574574 0.0804643808360181 0.8973494682703090	0.111375
H	0.5362469393682631 0.0800836403124293 0.8952583985723530	0.105940
H	0.5396800655876404 0.4116777686532077 0.7457596754265979	0.105859
H	0.5424865226867905 0.3124099419316366 0.7526456500097866	0.124382
H	0.0804643808360181 0.6351198514574574 0.1026505077296890	0.111375
H	0.0800836403124293 0.5362469393682631 0.1047416014276472	0.105940
H	0.4603199344123595 0.5883222313467924 0.7457596754265979	0.105859
H	0.4575135153132127 0.6875901340683624 0.7526456500097866	0.124376
H	0.9195356001639841 0.3648801485425426 0.1026505077296890	0.111374
H	0.9199163886875696 0.4637530996317367 0.1047416014276472	0.105940
H	0.4116777686532077 0.4603199344123595 0.7457596754265979	0.105859
H	0.3124099419316366 0.4575135153132127 0.7526456500097866	0.124376
H	0.6351198514574574 0.9195356001639841 0.1026505077296890	0.111374
H	0.5362469393682631 0.9199163886875696 0.1047416014276472	0.105940
H	0.5883222313467924 0.5396800655876404 0.7457596754265979	0.105859
H	0.6875901340683624 0.5424865226867905 0.7526456500097866	0.124382
H	0.3648801485425426 0.0804643808360181 0.1026505077296890	0.111375
H	0.4637530996317367 0.0800836403124293 0.1047416014276472	0.105940
H	0.5804643998360159 0.8648801485425426 0.6026504997296883	0.111373
H	0.5800836113124304 0.9637530996317366 0.6047416334276496	0.105940
H	0.0396800755876413 0.0883222023467935 0.2457596914265995	0.105859
H	0.0424865276867873 0.1875900770683614 0.2526456820097823	0.124381
H	0.4195356381639871 0.1351198804574563 0.6026504997296883	0.111373
H	0.4199163496875698 0.0362469243682582 0.6047416334276496	0.105939
H	0.9603199344123596 0.9116778456532033 0.2457596914265995	0.105859
H	0.9575134773132095 0.8124099799316399 0.2526456820097823	0.124381
H	0.1351198804574563 0.5804643998360159 0.6026504997296883	0.111373
H	0.0362469243682582 0.5800836113124304 0.6047416334276496	0.105940
H	0.9116778456532033 0.0396800755876413 0.2457596914265995	0.105859
H	0.8124099799316399 0.0424865276867873 0.2526456820097823	0.124381
H	0.8648801485425426 0.4195356381639871 0.6026504997296883	0.111373
H	0.9637530996317366 0.4199163496875698 0.6047416334276496	0.105939
H	0.0883222023467935 0.9603199344123596 0.2457596914265995	0.105859
H	0.1875900770683614 0.9575134773132095 0.2526456820097823	0.124381
H	0.4195356381639871 0.8648801485425426 0.3973494682703091	0.111374
H	0.4199163496875698 0.9637530996317366 0.3952584305723484	0.105940
H	0.9603199344123596 0.0883222023467935 0.7542402925733994	0.105859
H	0.9575134773132095 0.1875900770683614 0.7473543179902179	0.124381
H	0.5804643998360159 0.1351198804574563 0.3973494682703091	0.111374
H	0.5800836113124304 0.0362469243682582 0.3952584305723484	0.105940
H	0.0396800755876413 0.9116778456532033 0.7542402925733994	0.105859
H	0.0424865276867873 0.8124099799316399 0.7473543179902179	0.124381
H	0.8648801485425426 0.5804643998360159 0.3973494682703091	0.111374
H	0.9637530996317366 0.5800836113124304 0.3952584305723484	0.105940
H	0.0883222023467935 0.0396800755876413 0.7542402925733994	0.105859
H	0.1875900770683614 0.0424865276867873 0.7473543179902179	0.124381
H	0.1351198804574563 0.4195356381639871 0.3973494682703091	0.111374
H	0.0362469243682582 0.4199163496875698 0.3952584305723484	0.105940
H	0.9116778456532033 0.9603199344123596 0.7542402925733994	0.105859
H	0.8124099799316399 0.9575134773132095 0.7473543179902179	0.124381
Ni	0.5000000000000000 0.5000000000000000 0.5000000000000000	0.760278
Ni	0.0000000000000000 0.0000000000000000 -0.0000000000000000	0.760262
Si	0.5000000000000000 0.5000000000000000 -0.0000000000000000	1.734629
Si	0.0000000000000000 0.0000000000000000 0.5000000000000000	1.734628
F	0.5000000000000000 0.5000000000000000 0.2328702639808735	-0.497935
F	0.0000000000000000 0.0000000000000000 0.7328702319808780	-0.497934
F	0.5000000000000000 0.5000000000000000 0.7671296720191283	-0.497935
F	0.0000000000000000 0.0000000000000000 0.2671297360191264	-0.497934
F	0.5481787136357041 0.5481787136357041 -0.0000000000000000	-0.537782
F	0.0481786666357038 0.0481786666357038 0.5000000000000000	-0.537782
F	0.4518213623643021 0.4518213623643021 -0.0000000000000000	-0.537782
F	0.9518213243642990 0.9518213243642990 0.5000000000000000	-0.537782
F	0.4518213623643021 0.5481787136357041 -0.0000000000000000	-0.537782
F	0.9518213243642990 0.0481786666357038 0.5000000000000000	-0.537782
F	0.5481787136357041 0.4518213623643021 -0.0000000000000000	-0.537782
F	0.0481786666357038 0.9518213243642990 0.5000000000000000	-0.537782
N	0.5000000000000000 0.4158895041899455 0.5000000000000000	-0.240833
N	0.0000000000000000 0.9158895421899488 -0.0000000000000000	-0.240833
N	0.5000000000000000 0.5841104958100544 0.5000000000000000	-0.240833
N	0.0000000000000000 0.0841105048100516 -0.0000000000000000	-0.240828
N	0.5841104958100544 0.5000000000000000 0.5000000000000000	-0.240833
N	0.0841105048100516 0.0000000000000000 -0.0000000000000000	-0.240828
N	0.4158895041899455 0.5000000000000000 0.5000000000000000	-0.240833
N	0.9158895421899488 0.0000000000000000 -0.0000000000000000	-0.240833
	  	
