#======================================================================

# CRYSTAL DATA

#----------------------------------------------------------------------

data_VESTA_phase_1


_pd_phase_name                         SIFSIX_6_Co_i
_cell_length_a                         17.42893
_cell_length_b                         17.42893
_cell_length_c                         15.42214
_cell_angle_alpha                      90
_cell_angle_beta                       90
_cell_angle_gamma                      90
_symmetry_space_group_name_H-M         P 1
_symmetry_Int_Tables_number            1

loop_
_symmetry_equiv_pos_as_xyz
   x, y, z

loop_
   _atom_site_label
   _atom_site_fract_x
   _atom_site_fract_y
   _atom_site_fract_z
   _atom_site_charge
N	0.2439686013358925 0.1377769019578125 0.1280829295170211	-0.195653
N	0.2560313986641076 0.3622231120421887 0.1280829295170211	-0.195652
N	0.3622231120421887 0.2439686013358925 0.1280829295170211	-0.195652
N	0.1377769019578125 0.2560313986641076 0.1280829295170211	-0.195652
N	0.7560313716641087 0.6377769149578171 0.3719170554829813	-0.195651
N	0.7439686283358913 0.8622230850421829 0.3719170554829813	-0.195650
N	0.6377769149578171 0.7439686283358913 0.3719170554829813	-0.195650
N	0.8622230850421829 0.7560313716641087 0.3719170554829813	-0.195650
N	0.7560313716641087 0.8622230850421829 0.8719170554829814	-0.195650
N	0.7439686283358913 0.6377769149578171 0.8719170554829814	-0.195652
N	0.6377769149578171 0.7560313716641087 0.8719170554829814	-0.195650
N	0.8622230850421829 0.7439686283358913 0.8719170554829814	-0.195650
N	0.2439686013358925 0.3622231120421887 0.6280829445170186	-0.195652
N	0.2560313986641076 0.1377769019578125 0.6280829445170186	-0.195654
N	0.3622231120421887 0.2560313986641076 0.6280829445170186	-0.195653
N	0.1377769019578125 0.2439686013358925 0.6280829445170186	-0.195652
C	0.2008617422326935 0.1008276858822772 0.1877265190750396	0.096051
C	0.1922660487226455 0.0217480905057672 0.1866036848738432	-0.178989
C	0.2320888603703671 0.9778766785854669 0.1251679100229637	0.110206
C	0.2784557609020736 0.0170403902050826 0.0655742085045991	-0.176210
C	0.2817283273587342 0.0965376051459297 0.0674120969859908	0.097073
C	0.2260234206345257 0.8936521659350544 0.1238071441623476	0.059963
C	0.2915820358717130 0.8488348342042970 0.1208514580497425	-0.171341
C	0.2870462565297895 0.7679207540401638 0.1220051590161612	0.084519
C	0.1464857713454358 0.7790575716816944 0.1246405073873929	-0.122501
C	0.1528498916423908 0.8576910354633831 0.1268208296073146	-0.136264
C	0.2991382177673102 0.3991723271177202 0.1877265190750396	0.096049
C	0.3077339112773513 0.4782518904942348 0.1866036848738432	-0.178988
C	0.2679111396296330 0.5221233214145331 0.1251679100229637	0.110208
C	0.2215442520979236 0.4829596067949137 0.0655742085045991	-0.176211
C	0.2182716866412671 0.4034624018540744 0.0674120969859908	0.097070
C	0.2739765793654744 0.6063478340649456 0.1238071441623476	0.059963
C	0.2084180051282868 0.6511651657957030 0.1208514580497425	-0.171340
C	0.2129537164702120 0.7320792459598362 0.1220051590161612	0.084520
C	0.3535142146545632 0.7209424283183056 0.1246405073873929	-0.122501
C	0.3471501083576091 0.6423089645366169 0.1268208296073146	-0.136263
C	0.3991723271177202 0.2008617422326935 0.1877265190750396	0.096049
C	0.4782518904942348 0.1922660487226455 0.1866036848738432	-0.178989
C	0.5221233214145331 0.2320888603703671 0.1251679100229637	0.110206
C	0.4829596067949137 0.2784557609020736 0.0655742085045991	-0.176209
C	0.4034624018540744 0.2817283273587342 0.0674120969859908	0.097070
C	0.6063478340649456 0.2260234206345257 0.1238071441623476	0.059963
C	0.6511651657957030 0.2915820358717130 0.1208514580497425	-0.171340
C	0.7320792459598362 0.2870462565297895 0.1220051590161612	0.084519
C	0.7209424283183056 0.1464857713454358 0.1246405073873929	-0.122501
C	0.6423089645366169 0.1528498916423908 0.1268208296073146	-0.136263
C	0.1008276858822772 0.2991382177673102 0.1877265190750396	0.096049
C	0.0217480905057672 0.3077339112773513 0.1866036848738432	-0.178988
C	0.9778766785854669 0.2679111396296330 0.1251679100229637	0.110207
C	0.0170403902050826 0.2215442520979236 0.0655742085045991	-0.176211
C	0.0965376051459297 0.2182716866412671 0.0674120969859908	0.097071
C	0.8936521659350544 0.2739765793654744 0.1238071441623476	0.059963
C	0.8488348342042970 0.2084180051282868 0.1208514580497425	-0.171341
C	0.7679207540401638 0.2129537164702120 0.1220051590161612	0.084520
C	0.7790575716816944 0.3535142146545632 0.1246405073873929	-0.122501
C	0.8576910354633831 0.3471501083576091 0.1268208296073146	-0.136264
C	0.7991382707673037 0.6008276728822798 0.3122734969249618	0.096051
C	0.8077339642773519 0.5217480555057609 0.3133962841261580	-0.178989
C	0.7679111396296333 0.4778766785854666 0.3748320579770334	0.110206
C	0.7215442120979273 0.5170404472050841 0.4344257954954013	-0.176210
C	0.7182716466412640 0.5965376521459298 0.4325879430140053	0.097059
C	0.7739766593654738 0.3936522189350549 0.3761928478376517	0.059963
C	0.7084179911282855 0.3488347812042958 0.3791485339502570	-0.171339
C	0.7129537434702108 0.2679206740401641 0.3779948409838388	0.084519
C	0.8535142416545690 0.2790575446816960 0.3753594766126058	-0.122490
C	0.8471500553576080 0.3576910094633809 0.3731792023926880	-0.136266
C	0.7008617292326963 0.8991723271177202 0.3122734969249618	0.096049
C	0.6922660357226481 0.9782518904942347 0.3133962841261580	-0.178989
C	0.7320888603703667 0.0221233274145340 0.3748320579770334	0.110208
C	0.7784557879020727 0.9829596067949132 0.4344257954954013	-0.176209
C	0.7817283533587360 0.9034624548540755 0.4325879430140053	0.097058
C	0.7260233406345262 0.1063478080649437 0.3761928478376517	0.059963
C	0.7915820088717145 0.1511652057956996 0.3791485339502570	-0.171339
C	0.7870462565297892 0.2320792989598371 0.3779948409838388	0.084519
C	0.6464857583454310 0.2209424423183066 0.3753594766126058	-0.122500
C	0.6528499446423920 0.1423089645366170 0.3731792023926880	-0.136262
C	0.6008276728822798 0.7008617292326963 0.3122734969249618	0.096050
C	0.5217480555057609 0.6922660357226481 0.3133962841261580	-0.178990
C	0.4778766785854666 0.7320888603703667 0.3748320579770334	0.110208
C	0.5170404472050841 0.7784557879020727 0.4344257954954013	-0.176208
C	0.5965376521459298 0.7817283533587360 0.4325879430140053	0.097058
C	0.3936522189350549 0.7260233406345262 0.3761928478376517	0.059962
C	0.3488347812042958 0.7915820088717145 0.3791485339502570	-0.171339
C	0.2679206740401641 0.7870462565297892 0.3779948409838388	0.084518
C	0.2790575446816960 0.6464857583454310 0.3753594766126058	-0.122500
C	0.3576910094633809 0.6528499446423920 0.3731792023926880	-0.136264
C	0.8991723271177202 0.7991382707673037 0.3122734969249618	0.096048
C	0.9782518904942347 0.8077339642773519 0.3133962841261580	-0.178987
C	0.0221233274145340 0.7679111396296333 0.3748320579770334	0.110206
C	0.9829596067949132 0.7215442120979273 0.4344257954954013	-0.176210
C	0.9034624548540755 0.7182716466412640 0.4325879430140053	0.097058
C	0.1063478080649437 0.7739766593654738 0.3761928478376517	0.059964
C	0.1511652057956996 0.7084179911282855 0.3791485339502570	-0.171340
C	0.2320792989598371 0.7129537434702108 0.3779948409838388	0.084520
C	0.2209424423183066 0.8535142416545690 0.3753594766126058	-0.122489
C	0.1423089645366170 0.8471500553576080 0.3731792023926880	-0.136265
C	0.7991382707673037 0.8991723271177202 0.8122734649249588	0.096049
C	0.8077339642773519 0.9782518904942347 0.8133963471261594	-0.178988
C	0.7679111396296333 0.0221233274145340 0.8748321219770319	0.110207
C	0.7215442120979273 0.9829596067949132 0.9344257644954022	-0.176210
C	0.7182716466412640 0.9034624548540755 0.9325879110140032	0.097058
C	0.7739766593654738 0.1063478080649437 0.8761928478376518	0.059960
C	0.7084179911282855 0.1511652057956996 0.8791485659502595	-0.171338
C	0.7129537434702108 0.2320792989598371 0.8779948729838344	0.084515
C	0.8535142416545690 0.2209424423183066 0.8753595396126074	-0.122516
C	0.8471500553576080 0.1423089645366170 0.8731792343926833	-0.136257
C	0.7008617292326963 0.6008276728822798 0.8122734649249588	0.096050
C	0.6922660357226481 0.5217480555057609 0.8133963471261594	-0.178989
C	0.7320888603703667 0.4778766785854666 0.8748321219770319	0.110206
C	0.7784557879020727 0.5170404472050841 0.9344257644954022	-0.176209
C	0.7817283533587360 0.5965376521459298 0.9325879110140032	0.097059
C	0.7260233406345262 0.3936522189350549 0.8761928478376518	0.059960
C	0.7915820088717145 0.3488347812042958 0.8791485659502595	-0.171339
C	0.7870462565297892 0.2679206740401641 0.8779948729838344	0.084517
C	0.6464857583454310 0.2790575446816960 0.8753595396126074	-0.122520
C	0.6528499446423920 0.3576910094633809 0.8731792343926833	-0.136256
C	0.6008276728822798 0.7991382707673037 0.8122734649249588	0.096049
C	0.5217480555057609 0.8077339642773519 0.8133963471261594	-0.178988
C	0.4778766785854666 0.7679111396296333 0.8748321219770319	0.110207
C	0.5170404472050841 0.7215442120979273 0.9344257644954022	-0.176210
C	0.5965376521459298 0.7182716466412640 0.9325879110140032	0.097058
C	0.3936522189350549 0.7739766593654738 0.8761928478376518	0.059960
C	0.3488347812042958 0.7084179911282855 0.8791485659502595	-0.171339
C	0.2679206740401641 0.7129537434702108 0.8779948729838344	0.084516
C	0.2790575446816960 0.8535142416545690 0.8753595396126074	-0.122516
C	0.3576910094633809 0.8471500553576080 0.8731792343926833	-0.136258
C	0.8991723271177202 0.7008617292326963 0.8122734649249588	0.096049
C	0.9782518904942347 0.6922660357226481 0.8133963471261594	-0.178988
C	0.0221233274145340 0.7320888603703667 0.8748321219770319	0.110206
C	0.9829596067949132 0.7784557879020727 0.9344257644954022	-0.176208
C	0.9034624548540755 0.7817283533587360 0.9325879110140032	0.097057
C	0.1063478080649437 0.7260233406345262 0.8761928478376518	0.059960
C	0.1511652057956996 0.7915820088717145 0.8791485659502595	-0.171338
C	0.2320792989598371 0.7870462565297892 0.8779948729838344	0.084517
C	0.2209424423183066 0.6464857583454310 0.8753595396126074	-0.122520
C	0.1423089645366170 0.6528499446423920 0.8731792343926833	-0.136255
C	0.2008617422326935 0.3991723271177202 0.6877265350750412	0.096049
C	0.1922660487226455 0.4782518904942348 0.6866036528738406	-0.178989
C	0.2320888603703671 0.5221233214145331 0.6251678780229681	0.110207
C	0.2784557609020736 0.4829596067949137 0.5655742355045978	-0.176209
C	0.2817283273587342 0.4034624018540744 0.5674120889859969	0.097071
C	0.2260234206345257 0.6063478340649456 0.6238071521623482	0.059961
C	0.2915820358717130 0.6511651657957030 0.6208514340497405	-0.171339
C	0.2870462565297895 0.7320792459598362 0.6220051270161656	0.084516
C	0.1464857713454358 0.7209424283183056 0.6246404603873926	-0.122520
C	0.1528498916423908 0.6423089645366169 0.6268207656073167	-0.136254
C	0.2991382177673102 0.1008276858822772 0.6877265350750412	0.096051
C	0.3077339112773513 0.0217480905057672 0.6866036528738406	-0.178988
C	0.2679111396296330 0.9778766785854669 0.6251678780229681	0.110206
C	0.2215442520979236 0.0170403902050826 0.5655742355045978	-0.176211
C	0.2182716866412671 0.0965376051459297 0.5674120889859969	0.097072
C	0.2739765793654744 0.8936521659350544 0.6238071521623482	0.059961
C	0.2084180051282868 0.8488348342042970 0.6208514340497405	-0.171339
C	0.2129537164702120 0.7679207540401638 0.6220051270161656	0.084518
C	0.3535142146545632 0.7790575716816944 0.6246404603873926	-0.122519
C	0.3471501083576091 0.8576910354633831 0.6268207656073167	-0.136256
C	0.3991723271177202 0.2991382177673102 0.6877265350750412	0.096048
C	0.4782518904942348 0.3077339112773513 0.6866036528738406	-0.178987
C	0.5221233214145331 0.2679111396296330 0.6251678780229681	0.110206
C	0.4829596067949137 0.2215442520979236 0.5655742355045978	-0.176210
C	0.4034624018540744 0.2182716866412671 0.5674120889859968	0.097071
C	0.6063478340649456 0.2739765793654744 0.6238071521623482	0.059961
C	0.6511651657957030 0.2084180051282868 0.6208514340497405	-0.171339
C	0.7320792459598362 0.2129537164702120 0.6220051270161656	0.084517
C	0.7209424283183056 0.3535142146545632 0.6246404603873926	-0.122520
C	0.6423089645366169 0.3471501083576091 0.6268207656073167	-0.136254
C	0.1008276858822772 0.2008617422326935 0.6877265350750412	0.096050
C	0.0217480905057672 0.1922660487226455 0.6866036528738406	-0.178990
C	0.9778766785854669 0.2320888603703671 0.6251678780229681	0.110207
C	0.0170403902050826 0.2784557609020736 0.5655742355045978	-0.176210
C	0.0965376051459297 0.2817283273587342 0.5674120889859968	0.097071
C	0.8936521659350544 0.2260234206345257 0.6238071521623482	0.059961
C	0.8488348342042970 0.2915820358717130 0.6208514340497405	-0.171340
C	0.7679207540401638 0.2870462565297895 0.6220051270161656	0.084518
C	0.7790575716816944 0.1464857713454358 0.6246404603873926	-0.122519
C	0.8576910354633831 0.1528498916423908 0.6268207656073167	-0.136256
H	0.1744433938888350 0.1360769960658224 0.2379758192041309	0.112263
H	0.1564296692225585 0.9941555858137507 0.2353382154803650	0.115274
H	0.3100891827504134 0.9857306431447286 0.0160194929413691	0.115523
H	0.3134302417925924 0.1288554889028305 0.0186025424109274	0.111681
H	0.3479255429909340 0.8760903954561430 0.1201768309140946	0.106906
H	0.0900964678391546 0.7517630026175643 0.1253624680757738	0.108265
H	0.1015984601559955 0.8935206772437410 0.1289089393206862	0.099001
H	0.3255565791111661 0.3639230309341834 0.2379758192041309	0.112262
H	0.3435703707774374 0.5058444141862493 0.2353382154803650	0.115273
H	0.1899108302495843 0.5142693568552714 0.0160194929413691	0.115524
H	0.1865697582074078 0.3711445110971693 0.0186025424109274	0.111681
H	0.1520744710090673 0.6239096045438570 0.1201768309140946	0.106908
H	0.4099035251608412 0.7482369973824357 0.1253624680757738	0.108269
H	0.3984015528440091 0.6064793227562590 0.1289089393206862	0.099002
H	0.3639230309341834 0.1744433938888350 0.2379758192041309	0.112262
H	0.5058444141862493 0.1564296692225585 0.2353382154803650	0.115275
H	0.5142693568552714 0.3100891827504134 0.0160194929413691	0.115524
H	0.3711445110971693 0.3134302417925924 0.0186025424109274	0.111681
H	0.6239096045438570 0.3479255429909340 0.1201768309140946	0.106907
H	0.7482369973824357 0.0900964678391546 0.1253624680757738	0.108265
H	0.6064793227562590 0.1015984601559955 0.1289089393206862	0.099003
H	0.1360769960658224 0.3255565791111661 0.2379758192041309	0.112263
H	0.9941555858137507 0.3435703707774374 0.2353382154803650	0.115273
H	0.9857306431447286 0.1899108302495843 0.0160194929413691	0.115524
H	0.1288554889028305 0.1865697582074078 0.0186025424109274	0.111681
H	0.8760903954561430 0.1520744710090673 0.1201768309140946	0.106909
H	0.7517630026175643 0.4099035251608412 0.1253624680757738	0.108269
H	0.8935206772437410 0.3984015528440091 0.1289089393206862	0.099003
H	0.8255565791111664 0.6360770230658215 0.2620241967958702	0.112263
H	0.8435702897774419 0.4941556398137480 0.2646617845196350	0.115275
H	0.6899108172495869 0.4857306431447285 0.4839805090586310	0.115523
H	0.6865698112074087 0.6288555159028290 0.4813974555890722	0.111690
H	0.6520744570090661 0.3760903414561457 0.3798231770859060	0.106907
H	0.9099034721608407 0.2517630296175626 0.3746375239242254	0.108257
H	0.8984015258440106 0.3935207032437361 0.3710910686793145	0.099004
H	0.6744434208888336 0.8639229769341785 0.2620241967958702	0.112263
H	0.6564297102225581 0.0058443761862461 0.2646617845196350	0.115275
H	0.8100891827504131 0.0142693558552678 0.4839805090586310	0.115523
H	0.8134301887925913 0.8711444840971710 0.4813974555890722	0.111689
H	0.8479255429909339 0.1239096715438589 0.3798231770859060	0.106912
H	0.5900964748391585 0.2482369433824315 0.3746375239242254	0.108266
H	0.6015984741559894 0.1064793097562615 0.3710910686793145	0.099001
H	0.6360770230658215 0.6744434208888336 0.2620241967958702	0.112263
H	0.4941556398137480 0.6564297102225581 0.2646617845196350	0.115276
H	0.4857306431447285 0.8100891827504131 0.4839805090586310	0.115523
H	0.6288555159028290 0.8134301887925913 0.4813974555890722	0.111690
H	0.3760903414561457 0.8479255429909339 0.3798231770859060	0.106910
H	0.2517630296175626 0.5900964748391585 0.3746375239242254	0.108264
H	0.3935207032437361 0.6015984741559894 0.3710910686793145	0.099003
H	0.8639229769341785 0.8255565791111664 0.2620241967958702	0.112262
H	0.0058443761862461 0.8435702897774419 0.2646617845196350	0.115275
H	0.0142693558552678 0.6899108172495869 0.4839805090586310	0.115524
H	0.8711444840971710 0.6865698112074087 0.4813974555890722	0.111689
H	0.1239096715438589 0.6520744570090661 0.3798231770859060	0.106912
H	0.2482369433824315 0.9099034721608407 0.3746375239242254	0.108259
H	0.1064793097562615 0.8984015258440106 0.3710910686793145	0.099004
H	0.8255565791111664 0.8639229769341785 0.7620241657958711	0.112262
H	0.8435702897774419 0.0058443761862461 0.7646617995196398	0.115273
H	0.6899108172495869 0.0142693558552678 0.9839805400586298	0.115524
H	0.6865698112074087 0.8711444840971710 0.9813973915890744	0.111690
H	0.6520744570090661 0.1239096715438589 0.8798231450859032	0.106906
H	0.9099034721608407 0.2482369433824315 0.8746374609242239	0.108278
H	0.8984015258440106 0.1064793097562615 0.8710910366793121	0.099003
H	0.6744434208888336 0.6360770230658215 0.7620241657958711	0.112263
H	0.6564297102225581 0.4941556398137480 0.7646617995196398	0.115274
H	0.8100891827504131 0.4857306431447285 0.9839805400586298	0.115523
H	0.8134301887925913 0.6288555159028290 0.9813973915890744	0.111690
H	0.8479255429909339 0.3760903414561457 0.8798231450859032	0.106909
H	0.5900964748391585 0.2517630296175626 0.8746374609242239	0.108282
H	0.6015984741559894 0.3935207032437361 0.8710910366793121	0.099002
H	0.6360770230658215 0.8255565791111664 0.7620241657958711	0.112263
H	0.4941556398137480 0.8435702897774419 0.7646617995196398	0.115273
H	0.4857306431447285 0.6899108172495869 0.9839805400586298	0.115524
H	0.6288555159028290 0.6865698112074087 0.9813973915890744	0.111690
H	0.3760903414561457 0.6520744570090661 0.8798231450859032	0.106907
H	0.2517630296175626 0.9099034721608407 0.8746374609242239	0.108278
H	0.3935207032437361 0.8984015258440106 0.8710910366793121	0.099004
H	0.8639229769341785 0.6744434208888336 0.7620241657958711	0.112262
H	0.0058443761862461 0.6564297102225581 0.7646617995196398	0.115275
H	0.0142693558552678 0.8100891827504131 0.9839805400586298	0.115524
H	0.8711444840971710 0.8134301887925913 0.9813973915890744	0.111690
H	0.1239096715438589 0.8479255429909339 0.8798231450859032	0.106910
H	0.2482369433824315 0.5900964748391585 0.8746374609242239	0.108282
H	0.1064793097562615 0.6015984741559894 0.8710910366793121	0.099004
H	0.1744433938888350 0.3639230309341834 0.7379758342041289	0.112262
H	0.1564296692225585 0.5058444141862493 0.7353382004803602	0.115275
H	0.3100891827504134 0.5142693568552714 0.5160194909413692	0.115524
H	0.3134302417925924 0.3711445110971693 0.5186025444109275	0.111681
H	0.3479255429909340 0.6239096045438570 0.6201768549140968	0.106910
H	0.0900964678391546 0.7482369973824357 0.6253625390757761	0.108280
H	0.1015984601559955 0.6064793227562590 0.6289089633206879	0.099002
H	0.3255565791111661 0.1360769960658224 0.7379758342041289	0.112263
H	0.3435703707774374 0.9941555858137507 0.7353382004803602	0.115274
H	0.1899108302495843 0.9857306431447286 0.5160194909413692	0.115524
H	0.1865697582074078 0.1288554889028305 0.5186025444109275	0.111681
H	0.1520744710090673 0.8760903954561430 0.6201768549140968	0.106910
H	0.4099035251608412 0.7517630026175643 0.6253625390757761	0.108283
H	0.3984015528440091 0.8935206772437410 0.6289089633206879	0.099004
H	0.3639230309341834 0.3255565791111661 0.7379758342041289	0.112262
H	0.5058444141862493 0.3435703707774374 0.7353382004803602	0.115274
H	0.5142693568552714 0.1899108302495843 0.5160194909413692	0.115525
H	0.3711445110971693 0.1865697582074078 0.5186025444109275	0.111681
H	0.6239096045438570 0.1520744710090673 0.6201768549140968	0.106910
H	0.7482369973824357 0.4099035251608412 0.6253625390757761	0.108281
H	0.6064793227562590 0.3984015528440091 0.6289089633206879	0.099005
H	0.1360769960658224 0.1744433938888350 0.7379758342041289	0.112263
H	0.9941555858137507 0.1564296692225585 0.7353382004803602	0.115275
H	0.9857306431447286 0.3100891827504134 0.5160194909413692	0.115524
H	0.1288554889028305 0.3134302417925924 0.5186025444109275	0.111682
H	0.8760903954561430 0.3479255429909340 0.6201768549140968	0.106913
H	0.7517630026175643 0.0900964678391546 0.6253625390757761	0.108282
H	0.8935206772437410 0.1015984601559955 0.6289089633206879	0.099004
F	0.3063735346701435 0.1692268394557344 0.3786368664595439	-0.564455
F	0.1936264923298552 0.3307731605442655 0.3786368664595439	-0.564454
F	0.3307731605442655 0.3063735346701435 0.3786368664595439	-0.564455
F	0.1692268394557344 0.1936264923298552 0.3786368664595439	-0.564455
F	0.6936264653298566 0.6692267854557373 0.1213631335404562	-0.564454
F	0.8063735346701434 0.8307732145442627 0.1213631335404562	-0.564454
F	0.6692267854557373 0.8063735346701434 0.1213631335404562	-0.564453
F	0.8307732145442627 0.6936264653298566 0.1213631335404562	-0.564455
F	0.6936264653298566 0.8307732145442627 0.6213631015404535	-0.564454
F	0.8063735346701434 0.6692267854557373 0.6213631015404535	-0.564455
F	0.6692267854557373 0.6936264653298566 0.6213631015404535	-0.564454
F	0.8307732145442627 0.8063735346701434 0.6213631015404535	-0.564454
F	0.3063735346701435 0.3307731605442655 0.8786368984595465	-0.564454
F	0.1936264923298552 0.1692268394557344 0.8786368984595465	-0.564455
F	0.3307731605442655 0.1936264923298552 0.8786368984595465	-0.564456
F	0.1692268394557344 0.3063735346701435 0.8786368984595465	-0.564454
F	0.2500000000000000 0.2500000000000000 0.2674681388373979	-0.505612
F	0.2500000000000000 0.2500000000000000 0.4898663689741745	-0.505400
F	0.7500000000000000 0.7500000000000000 0.2325318771626033	-0.505612
F	0.7500000000000000 0.7500000000000000 0.0101336380258298	-0.505397
F	0.7500000000000000 0.7500000000000000 0.7325318291625992	-0.505613
F	0.7500000000000000 0.7500000000000000 0.5101336630258286	-0.505397
F	0.2500000000000000 0.2500000000000000 0.7674681708374008	-0.505612
F	0.2500000000000000 0.2500000000000000 0.9898663369741714	-0.505400
Co	0.2500000000000000 0.2500000000000000 0.1284700970283636	0.585144
Co	0.7500000000000000 0.7500000000000000 0.3715299189716378	0.585144
Co	0.7500000000000000 0.7500000000000000 0.8715298879716388	0.585146
Co	0.2500000000000000 0.2500000000000000 0.6284701120283612	0.585146
Si	0.2500000000000000 0.2500000000000000 0.3785681191926248	1.740586
Si	0.7500000000000000 0.7500000000000000 0.1214318888073757	1.740586
Si	0.7500000000000000 0.7500000000000000 0.6214318498073759	1.740586
Si	0.2500000000000000 0.2500000000000000 0.8785681501926241	1.740586
	  	
