#======================================================================

# CRYSTAL DATA

#----------------------------------------------------------------------

data_VESTA_phase_1


_pd_phase_name                         SIFSIX_2_Cd_i
_cell_length_a                         14.28614
_cell_length_b                         14.28614
_cell_length_c                         8.06065
_cell_angle_alpha                      90
_cell_angle_beta                       90
_cell_angle_gamma                      90
_symmetry_space_group_name_H-M         P 1
_symmetry_Int_Tables_number            1

loop_
_symmetry_equiv_pos_as_xyz
   x, y, z

loop_
   _atom_site_label
   _atom_site_fract_x
   _atom_site_fract_y
   _atom_site_fract_z
   _atom_site_charge
C	-0.0000000000000000 0.3078058195040280 0.3499745366071212	-0.157768
C	-0.0000000000000000 0.2106539462485541 0.3554153008060390	0.105061
C	0.5000000000000000 0.8078058195040282 0.8499745656071199	-0.157768
C	0.5000000000000000 0.7106539642485555 0.8554153008060390	0.105061
C	-0.0000000000000000 0.6921941804959718 0.3499745366071212	-0.157770
C	-0.0000000000000000 0.7893460357514445 0.3554153008060390	0.105063
C	0.5000000000000000 0.1921941974959697 0.8499745656071199	-0.157770
C	0.5000000000000000 0.2893460357514446 0.8554153008060390	0.105063
C	0.6921941804959718 0.0000000000000000 0.3499745366071212	-0.157768
C	0.7893460357514445 0.0000000000000000 0.3554153008060390	0.105065
C	0.1921941974959697 0.5000000000000000 0.8499745656071199	-0.157768
C	0.2893460357514446 0.5000000000000000 0.8554153008060391	0.105065
C	0.3078058195040280 0.0000000000000000 0.3499745366071212	-0.157770
C	0.2106539462485541 0.0000000000000000 0.3554153008060390	0.105067
C	0.8078058195040282 0.5000000000000000 0.8499745656071199	-0.157770
C	0.7106539642485555 0.5000000000000000 0.8554153008060390	0.105067
C	-0.0000000000000000 0.3078058195040280 0.6500254343928801	-0.157762
C	-0.0000000000000000 0.2106539462485541 0.6445846991939610	0.105062
C	0.5000000000000000 0.8078058195040282 0.1500254633928788	-0.157762
C	0.5000000000000000 0.7106539642485555 0.1445846841939631	0.105062
C	-0.0000000000000000 0.6921941804959718 0.6500254343928801	-0.157764
C	-0.0000000000000000 0.7893460357514445 0.6445846991939610	0.105065
C	0.5000000000000000 0.1921941974959697 0.1500254633928788	-0.157764
C	0.5000000000000000 0.2893460357514446 0.1445846841939631	0.105065
C	0.3078058195040280 0.0000000000000000 0.6500254343928801	-0.157764
C	0.2106539462485541 0.0000000000000000 0.6445846991939609	0.105068
C	0.8078058195040282 0.5000000000000000 0.1500254633928788	-0.157764
C	0.7106539642485555 0.5000000000000000 0.1445846841939631	0.105069
C	0.6921941804959718 0.0000000000000000 0.6500254343928801	-0.157762
C	0.7893460357514445 0.0000000000000000 0.6445846991939610	0.105066
C	0.1921941974959697 0.5000000000000000 0.1500254633928788	-0.157762
C	0.2893460357514446 0.5000000000000000 0.1445846841939631	0.105066
C	-0.0000000000000000 0.4573275734420223 0.5000000000000000	-0.095241
C	-0.0000000000000000 0.3582959933770152 0.5000000000000000	0.159539
C	0.5000000000000000 0.9573276074420253 0.0000000000000000	-0.095241
C	0.5000000000000000 0.8582959583770161 0.0000000000000000	0.159539
C	-0.0000000000000000 0.5426724265579775 0.5000000000000000	-0.094995
C	-0.0000000000000000 0.6417040416229839 0.5000000000000000	0.159510
C	0.5000000000000000 0.0426724055579724 0.0000000000000000	-0.094995
C	0.5000000000000000 0.1417040416229842 0.0000000000000000	0.159510
C	0.5426724265579775 0.0000000000000000 0.5000000000000000	-0.095242
C	0.6417040416229839 0.0000000000000000 0.5000000000000000	0.159539
C	0.0426724055579724 0.5000000000000000 0.0000000000000000	-0.095242
C	0.1417040416229842 0.5000000000000000 0.0000000000000000	0.159539
C	0.4573275734420223 0.0000000000000000 0.5000000000000000	-0.094995
C	0.3582959933770152 0.0000000000000000 0.5000000000000000	0.159510
C	0.9573276074420253 0.5000000000000000 0.0000000000000000	-0.094995
C	0.8582959583770161 0.5000000000000000 0.0000000000000000	0.159510
H	-0.0000000000000000 0.3444712298835754 0.2316508675595960	0.118630
H	-0.0000000000000000 0.1688655775259333 0.2420430884184661	0.106948
H	0.5000000000000000 0.8444712298835749 0.7316508675595962	0.118630
H	0.5000000000000000 0.6688655245259323 0.7420431184184685	0.106948
H	-0.0000000000000000 0.6555287701164251 0.2316508675595960	0.118629
H	-0.0000000000000000 0.8311344754740677 0.2420430884184661	0.106949
H	0.5000000000000000 0.1555287701164246 0.7316508675595962	0.118629
H	0.5000000000000000 0.3311344404740610 0.7420431184184685	0.106949
H	0.6555287701164251 0.0000000000000000 0.2316508675595960	0.118630
H	0.8311344754740678 0.0000000000000000 0.2420430884184661	0.106948
H	0.1555287701164246 0.5000000000000000 0.7316508675595962	0.118630
H	0.3311344404740610 0.5000000000000000 0.7420431184184685	0.106948
H	0.3444712298835754 0.0000000000000000 0.2316508675595960	0.118629
H	0.1688655775259333 0.0000000000000000 0.2420430884184661	0.106948
H	0.8444712298835749 0.5000000000000000 0.7316508675595962	0.118629
H	0.6688655245259323 0.5000000000000000 0.7420431184184685	0.106948
H	-0.0000000000000000 0.3444712298835754 0.7683491324404038	0.118624
H	-0.0000000000000000 0.1688655775259333 0.7579568235815338	0.106947
H	0.5000000000000000 0.8444712298835749 0.2683491324404041	0.118624
H	0.5000000000000000 0.6688655245259323 0.2579569115815340	0.106947
H	-0.0000000000000000 0.6555287701164251 0.7683491324404038	0.118622
H	-0.0000000000000000 0.8311344754740677 0.7579568235815338	0.106947
H	0.5000000000000000 0.1555287701164246 0.2683491324404041	0.118622
H	0.5000000000000000 0.3311344404740609 0.2579569115815340	0.106947
H	0.3444712298835754 0.0000000000000000 0.7683491324404038	0.118623
H	0.1688655775259333 0.0000000000000000 0.7579568235815338	0.106947
H	0.8444712298835749 0.5000000000000000 0.2683491324404041	0.118623
H	0.6688655245259322 0.5000000000000000 0.2579569115815340	0.106947
H	0.6555287701164251 0.0000000000000000 0.7683491324404038	0.118624
H	0.8311344754740677 0.0000000000000000 0.7579568235815338	0.106946
H	0.1555287701164246 0.5000000000000000 0.2683491324404041	0.118624
H	0.3311344404740610 0.5000000000000000 0.2579569115815340	0.106946
Cd	-0.0000000000000000 0.0000000000000000 0.5000000000000000	0.828003
Cd	0.5000000000000000 0.5000000000000000 0.0000000000000000	0.828003
Si	-0.0000000000000000 0.0000000000000000 0.0000000000000000	1.733392
Si	0.5000000000000000 0.5000000000000000 0.5000000000000000	1.733392
N	-0.0000000000000000 0.1632866232662725 0.5000000000000000	-0.238730
N	0.5000000000000000 0.6632866052662711 0.0000000000000000	-0.238730
N	-0.0000000000000000 0.8367133947337289 0.5000000000000000	-0.238730
N	0.5000000000000000 0.3367133947337290 0.0000000000000000	-0.238730
N	0.8367133947337289 0.0000000000000000 0.5000000000000000	-0.238731
N	0.3367133947337290 0.5000000000000000 0.0000000000000000	-0.238731
N	0.1632866232662725 0.0000000000000000 0.5000000000000000	-0.238731
N	0.6632866052662711 0.5000000000000000 0.0000000000000000	-0.238731
F	-0.0000000000000000 0.0000000000000000 0.7823156038419357	-0.512387
F	0.5000000000000000 0.5000000000000000 0.2823156928419396	-0.512387
F	-0.0000000000000000 0.0000000000000000 0.2176843221580652	-0.512387
F	0.5000000000000000 0.5000000000000000 0.7176843961580643	-0.512387
F	0.5843489024401965 0.5843489024401965 0.5000000000000000	-0.555576
F	0.5843489024401965 0.4156510975598031 0.5000000000000000	-0.555576
F	0.4156510975598031 0.5843489024401965 0.5000000000000000	-0.555576
F	0.4156510975598031 0.4156510975598031 0.5000000000000000	-0.555576
F	0.0843489194401949 0.0843489194401949 0.0000000000000000	-0.555577
F	0.9156510975598035 0.9156510975598035 0.0000000000000000	-0.555576
F	0.9156510975598035 0.0843489194401949 0.0000000000000000	-0.555576
F	0.0843489194401949 0.9156510975598035 0.0000000000000000	-0.555576
	  	
