#======================================================================

# CRYSTAL DATA

#----------------------------------------------------------------------

data_VESTA_phase_1


_pd_phase_name                         SIFSIX_2_Zn
_cell_length_a                         13.94597
_cell_length_b                         13.94597
_cell_length_c                         7.68089
_cell_angle_alpha                      90
_cell_angle_beta                       90
_cell_angle_gamma                      90
_symmetry_space_group_name_H-M         P 1
_symmetry_Int_Tables_number            1

loop_
_symmetry_equiv_pos_as_xyz
   x, y, z

loop_
   _atom_site_label
   _atom_site_fract_x
   _atom_site_fract_y
   _atom_site_fract_z
   _atom_site_charge
C	0.5321790888136746 0.7034131848722914 0.1396887859996349	0.099904
C	0.5331781193693169 0.8029016548653867 0.1450262469308880	-0.168515
C	0.4678209811863238 0.2965868151277085 0.1396887859996349	0.099901
C	0.4668218456306836 0.1970983271346116 0.1450262469308880	-0.168513
C	0.2965868151277085 0.5321790888136746 0.1396887859996349	0.099904
C	0.1970983271346116 0.5331781193693169 0.1450262469308880	-0.168515
C	0.7034131848722914 0.4678209811863238 0.1396887859996349	0.099901
C	0.8029016548653867 0.4668218456306836 0.1450262469308880	-0.168513
C	0.4678209811863238 0.7034131848722914 0.8603112140003653	0.099904
C	0.4668218456306836 0.8029016548653867 0.8549737230691093	-0.168515
C	0.5321790888136746 0.2965868151277085 0.8603112140003653	0.099902
C	0.5331781193693169 0.1970983271346116 0.8549737230691093	-0.168512
C	0.7034131848722914 0.5321790888136746 0.8603112140003653	0.099902
C	0.8029016548653867 0.5331781193693169 0.8549737230691093	-0.168512
C	0.2965868151277085 0.4678209811863238 0.8603112140003653	0.099904
C	0.1970983271346116 0.4668218456306836 0.8549737230691093	-0.168514
C	0.5000000000000000 0.1451099713692733 -0.0000000000000000	0.170307
C	0.5000000000000000 0.0436901954767565 -0.0000000000000000	-0.094124
C	0.5000000000000000 0.8548900286307272 -0.0000000000000000	0.170276
C	0.5000000000000000 0.9563097475232494 -0.0000000000000000	-0.093874
C	0.8548900286307272 0.5000000000000000 -0.0000000000000000	0.170307
C	0.9563097475232494 0.5000000000000000 -0.0000000000000000	-0.094124
C	0.1451099713692733 0.5000000000000000 -0.0000000000000000	0.170276
C	0.0436901954767565 0.5000000000000000 -0.0000000000000000	-0.093873
H	0.5567158776953623 0.6610802728398870 0.2505984716590519	0.106498
H	0.5595038314700361 0.8400616876729919 0.2600169943882161	0.126144
H	0.4432841223046378 0.3389196571601140 0.2505984716590519	0.106498
H	0.4404962035299630 0.1599382423270095 0.2600169943882161	0.126145
H	0.3389196571601140 0.5567158776953623 0.2505984716590519	0.106498
H	0.1599382423270095 0.5595038314700361 0.2600169943882161	0.126144
H	0.6610802728398870 0.4432841223046378 0.2505984716590519	0.106498
H	0.8400616876729919 0.4404962035299630 0.2600169943882161	0.126145
H	0.4432841223046378 0.6610802728398870 0.7494015283409484	0.106498
H	0.4404962035299630 0.8400616876729919 0.7399830356117867	0.126143
H	0.5567158776953623 0.3389196571601140 0.7494015283409484	0.106498
H	0.5595038314700361 0.1599382423270095 0.7399830356117867	0.126144
H	0.6610802728398870 0.5567158776953623 0.7494015283409484	0.106498
H	0.8400616876729919 0.5595038314700361 0.7399830356117867	0.126144
H	0.3389196571601140 0.4432841223046378 0.7494015283409484	0.106498
H	0.1599382423270095 0.4404962035299630 0.7399830356117867	0.126143
Zn	0.5000000000000000 0.5000000000000000 -0.0000000000000000	0.737476
Si	0.5000000000000000 0.5000000000000000 0.5000000000000000	1.735275
F	0.5000000000000000 0.5000000000000000 0.7273269429547953	-0.499805
F	0.5000000000000000 0.5000000000000000 0.2726730870452002	-0.499805
F	0.5865254004285413 0.5865254004285413 0.5000000000000000	-0.544044
F	0.4134746345714577 0.5865254004285413 0.5000000000000000	-0.544044
F	0.4134746345714577 0.4134746345714577 0.5000000000000000	-0.544044
F	0.5865254004285413 0.4134746345714577 0.5000000000000000	-0.544044
N	0.5000000000000000 0.3455485835902107 -0.0000000000000000	-0.228596
N	0.5000000000000000 0.6544513814097900 -0.0000000000000000	-0.228596
N	0.6544513814097900 0.5000000000000000 -0.0000000000000000	-0.228596
N	0.3455485835902107 0.5000000000000000 -0.0000000000000000	-0.228596
	  	
