#======================================================================

# CRYSTAL DATA

#----------------------------------------------------------------------

data_VESTA_phase_1


_pd_phase_name                         SIFSIX_1_Fe
_cell_length_a                         11.10688
_cell_length_b                         11.10688
_cell_length_c                         7.86997
_cell_angle_alpha                      90
_cell_angle_beta                       90
_cell_angle_gamma                      90
_symmetry_space_group_name_H-M         P 1
_symmetry_Int_Tables_number            1

loop_
_symmetry_equiv_pos_as_xyz
   x, y, z

loop_
   _atom_site_label
   _atom_site_fract_x
   _atom_site_fract_y
   _atom_site_fract_z
   _atom_site_charge
C	0.2571317585879759 0.4561345947457606 0.3654008827794576	0.092019
C	0.1322756754673453 0.4560027856222681 0.3608541728663226	-0.172754
C	0.7428683284120281 0.5438654482542394 0.3654008827794576	0.092021
C	0.8677243685326583 0.5439972143777320 0.3608541728663226	-0.172768
C	0.5438654482542394 0.2571317585879759 0.3654008827794576	0.092019
C	0.5439972143777320 0.1322756754673453 0.3608541728663226	-0.172754
C	0.4561345947457606 0.7428683284120281 0.3654008827794576	0.092021
C	0.4560027856222681 0.8677243685326583 0.3608541728663226	-0.172768
C	0.7428683284120281 0.4561345947457606 0.6345990872205396	0.092021
C	0.8677243685326583 0.4560027856222681 0.6391457981336717	-0.172766
C	0.2571317585879759 0.5438654482542394 0.6345990872205396	0.092019
C	0.1322756754673453 0.5439972143777320 0.6391457981336717	-0.172753
C	0.4561345947457606 0.2571317585879759 0.6345990872205396	0.092019
C	0.4560027856222681 0.1322756754673453 0.6391457981336717	-0.172753
C	0.5438654482542394 0.7428683284120281 0.6345990872205396	0.092021
C	0.5439972143777320 0.8677243685326583 0.6391457981336717	-0.172766
C	0.0662935563056377 0.5000000000000000 0.5000000000000000	0.092765
C	0.9337065196943615 0.5000000000000000 0.5000000000000000	0.092795
C	0.5000000000000000 0.0662935563056377 0.5000000000000000	0.092765
C	0.5000000000000000 0.9337065196943615 0.5000000000000000	0.092795
H	0.3100651030270851 0.4228858601849104 0.2585675572642698	0.108921
H	0.0871084600164135 0.4192442674589906 0.2494061290332585	0.123306
H	0.6899348539729148 0.5771141398150897 0.2585675572642698	0.108921
H	0.9128915559835878 0.5807557325410093 0.2494061290332585	0.123308
H	0.5771141398150897 0.3100651030270851 0.2585675572642698	0.108921
H	0.5807557325410093 0.0871084600164135 0.2494061290332585	0.123307
H	0.4228858601849104 0.6899348539729148 0.2585675572642698	0.108921
H	0.4192442674589906 0.9128915559835878 0.2494061290332585	0.123308
H	0.6899348539729148 0.4228858601849104 0.7414324137357313	0.108921
H	0.9128915559835878 0.4192442674589906 0.7505939299667429	0.123306
H	0.3100651030270851 0.5771141398150897 0.7414324137357313	0.108921
H	0.0871084600164135 0.5807557325410093 0.7505939299667429	0.123305
H	0.4228858601849104 0.3100651030270851 0.7414324137357313	0.108921
H	0.4192442674589906 0.0871084600164135 0.7505939299667429	0.123306
H	0.5771141398150897 0.6899348539729148 0.7414324137357313	0.108921
H	0.5807557325410093 0.9128915559835878 0.7505939299667429	0.123307
Fe	0.5000000000000000 0.5000000000000000 0.5000000000000000	0.717039
Si	0.5000000000000000 0.5000000000000000 0.0000000000000000	1.715955
F	0.5000000000000000 0.5000000000000000 0.7780133937695758	-0.494155
F	0.5000000000000000 0.5000000000000000 0.2219866062304245	-0.494155
F	0.3913033376813619 0.3913033376813619 0.0000000000000000	-0.543033
F	0.6086966623186381 0.6086966623186381 0.0000000000000000	-0.543033
F	0.6086966623186381 0.3913033376813619 0.0000000000000000	-0.543033
F	0.3913033376813619 0.6086966623186381 0.0000000000000000	-0.543033
N	0.3190143261625281 0.5000000000000000 0.5000000000000000	-0.213893
N	0.6809856958374737 0.5000000000000000 0.5000000000000000	-0.213894
N	0.5000000000000000 0.3190143261625281 0.5000000000000000	-0.213893
N	0.5000000000000000 0.6809856958374737 0.5000000000000000	-0.213894
	  	
