#======================================================================

# CRYSTAL DATA

#----------------------------------------------------------------------

data_VESTA_phase_1


_pd_phase_name                         SIFSIX_14_Co_i
_cell_length_a                         12.95116
_cell_length_b                         12.94042
_cell_length_c                         7.95767
_cell_angle_alpha                      87.42400
_cell_angle_beta                       87.31444
_cell_angle_gamma                      88.43478
_symmetry_space_group_name_H-M         P 1
_symmetry_Int_Tables_number            1

loop_
_symmetry_equiv_pos_as_xyz
   x, y, z

loop_
   _atom_site_label
   _atom_site_fract_x
   _atom_site_fract_y
   _atom_site_fract_z
   _atom_site_charge
C	0.5639421343826542 0.2701126074874462 0.3640533072244763	-0.174839
C	0.4568155054216861 0.2731968660676035 0.3704260190950903	0.095143
C	0.9409521642406175 0.2897095010454744 0.4178990629665961	-0.165858
C	0.0478979990408702 0.2831734570542569 0.4033567252512694	0.097928
C	0.2684128117484936 0.5637587468359695 0.3655135736475931	-0.176078
C	0.2712496002669476 0.4565256690457557 0.3721578970059196	0.097215
C	0.2966868092052344 0.9408160315647643 0.4128214965968896	-0.164966
C	0.2892246757200786 0.0477936204026737 0.3991683407285785	0.096935
C	0.9364961629101605 0.2322303689150952 0.1344219095718405	-0.176601
C	0.0436357620605237 0.2296139033897941 0.1276894336735241	0.094235
C	0.5594846616416239 0.2059328967070068 0.0848574626760160	-0.164435
C	0.4525391575841488 0.2130144438865305 0.0988009090682290	0.097403
C	0.2071080014539437 0.5589346231069229 0.0846162851472382	-0.166902
C	0.2142485771194817 0.4519577125647468 0.0987008983201180	0.096571
C	0.2290841073602732 0.9360131336894899 0.1362319063570290	-0.175534
C	0.2260425005974935 0.0432445934558464 0.1297775568461501	0.095872
C	0.4362182980900020 0.7339081021918056 0.6335394620866672	-0.174877
C	0.5432983737732716 0.7313394683327911 0.6266620226120999	0.095712
C	0.0589772157492977 0.7251145173258098 0.5744719316038944	-0.159352
C	0.9520451632258194 0.7286435881224312 0.5909566011283116	0.097357
C	0.7346485875225863 0.4362419386054071 0.6334277661200596	-0.175105
C	0.7329638864694121 0.5433950498285711 0.6264209416192436	0.097187
C	0.7126999147672457 0.0589693465015481 0.5798992452007297	-0.160550
C	0.7173916733819380 0.9519383249765403 0.5953835276836803	0.097423
C	0.0637427374564794 0.7632928204794803 0.8679171627065779	-0.173990
C	0.9566580771303855 0.7649144202474005 0.8752477684252771	0.094905
C	0.4409242987600779 0.7807269332607634 0.9230438691016519	-0.158911
C	0.5478528484057292 0.7764378377716953 0.9070399581353435	0.097106
C	0.7817765615620219 0.4409756017742769 0.9227014902146344	-0.161232
C	0.7778200769129413 0.5479863282695780 0.9068132237576743	0.096801
C	0.7679229207921826 0.0637110529704580 0.8647444704464217	-0.174745
C	0.7703164737800603 0.9565760755421991 0.8714111671916078	0.098011
C	0.6171960635474533 0.2362654578786010 0.2178545053395584	0.190330
C	0.8832390726032215 0.2623696815242568 0.2829375760394804	0.192219
C	0.2361576328466145 0.6168001567168105 0.2184291602267708	0.191715
C	0.2647216168412930 0.8829455058772444 0.2810377469830340	0.190386
C	0.3832070227049547 0.7586410800896622 0.7853271987953030	0.192288
C	0.1167103795084419 0.7432800611303534 0.7140143488636920	0.190397
C	0.7590339536658283 0.3832049455117814 0.7851476992084715	0.192470
C	0.7391268159943909 0.1167668929735435 0.7153481845906760	0.191133
H	0.6057649903428868 0.2893320891327102 0.4733345301117048	0.111713
H	0.4135859713434473 0.2956177273900968 0.4842971998652144	0.107582
H	0.9028605076039055 0.3149204168457434 0.5341137476701945	0.126274
H	0.0947179247614438 0.3019374646841392 0.5073401152914578	0.112361
H	0.2864868625175516 0.6059786205347177 0.4750632255061451	0.113691
H	0.2923475384854458 0.4132639392651801 0.4865283421382606	0.107387
H	0.3261948824304459 0.9027378467775069 0.5259454056881770	0.126318
H	0.3110620659593580 0.0946993339526171 0.5013485214867783	0.112156
H	0.8945730356010081 0.2155459561105956 0.0239420185240256	0.112520
H	0.0869405505143548 0.2098640959706435 0.0124596793939143	0.108217
H	0.5976238160843080 0.1777570199687779 0.9707069173414312	0.126133
H	0.4057650803088292 0.1919476898611165 0.9960700939312025	0.112407
H	0.1803379234306592 0.5969053912653740 0.9694594041616993	0.126569
H	0.1946858376307039 0.4050051693419158 0.9951695203318709	0.112960
H	0.2084705612861075 0.8938881967044798 0.0280020760434197	0.114134
H	0.2024441804835040 0.0864496855571617 0.0167768435126531	0.107994
H	0.3944861677443086 0.7205160171751910 0.5212248652214320	0.108209
H	0.5866309049214240 0.7141445060449779 0.5103458490318502	0.108884
H	0.0968233365993111 0.7089514889571208 0.4534571242363201	0.125891
H	0.9053427578029650 0.7154432429816477 0.4843619563262874	0.112132
H	0.7211113132157362 0.3942911466215487 0.5213004603241185	0.109324
H	0.7163023585510903 0.5868270297150715 0.5100876184007463	0.109125
H	0.6890960804756987 0.0970078132823284 0.4629125553423455	0.127374
H	0.6983145774799340 0.9051776875490456 0.4914824323111765	0.111609
H	0.1055849265656193 0.7737704598539522 0.9812463924975533	0.107375
H	0.9133248498452620 0.7783901837070321 0.9930152892568235	0.109509
H	0.4029951600228430 0.8008595191106492 0.0421363765433193	0.125840
H	0.5944768148214437 0.7928436825341419 0.0122962458884389	0.111370
H	0.8016977338450432 0.4029256071787179 0.0417141161978921	0.126327
H	0.7941427330357621 0.5947419109197738 0.0121511925499074	0.111834
H	0.7842615431374073 0.1054853456436500 0.9757585436908172	0.110163
H	0.7902810450525629 0.9131013328586116 0.9861229344549785	0.108722
N	0.7750488303333241 0.2734781289737685 0.3024137152270773	-0.113667
N	0.2770182137876813 0.7746889176113756 0.2988072597540370	-0.116499
N	0.7254151088574942 0.2246863699506262 0.1986148204346050	-0.115206
N	0.2242492611140794 0.7250070741499726 0.2003962507644285	-0.114528
N	0.2248117770505786 0.7361143417253447 0.6891033172606286	-0.106573
N	0.7305820827786916 0.2249923305578709 0.6921644091579894	-0.109952
N	0.2750690927777587 0.7664200128881929 0.8100272199229496	-0.109828
N	0.7669766886130940 0.2750214411281645 0.8086044985824443	-0.110723
N	0.4013781136787208 0.2465862690458611 0.2392407695121739	-0.181002
N	0.0990917191439459 0.2531136849697108 0.2606445479658637	-0.182111
N	0.2462678121643722 0.4009794905470186 0.2401307765931052	-0.183415
N	0.2541209509217700 0.0988017162124980 0.2599143857756192	-0.182089
N	0.5988557622919841 0.7517338445617070 0.7613683752145224	-0.179443
N	0.9010324124111114 0.7485187951523967 0.7388342659221938	-0.180456
N	0.7532813617775166 0.5989686808224459 0.7612291951282480	-0.181076
N	0.7462715807074862 0.9009893140905946 0.7385805471339680	-0.181151
F	0.3444286767908528 0.1528742398066089 0.7500637181352589	-0.537365
F	0.1581914441365953 0.3450341734916870 0.7498257381882151	-0.538203
F	0.3446970668446167 0.3395605994788138 0.7293225333367753	-0.538183
F	0.1577519510563038 0.1584648949854000 0.7708107122887079	-0.538260
F	0.6532558268232858 0.8441543447861739 0.2505419727030516	-0.533704
F	0.8450392034704455 0.6578286702601395 0.2496376068794063	-0.534949
F	0.6585558783140163 0.6576009388682192 0.2650165326568909	-0.536679
F	0.8398352277324340 0.8442787060446492 0.2345350306187539	-0.537202
F	0.2491734206296313 0.2467598485068404 0.5300699863966825	-0.507503
F	0.2530237677616785 0.2513349173306061 0.9698571521403373	-0.507531
F	0.7490057290512170 0.7505104806757965 0.4700570066706189	-0.508120
F	0.7498266930564688 0.7509260990614423 0.0298874301868513	-0.503995
Si	0.2513241514112820 0.2488811272244942 0.7499530239699710	1.710565
Si	0.7490780298194278 0.7509949675971539 0.2499716630193203	1.708178
Co	0.2502631460864697 0.2498959811435336 0.2499274991887915	0.605726
Co	0.7498750174594176 0.7499988627322635 0.7500062537409412	0.610076
	  	
