#======================================================================

# CRYSTAL DATA

#----------------------------------------------------------------------

data_VESTA_phase_1


_pd_phase_name                         SIFSIX_18_Ni
_cell_length_a                         13.97842
_cell_length_b                         13.76487
_cell_length_c                         7.92467
_cell_angle_alpha                      90
_cell_angle_beta                       94.83576
_cell_angle_gamma                      90
_symmetry_space_group_name_H-M         P 1
_symmetry_Int_Tables_number            1

loop_
_symmetry_equiv_pos_as_xyz
   x, y, z

loop_
   _atom_site_label
   _atom_site_fract_x
   _atom_site_fract_y
   _atom_site_fract_z
   _atom_site_charge
F	0.4155009149758940 0.3851288834693086 0.5054602965621516	-0.537093
F	0.5172543478800924 0.4782605704099063 0.7232546487295916	-0.513761
F	0.4129671142353267 0.5595886715871943 0.5083812306392035	-0.498699
F	0.9155009489758893 0.8851288144693065 0.5054602965621515	-0.537093
F	0.0172543738800874 0.9782605354099064 0.7232546487295916	-0.513764
F	0.9129671482353295 0.0595886375871982 0.5083812306392035	-0.498699
F	0.5844990480241069 0.3851288834693086 0.4945397034378486	-0.537093
F	0.4827456491199110 0.4782605704099063 0.2767453512704082	-0.513761
F	0.5870328817646729 0.5595886715871943 0.4916187703607998	-0.498703
F	0.0844990690241048 0.8851288144693065 0.4945397034378486	-0.537093
F	0.9827455141199104 0.9782605354099064 0.2767453512704082	-0.513764
F	0.0870328567646746 0.0595886375871982 0.4916187703607998	-0.498703
C	0.6843412094825835 0.1497332991097650 0.6528824417234697	-0.425476
C	0.7568378370802697 0.1470315466081279 0.8012032344200096	0.208902
C	0.7617444626391915 0.1967936122367114 0.9557130849333150	-0.152007
C	0.6894234933003094 0.2617912563048898 0.0156881057575541	-0.145251
C	0.6740660880084663 0.3608691877230810 0.9724152682001609	0.222807
C	0.7312805618658212 0.4228105330761336 0.8637784043832096	-0.428743
C	0.8953886696271561 0.2097641925914135 0.2048382758792758	-0.437205
C	0.8514270540865350 0.1709898929516678 0.0408454993488798	0.221443
C	0.6209927518554252 0.2392744604182704 0.1293599998569707	0.210198
C	0.5975519207703652 0.1468551040950525 0.2145739798055634	-0.426210
C	0.1843412594825808 0.6497333511097620 0.6528824417234697	-0.425476
C	0.2568378710802725 0.6470315296081228 0.8012032344200096	0.208901
C	0.2617444286391887 0.6967935782367091 0.9557130849333150	-0.152007
C	0.1894234933003091 0.7617912733048872 0.0156881057575541	-0.145254
C	0.1740660710084617 0.8608692217230837 0.9724152682001609	0.222839
C	0.2312805778658156 0.9228104980761342 0.8637784043832096	-0.428734
C	0.3953885686271514 0.7097641065914132 0.2048382758792758	-0.437206
C	0.3514271220865333 0.6709898929516674 0.0408454993488798	0.221455
C	0.1209927268554266 0.7392743744182704 0.1293599998569707	0.210198
C	0.0975520047703650 0.6468551730950547 0.2145739798055634	-0.426210
C	0.3156587875174194 0.1497332991097650 0.3471175592765340	-0.425473
C	0.2431621559197262 0.1470315466081279 0.1987966855799909	0.208894
C	0.2382555663608071 0.1967936122367114 0.0442868910666901	-0.152012
C	0.3105765026996907 0.2617912563048898 0.9843118852424486	-0.145251
C	0.3259339779915389 0.3608691877230810 0.0275847827998394	0.222806
C	0.2687194531341831 0.4228105330761336 0.1362216116167917	-0.428743
C	0.1046114133728474 0.2097641925914135 0.7951617721207284	-0.437190
C	0.1485729249134672 0.1709898929516678 0.9591544886511193	0.221462
C	0.3790072791445739 0.2392744604182704 0.8706400241430242	0.210200
C	0.4024480052296359 0.1468551040950525 0.7854259411944409	-0.426230
C	0.8156587875174198 0.6497333511097620 0.3471175592765340	-0.425474
C	0.7431621559197261 0.6470315296081228 0.1987966855799909	0.208893
C	0.7382555323608117 0.6967935782367091 0.0442868910666901	-0.152012
C	0.8105765026996903 0.7617912733048872 0.9843118852424486	-0.145254
C	0.8259339109915371 0.8608692217230837 0.0275847827998394	0.222839
C	0.7687194361341786 0.9228104980761342 0.1362216116167917	-0.428733
C	0.6046113293728473 0.7097641065914132 0.7951617721207284	-0.437191
C	0.6485729419134647 0.6709898929516674 0.9591544886511193	0.221473
C	0.8790072451445710 0.7392743744182704 0.8706400241430242	0.210200
C	0.9024480722296377 0.6468551730950547 0.7854259411944409	-0.426230
H	0.7180007027254338 0.1714972063742856 0.5383121780672000	0.152162
H	0.6281587271722515 0.2028409214705955 0.6739995935819292	0.140920
H	0.6509186657284743 0.0781390276742140 0.6285577858500409	0.134273
H	0.6850621930336438 0.4643427740807163 0.7713528450628421	0.151339
H	0.7795031658154639 0.3773256263310295 0.7951259768836629	0.137584
H	0.7753858578591093 0.4743202492767932 0.9431626485481522	0.126410
H	0.8647209538206456 0.0608102246224164 0.6995933568714492	0.284227
H	0.9051427020251380 0.1535513909661693 0.3026311144708786	0.157789
H	0.8491407125067373 0.2670109413633799 0.2500209395841594	0.131943
H	0.9663861013180788 0.2409912467474132 0.1882988828576274	0.139114
H	0.5709939084862201 0.1606508959829164 0.3387761159991947	0.142659
H	0.6608643700189076 0.0998430502522631 0.2322554695924350	0.149519
H	0.5412703185949400 0.1063806714932326 0.1383401998941982	0.131194
H	0.5219695271804844 0.3366344306069809 0.2324819180405320	0.282059
H	0.2180007537254345 0.6714971033742878 0.5383121780672000	0.152162
H	0.1281588111722508 0.7028408524705930 0.6739995935819292	0.140920
H	0.1509187157284714 0.5781389676742087 0.6285577858500409	0.134273
H	0.1850622100336415 0.9643427060807107 0.7713528450628421	0.151330
H	0.2795031998154662 0.8773256603310327 0.7951259768836629	0.137595
H	0.2753858908591083 0.9743202492767928 0.9431626485481522	0.126375
H	0.3647209198206496 0.5608102676224165 0.6995933568714492	0.284226
H	0.4051427690251399 0.6535513569661657 0.3026311144708786	0.157789
H	0.3491406445067387 0.7670109763633797 0.2500209395841594	0.131943
H	0.4663861683180736 0.7409912977474071 0.1882988828576274	0.139116
H	0.0709939004862195 0.6606509129829140 0.3387761159991947	0.142660
H	0.1608643360189046 0.5998430072522632 0.2322554695924350	0.149519
H	0.0412703545949432 0.6063806194932353 0.1383401998941982	0.131195
H	0.0219695121804867 0.8366344306069809 0.2324819180405320	0.282059
H	0.2819992282745711 0.1714972063742856 0.4616878539327955	0.152162
H	0.3718411718277444 0.2028409214705955 0.3260004714180726	0.140915
H	0.3490812632715303 0.0781390276742140 0.3714422141499595	0.134274
H	0.3149378019663593 0.4643427740807163 0.2286471229371626	0.151336
H	0.2204968291845327 0.3773256263310295 0.2048739911163341	0.137586
H	0.2246141381408975 0.4743202492767932 0.0568373244518493	0.126409
H	0.1352790471793514 0.0608102246224164 0.3004065481285468	0.284243
H	0.0948572209748591 0.1535513909661693 0.6973689175291237	0.157788
H	0.1508593514932609 0.2670109413633799 0.7499790604158407	0.131942
H	0.0336138276819261 0.2409912467474132 0.8117011491423684	0.139114
H	0.4290061215137824 0.1606508959829164 0.6612238840008051	0.142658
H	0.3391356919810981 0.0998430502522631 0.7677444824075612	0.149532
H	0.4587296464050604 0.1063806714932326 0.8616598401058050	0.131192
H	0.4780304338195159 0.3366344306069809 0.7675180349594677	0.282057
H	0.7819992952745660 0.6714971033742878 0.4616878539327955	0.152162
H	0.8718412728277485 0.7028408524705930 0.3260004714180726	0.140915
H	0.8490812632715304 0.5781389676742087 0.3714422141499595	0.134274
H	0.8149378019663593 0.9643427060807107 0.2286471229371626	0.151328
H	0.7204968291845322 0.8773256603310327 0.2048739911163341	0.137597
H	0.7246141381408975 0.9743202492767928 0.0568373244518493	0.126373
H	0.6352790381793537 0.5608102676224165 0.3004065481285468	0.284242
H	0.5948573299748575 0.6535513569661657 0.6973689175291237	0.157788
H	0.6508592844932589 0.7670109763633797 0.7499790604158407	0.131942
H	0.5336138636819219 0.7409912977474071 0.8117011491423684	0.139116
H	0.9290060545137804 0.6606509129829140 0.6612238840008051	0.142658
H	0.8391356249810955 0.5998430072522632 0.7677444824075612	0.149532
H	0.9587296464050606 0.6063806194932353 0.8616598401058050	0.131192
H	0.9780303998195202 0.8366344306069809 0.7675180349594677	0.282057
N	0.8375420732832252 0.0934634249298246 0.8024115262144116	-0.149534
N	0.6002359650852425 0.3956244304774364 0.0530465484812507	-0.260422
N	0.8961671097142819 0.1069744627467561 0.9457408439674638	-0.260125
N	0.5703051019248974 0.3212393749816875 0.1469530077676530	-0.143215
N	0.3375420732832248 0.5934633479298287 0.8024115262144116	-0.149531
N	0.1002360320852448 0.8956244304774365 0.0530465484812507	-0.260433
N	0.3961671437142846 0.6069745137467568 0.9457408439674638	-0.260119
N	0.0703050939248968 0.8212393399816881 0.1469530077676530	-0.143215
N	0.1624579087167736 0.0934634249298246 0.1975885217855853	-0.149507
N	0.3997639289147553 0.3956244304774364 0.9469534275187474	-0.260422
N	0.1038328602857156 0.1069744627467561 0.0542591360325347	-0.260188
N	0.4296948950751059 0.3212393749816875 0.8530470082323485	-0.143214
N	0.6624579257167712 0.5934633479298287 0.1975885217855853	-0.149504
N	0.8997640299147607 0.8956244304774365 0.9469534275187474	-0.260433
N	0.6038328852857211 0.6069745137467568 0.0542591360325347	-0.260181
N	0.9296949290751017 0.8212393399816881 0.8530470082323485	-0.143214
Si	0.4999999979999998 0.4727357514201402 0.5000000000000000	1.698467
Si	-0.0000000000000000 0.9727357514201403 0.5000000000000000	1.698468
Ni	0.5000000000000000 0.5049212996606033 0.0000000000000000	0.807910
Ni	-0.0000000000000000 0.0049213066606071 0.0000000000000000	0.807961
	  	
