#======================================================================

# CRYSTAL DATA

#----------------------------------------------------------------------

data_VESTA_phase_1


_pd_phase_name                         SIFSIX_3_Fe
_cell_length_a                         14.39649
_cell_length_b                         14.39649
_cell_length_c                         7.57944
_cell_angle_alpha                      90
_cell_angle_beta                       90
_cell_angle_gamma                      90
_symmetry_space_group_name_H-M         P 1
_symmetry_Int_Tables_number            1

loop_
_symmetry_equiv_pos_as_xyz
   x, y, z

loop_
   _atom_site_label
   _atom_site_fract_x
   _atom_site_fract_y
   _atom_site_fract_z
   _atom_site_charge
C	0.2714565074933838 0.4516604216985476 0.6461915429999835	0.062105
C	0.2285434925066163 0.0483395823014528 0.6461915429999835	0.062105
C	0.2285434925066163 0.4516604216985476 0.3538084250000141	0.062106
C	0.2714565074933838 0.0483395823014528 0.3538084250000141	0.062107
C	0.0483395823014528 0.2714565074933838 0.3538084250000141	0.062107
C	0.4516604216985476 0.2285434925066163 0.3538084250000141	0.062107
C	0.4516604216985476 0.2714565074933838 0.6461915429999835	0.062108
C	0.0483395823014528 0.2285434925066163 0.6461915429999835	0.062108
C	0.9516603536985491 0.2285434925066163 0.6461915429999835	0.062118
C	0.5483396463014509 0.2714565074933838 0.6461915429999835	0.062119
C	0.5483396463014509 0.2285434925066163 0.3538084250000141	0.062119
C	0.9516603536985491 0.2714565074933838 0.3538084250000141	0.062119
C	0.7285435095066146 0.0483395823014528 0.3538084250000141	0.062116
C	0.7714564904933854 0.4516604216985476 0.3538084250000141	0.062115
C	0.7714564904933854 0.0483395823014528 0.6461915429999835	0.062117
C	0.7285435095066146 0.4516604216985476 0.6461915429999835	0.062117
C	0.4516604216985476 0.7285435095066146 0.6461915429999835	0.062114
C	0.0483395823014528 0.7714564904933854 0.6461915429999835	0.062115
C	0.0483395823014528 0.7285435095066146 0.3538084250000141	0.062115
C	0.4516604216985476 0.7714564904933854 0.3538084250000141	0.062115
C	0.2285434925066163 0.5483396463014509 0.3538084250000141	0.062120
C	0.2714565074933838 0.9516603536985491 0.3538084250000141	0.062119
C	0.2714565074933838 0.5483396463014509 0.6461915429999835	0.062121
C	0.2285434925066163 0.9516603536985491 0.6461915429999835	0.062120
C	0.7714564904933854 0.9516603536985491 0.6461915429999835	0.062127
C	0.7285435095066146 0.5483396463014509 0.6461915429999835	0.062127
C	0.7285435095066146 0.9516603536985491 0.3538084250000141	0.062127
C	0.7714564904933854 0.5483396463014509 0.3538084250000141	0.062128
C	0.5483396463014509 0.7714564904933854 0.3538084250000141	0.062129
C	0.9516603536985491 0.7285435095066146 0.3538084250000141	0.062128
C	0.9516603536985491 0.7714564904933854 0.6461915429999835	0.062129
C	0.5483396463014509 0.7285435095066146 0.6461915429999835	0.062129
H	0.2884191090180095 0.4130737856961911 0.7657935713172941	0.111132
H	0.2115808569819877 0.0869262143038088 0.7657935713172941	0.111132
H	0.2115808569819877 0.4130737856961911 0.2342063976827069	0.111133
H	0.2884191090180095 0.0869262143038088 0.2342063976827069	0.111132
H	0.0869262143038088 0.2884191090180095 0.2342063976827069	0.111132
H	0.4130737856961911 0.2115808569819877 0.2342063976827069	0.111132
H	0.4130737856961911 0.2884191090180095 0.7657935713172941	0.111131
H	0.0869262143038088 0.2115808569819877 0.7657935713172941	0.111131
H	0.9130738536961969 0.2115808569819877 0.7657935713172941	0.111130
H	0.5869261463038031 0.2884191090180095 0.7657935713172941	0.111129
H	0.5869261463038031 0.2115808569819877 0.2342063976827069	0.111130
H	0.9130738536961969 0.2884191090180095 0.2342063976827069	0.111130
H	0.7115808229819919 0.0869262143038088 0.2342063976827069	0.111134
H	0.7884191770180081 0.4130737856961911 0.2342063976827069	0.111134
H	0.7884191770180081 0.0869262143038088 0.7657935713172941	0.111133
H	0.7115808229819919 0.4130737856961911 0.7657935713172941	0.111133
H	0.4130737856961911 0.7115808229819919 0.7657935713172941	0.111134
H	0.0869262143038088 0.7884191770180081 0.7657935713172941	0.111134
H	0.0869262143038088 0.7115808229819919 0.2342063976827069	0.111135
H	0.4130737856961911 0.7884191770180081 0.2342063976827069	0.111134
H	0.2115808569819877 0.5869261463038031 0.2342063976827069	0.111130
H	0.2884191090180095 0.9130738536961969 0.2342063976827069	0.111129
H	0.2884191090180095 0.5869261463038031 0.7657935713172941	0.111128
H	0.2115808569819877 0.9130738536961969 0.7657935713172941	0.111129
H	0.7884191770180081 0.9130738536961969 0.7657935713172941	0.111131
H	0.7115808229819919 0.5869261463038031 0.7657935713172941	0.111132
H	0.7115808229819919 0.9130738536961969 0.2342063976827069	0.111132
H	0.7884191770180081 0.5869261463038031 0.2342063976827069	0.111132
H	0.5869261463038031 0.7884191770180081 0.2342063976827069	0.111131
H	0.9130738536961969 0.7115808229819919 0.2342063976827069	0.111132
H	0.9130738536961969 0.7884191770180081 0.7657935713172941	0.111130
H	0.5869261463038031 0.7115808229819919 0.7657935713172941	0.111131
Fe	0.2500000000000000 0.2500000000000000 0.5000000000000000	0.798677
Fe	0.7500000340000028 0.2500000000000000 0.5000000000000000	0.798684
Fe	0.2500000000000000 0.7500000340000028 0.5000000000000000	0.798684
Fe	0.7500000340000028 0.7500000340000028 0.5000000000000000	0.798690
Si	0.2500000000000000 0.2500000000000000 -0.0000000000000000	1.717680
Si	0.7500000340000028 0.2500000000000000 -0.0000000000000000	1.717680
Si	0.2500000000000000 0.7500000340000028 -0.0000000000000000	1.717680
Si	0.7500000340000028 0.7500000340000028 -0.0000000000000000	1.717680
F	0.2500000000000000 0.2500000000000000 0.7655423455260677	-0.476587
F	0.2500000000000000 0.2500000000000000 0.2344576544739323	-0.476587
F	0.3330738010659735 0.3330738010659735 -0.0005666762555111	-0.524994
F	0.1669261989340265 0.1669261989340265 -0.0005666762555111	-0.524992
F	0.1669261989340265 0.3330738010659735 0.0005666972555091	-0.524993
F	0.3330738010659735 0.1669261989340265 0.0005666972555091	-0.524993
F	0.7500000340000028 0.2500000000000000 0.7655423455260677	-0.476587
F	0.7500000340000028 0.2500000000000000 0.2344576544739323	-0.476587
F	0.8330738350659765 0.3330738010659735 0.0005666972555091	-0.524994
F	0.6669261649340235 0.1669261989340265 0.0005666972555091	-0.524992
F	0.6669261649340235 0.3330738010659735 -0.0005666762555111	-0.524993
F	0.8330738350659765 0.1669261989340265 -0.0005666762555111	-0.524993
F	0.2500000000000000 0.7500000340000028 0.7655423455260677	-0.476587
F	0.2500000000000000 0.7500000340000028 0.2344576544739323	-0.476587
F	0.3330738010659735 0.8330738350659765 0.0005666972555091	-0.524994
F	0.1669261989340265 0.6669261649340235 0.0005666972555091	-0.524992
F	0.1669261989340265 0.8330738350659765 -0.0005666762555111	-0.524993
F	0.3330738010659735 0.6669261649340235 -0.0005666762555111	-0.524993
F	0.7500000340000028 0.7500000340000028 0.7655423455260677	-0.476586
F	0.7500000340000028 0.7500000340000028 0.2344576544739323	-0.476586
F	0.8330738350659765 0.8330738350659765 -0.0005666762555111	-0.524994
F	0.6669261649340235 0.6669261649340235 -0.0005666762555111	-0.524992
F	0.6669261649340235 0.8330738350659765 0.0005666972555091	-0.524993
F	0.8330738350659765 0.6669261649340235 0.0005666972555091	-0.524993
N	0.4030654477723135 0.2500000000000000 0.5000000000000000	-0.212290
N	0.0969345522276866 0.2500000000000000 0.5000000000000000	-0.212289
N	0.2500000000000000 0.4030654477723135 0.5000000000000000	-0.212290
N	0.2500000000000000 0.0969345522276866 0.5000000000000000	-0.212289
N	0.9030654477723131 0.2500000000000000 0.5000000000000000	-0.212292
N	0.5969345522276869 0.2500000000000000 0.5000000000000000	-0.212291
N	0.7500000340000028 0.4030654477723135 0.5000000000000000	-0.212315
N	0.7500000340000028 0.0969345522276866 0.5000000000000000	-0.212314
N	0.4030654477723135 0.7500000340000028 0.5000000000000000	-0.212314
N	0.0969345522276866 0.7500000340000028 0.5000000000000000	-0.212313
N	0.2500000000000000 0.9030654477723131 0.5000000000000000	-0.212292
N	0.2500000000000000 0.5969345522276869 0.5000000000000000	-0.212292
N	0.9030654477723131 0.7500000340000028 0.5000000000000000	-0.212317
N	0.5969345522276869 0.7500000340000028 0.5000000000000000	-0.212316
N	0.7500000340000028 0.9030654477723131 0.5000000000000000	-0.212317
N	0.7500000340000028 0.5969345522276869 0.5000000000000000	-0.212316
	  	
