#======================================================================

# CRYSTAL DATA

#----------------------------------------------------------------------

data_VESTA_phase_1


_pd_phase_name                         SIFSIX_13_Ni_i
_cell_length_a                         15.08694
_cell_length_b                         15.08399
_cell_length_c                         7.77464
_cell_angle_alpha                      89.79013
_cell_angle_beta                       90.16223
_cell_angle_gamma                      89.82047
_symmetry_space_group_name_H-M         P 1
_symmetry_Int_Tables_number            1

loop_
_symmetry_equiv_pos_as_xyz
   x, y, z

loop_
   _atom_site_label
   _atom_site_fract_x
   _atom_site_fract_y
   _atom_site_fract_z
   _atom_site_charge
C	0.5404667156999278 0.6775395341959791 0.8685810271555454	0.099917
C	0.5437496676295979 0.7699292781589447 0.8670159789938535	-0.147850
C	0.4632575505684446 0.3253006876661468 0.8742811422201602	0.098431
C	0.4598515149112065 0.2330066909938645 0.8753738181318569	-0.140138
C	0.8203868209432246 0.9733366889165731 0.3621746841560734	0.109150
C	0.7286087858195786 0.9701266421720839 0.3585184401673940	-0.134947
C	0.3246510261416705 0.5414828824993531 0.8661195137953295	0.098137
C	0.2322772401473308 0.5456644791727955 0.8641999320705468	-0.146977
C	0.1815522283798348 0.9708992936351857 0.3534296793855483	0.102261
C	0.2734207293081729 0.9694820604349379 0.3507685600067308	-0.136404
C	0.6768605000693373 0.4627980115353487 0.8801157902625236	0.098904
C	0.7691089202888924 0.4598321948301936 0.8805017655829324	-0.140298
C	0.4552019477111224 0.6776723465486338 0.1176934765119691	0.101108
C	0.4515302474940943 0.7699255080533235 0.1183829160494952	-0.137282
C	0.5396930151753887 0.3266949496332127 0.1352046049591307	0.096470
C	0.5427070561804089 0.2342806779103851 0.1396334513871822	-0.146525
C	0.1797261935608485 0.0200932574932836 0.6374567053740666	0.109693
C	0.2714510390502046 0.0226015408415406 0.6442554733482939	-0.137545
C	0.6749944375612988 0.5432493544592376 0.1352400036207402	0.099371
C	0.7674230056050957 0.5469599399596509 0.1385065168771246	-0.147360
C	0.8204167500850379 0.0299020040343023 0.6409984294021345	0.101686
C	0.7286007636390193 0.0309629316277869 0.6464544663250162	-0.135557
C	0.3238559338501882 0.4583825621296413 0.1191940123395820	0.102109
C	0.2315718780286048 0.4555435615027891 0.1195428728873781	-0.139683
C	0.9653185942349500 0.8184352825735046 0.6372361489614305	0.108951
C	0.9639947229186604 0.7265028909278347 0.6436778977652658	-0.134668
C	0.9834468380079442 0.1782647234618878 0.6426668587178799	0.100537
C	0.9795212269294481 0.2699487203892582 0.6457869338425787	-0.135855
C	0.0212432100208010 0.8175632659495439 0.3579551377530889	0.101511
C	0.0243353246307163 0.7258333808013191 0.3553952033177409	-0.137804
C	0.0315047734299062 0.1779842124330004 0.3577453415887922	0.110644
C	0.0315827227785078 0.2699041011585429 0.3513608518058123	-0.136998
C	0.0039179307292446 0.3162466384942780 0.4973410627958085	0.041865
C	0.0009398346036929 0.4127362599688487 0.4971802606045662	0.254673
C	0.4979244113748238 0.8176341439290000 0.9928771980572185	0.056943
C	0.4989095445293413 0.9160351538327030 0.9974485089883405	0.248922
C	0.9951427186697791 0.6797229757555356 0.5008677381496738	0.038404
C	0.9971074602284182 0.5830856499993095 0.5008114986514273	0.247495
C	0.5011184724825332 0.1859810563263213 0.0091241067514213	0.056742
C	0.5004430919169556 0.0874697912042865 0.0099731484395158	0.251653
C	0.6822209735594396 0.9998907360681353 0.5029166235628343	0.036826
C	0.5856600475576702 0.9977084945916750 0.5041080201789546	0.246554
C	0.1842451492667009 0.5011991048249692 0.9915889348619371	0.057457
C	0.0858180031366088 0.5022096866315398 0.9938959381143232	0.249810
C	0.3188134710996850 0.9960742001086237 0.4988070312019520	0.041224
C	0.4153276247410442 0.9960349002816622 0.5019419628119421	0.253897
C	0.8159402560456350 0.5036672517476131 0.0104376415460644	0.057584
C	0.9144139512696238 0.5035329800839085 0.0079489624193250	0.248290
H	0.5707035967139413 0.6385979081674348 0.7661675683777571	0.117829
H	0.5808825931659444 0.8033795018633014 0.7659518179371401	0.126180
H	0.4363567032119359 0.3637873194208604 0.7668375824924196	0.118792
H	0.4276132694316169 0.1981654399384410 0.7700661929052807	0.120966
H	0.8594680067045349 0.9524590698575632 0.2518109455878713	0.109052
H	0.6940106700603618 0.9457442172122392 0.2452213773534939	0.119044
H	0.3637313595867969 0.5705212312672104 0.7622890501894832	0.118333
H	0.1991369954254825 0.5823945101141265 0.7615520336951371	0.126635
H	0.1436660359600406 0.9536119665930176 0.2389836630256659	0.103233
H	0.3084664773575831 0.9497297804419113 0.2347531361162290	0.115295
H	0.6384246789605809 0.4343301618281200 0.7750655803297012	0.118175
H	0.8040694082183982 0.4261233266098677 0.7771803425357078	0.120135
H	0.4249604112472924 0.6386102588155752 0.2200689181677155	0.118446
H	0.4159083820224831 0.8041624566244908 0.2201178038842815	0.118945
H	0.5667440993412736 0.3661482608327961 0.2405249673439345	0.118987
H	0.5760521367441122 0.2013684348099659 0.2467888200230318	0.126186
H	0.1400027361445429 0.0383899086553126 0.7485774267201885	0.108126
H	0.3050847991165205 0.0433555282059884 0.7612909850818441	0.118188
H	0.6354544862253556 0.5717383882596714 0.2388977006536633	0.118567
H	0.8001449421911389 0.5822274669650929 0.2428462254205150	0.126267
H	0.8590676260028630 0.0499947297252598 0.7526416647596725	0.102462
H	0.6943072627603840 0.0537839530159109 0.7611358067501994	0.120279
H	0.3625673859551885 0.4287483489817935 0.2233515795219447	0.116965
H	0.1969878974542529 0.4209139354842044 0.2223551035452978	0.119259
H	0.9442723871127584 0.8578627059049146 0.7470535447207440	0.109873
H	0.9408089498229639 0.6923964879920702 0.7586505710957838	0.117929
H	0.9676959861705513 0.1396929131482132 0.7570156007816187	0.101263
H	0.9590414206296454 0.3044119333908626 0.7618609558317819	0.119051
H	0.0404630592621150 0.8558467901005928 0.2452400039164399	0.101668
H	0.0481005406945186 0.6912114621144503 0.2419424161261662	0.118988
H	0.0502139553460892 0.1387469035920009 0.2460828758054662	0.109603
H	0.0508295752758056 0.3043705980097812 0.2340246617422999	0.117948
N	0.9434955013607169 0.5396802116258973 0.6114748457893828	-0.136595
N	0.4208470969908257 0.0465239725680879 0.0091259955070287	-0.148851
N	0.5431598269254153 0.0507697007447135 0.6169990246560753	-0.136093
N	0.9558681198871528 0.4239792309234721 0.0028529187173589	-0.146377
N	0.0521279932791727 0.5432287923120176 0.3876228347326958	-0.134213
N	0.5792480275890854 0.0446201809782366 0.0115718488766496	-0.147725
N	0.9566546847874476 0.5824071329849947 0.0051559087960971	-0.146347
N	0.5450069251295342 0.9416384830394819 0.3941245699757371	-0.133142
N	0.0544915169751161 0.4561746205644449 0.3866846572575348	-0.132277
N	0.5784740762301204 0.9570061777287965 0.0009699864047033	-0.145763
N	0.4578861137060800 0.9407581843151970 0.3934039686375308	-0.130473
N	0.0442565362291630 0.5817283552838283 0.9940933814174301	-0.145166
N	0.9450217945324726 0.4525136382042208 0.6084772824191499	-0.132153
N	0.4201728172753822 0.9587676993798248 0.0058350298132798	-0.144202
N	0.0435951565695543 0.4233056303365732 0.9984771354161445	-0.147575
N	0.4560507995551480 0.0499912255586778 0.6154896198996703	-0.135105
N	0.0073156174853744 0.1334364530341820 0.5005968055170246	-0.226158
N	0.4982542673035464 0.6321766219816889 0.9939013962225660	-0.161412
N	0.9937417532843847 0.8627391890216550 0.4970712387905549	-0.224485
N	0.5014811337976366 0.3713081916617321 0.0034255920395176	-0.163597
N	0.8650909242156883 0.0023175093708367 0.5012352907073157	-0.226213
N	0.3696254488155896 0.4998450003050274 0.9934343664108812	-0.163797
N	0.1359281084136297 0.9947277867246402 0.4946561242567040	-0.225978
N	0.6305474487053998 0.5028421162167943 0.0066002622995127	-0.160923
Ni	0.0004564505964927 0.9981385281181206 0.4980448080853154	0.744165
Ni	0.5000926925432111 0.5014911222473166 0.9993446489481709	0.487252
Si	0.9998231545829857 0.9971422880150254 0.9983531287406348	1.715092
Si	0.4993507568523226 0.5035417234766670 0.4989165886474601	1.721650
F	0.9983059071234454 0.0006241659293407 0.2261040094339505	-0.508597
F	0.5062354741057727 0.5001142240917725 0.7174799894518733	-0.515218
F	0.0016338247919805 0.9938989010244900 0.7704783945336896	-0.508508
F	0.4923838289026882 0.5066076189702892 0.2804021514885713	-0.515780
F	0.0798063635653054 0.0763997206734410 0.9959361410587106	-0.529726
F	0.5779842700041447 0.5863608007116349 0.4942222429730588	-0.556443
F	0.9198595656225708 0.9181579521316491 0.0005569832750914	-0.529128
F	0.4209579603698365 0.4207139318207309 0.5036802870054854	-0.559356
F	0.9207040595004949 0.0775295981895718 0.9904231472802821	-0.525687
F	0.4168717671065174 0.5825706465677958 0.5112739560878848	-0.556418
F	0.0792483308057865 0.9170796163384697 0.0063343280708992	-0.525501
F	0.5824518531550669 0.4249845269371175 0.4860857330214211	-0.557174
	  	
