#======================================================================

# CRYSTAL DATA

#----------------------------------------------------------------------

data_VESTA_phase_1


_pd_phase_name                         SIFSIX_16_Fe_i
_cell_length_a                         25.21072
_cell_length_b                         25.21072
_cell_length_c                         7.51136
_cell_angle_alpha                      90
_cell_angle_beta                       90
_cell_angle_gamma                      90
_symmetry_space_group_name_H-M         P 1
_symmetry_Int_Tables_number            1

loop_
_symmetry_equiv_pos_as_xyz
   x, y, z

loop_
   _atom_site_label
   _atom_site_fract_x
   _atom_site_fract_y
   _atom_site_fract_z
   _atom_site_charge
C	0.4775141790209582 0.3862749118223188 0.3653354255249910	0.100683
C	0.4765283587316199 0.3312411097760887 0.3603343767559547	-0.172057
C	0.9549214900173585 0.6128821157555073 0.9434623917187462	-0.126524
C	0.9550592532063436 0.5577991502471072 0.9442211110357485	-0.124970
C	0.5224858589790377 0.6137251261776770 0.3653354255249910	0.100683
C	0.5234716412683798 0.6687589282239076 0.3603343767559547	-0.172058
C	0.0450784339826423 0.3871178452444927 0.9434623917187462	-0.126526
C	0.0449407657936543 0.4422008877528958 0.9442211110357485	-0.124990
C	0.6137251261776770 0.4775141790209582 0.3653354255249910	0.100683
C	0.6687589282239076 0.4765283587316199 0.3603343767559547	-0.172058
C	0.3871178452444927 0.9549214900173585 0.9434623917187462	-0.126524
C	0.4422008877528958 0.9550592532063436 0.9442211110357485	-0.124970
C	0.3862749118223188 0.5224858589790377 0.3653354255249910	0.100683
C	0.3312411097760887 0.5234716412683798 0.3603343767559547	-0.172057
C	0.6128821157555073 0.0450784339826423 0.9434623917187462	-0.126526
C	0.5577991502471072 0.0449407657936543 0.9442211110357485	-0.124991
C	0.5224858589790377 0.3862749118223188 0.6346645744750091	0.100684
C	0.5234716412683798 0.3312411097760887 0.6396655912440425	-0.172056
C	0.0450784339826423 0.6128821157555073 0.0565376202812550	-0.126526
C	0.0449407657936543 0.5577991502471072 0.0557788649642497	-0.124990
C	0.4775141790209582 0.6137251261776770 0.6346645744750091	0.100684
C	0.4765283587316199 0.6687589282239076 0.6396655912440425	-0.172057
C	0.9549214900173585 0.3871178452444927 0.0565376202812550	-0.126524
C	0.9550592532063436 0.4422008877528958 0.0557788649642497	-0.124970
C	0.3862749118223188 0.4775141790209582 0.6346645744750091	0.100684
C	0.3312411097760887 0.4765283587316199 0.6396655912440425	-0.172056
C	0.6128821157555073 0.9549214900173585 0.0565376202812550	-0.126524
C	0.5577991502471072 0.9550592532063436 0.0557788649642497	-0.124970
C	0.6137251261776770 0.5224858589790377 0.6346645744750091	0.100684
C	0.6687589282239076 0.5234716412683798 0.6396655912440425	-0.172057
C	0.3871178452444927 0.0450784339826423 0.0565376202812550	-0.126526
C	0.4422008877528958 0.0449407657936543 0.0557788649642497	-0.124990
C	0.5450784719826455 0.8871178072444970 0.5565376402812493	-0.126549
C	0.5449407467936564 0.9422008877528959 0.5557788569642489	-0.124986
C	0.0224858129790411 0.1137250691776830 0.1346645744750092	0.100683
C	0.0234716392683797 0.1687588902239114 0.1396656072440439	-0.172057
C	0.4549215660173577 0.1128821637555043 0.5565376402812493	-0.126549
C	0.4550592152063477 0.0577990972471065 0.5557788569642489	-0.124985
C	0.9775141410209623 0.8862748738223230 0.1346645744750092	0.100683
C	0.9765283587316202 0.8312411097760884 0.1396656072440439	-0.172058
C	0.1128821637555043 0.5450784719826455 0.5565376402812493	-0.126548
C	0.0577990972471065 0.5449407467936564 0.5557788569642489	-0.124986
C	0.8862748738223230 0.0224858129790411 0.1346645744750092	0.100683
C	0.8312411097760884 0.0234716392683797 0.1396656072440439	-0.172058
C	0.8871178072444970 0.4549215660173577 0.5565376402812493	-0.126549
C	0.9422008877528959 0.4550592152063477 0.5557788569642489	-0.124986
C	0.1137250691776830 0.9775141410209623 0.1346645744750092	0.100683
C	0.1687588902239114 0.9765283587316202 0.1396656072440439	-0.172057
C	0.4549215660173577 0.8871178072444970 0.4434623917187460	-0.126549
C	0.4550592152063477 0.9422008877528959 0.4442211430357509	-0.124986
C	0.9775141410209623 0.1137250691776830 0.8653354575249864	0.100684
C	0.9765283587316202 0.1687588902239114 0.8603343767559548	-0.172056
C	0.5450784719826455 0.1128821637555043 0.4434623917187460	-0.126548
C	0.5449407467936564 0.0577990972471065 0.4442211430357509	-0.124985
C	0.0224858129790411 0.8862748738223230 0.8653354575249864	0.100684
C	0.0234716392683797 0.8312411097760884 0.8603343767559548	-0.172057
C	0.8871178072444970 0.5450784719826455 0.4434623917187460	-0.126549
C	0.9422008877528959 0.5449407467936564 0.4442211430357509	-0.124986
C	0.1137250691776830 0.0224858129790411 0.8653354575249864	0.100684
C	0.1687588902239114 0.0234716392683797 0.8603343767559548	-0.172056
C	0.1128821637555043 0.4549215660173577 0.4434623917187460	-0.126548
C	0.0577990972471065 0.4550592152063477 0.4442211430357509	-0.124986
C	0.8862748738223230 0.9775141410209623 0.8653354575249864	0.100684
C	0.8312411097760884 0.9765283587316202 0.8603343767559548	-0.172057
C	0.5000000000000000 0.3023162956586265 0.5000000000000000	0.170912
C	0.5000000000000000 0.2460607269437017 0.5000000000000000	-0.114591
C	0.5000000000000000 0.1976605707008130 0.5000000000000000	-0.097509
C	0.5000000000000000 0.1414202584344953 0.5000000000000000	0.125037
C	0.5000000000000000 0.0292259367391769 0.5000000000000000	0.066588
C	-0.0000000000000000 0.8023162766586216 0.0000000000000000	0.170913
C	-0.0000000000000000 0.7460607069437002 0.0000000000000000	-0.114600
C	-0.0000000000000000 0.6976605327008166 0.0000000000000000	-0.097479
C	-0.0000000000000000 0.6414202204344920 0.0000000000000000	0.124933
C	-0.0000000000000000 0.5292259507391781 0.0000000000000000	0.066582
C	0.5000000000000000 0.6976836853413753 0.5000000000000000	0.170912
C	0.5000000000000000 0.7539393310562958 0.5000000000000000	-0.114591
C	0.5000000000000000 0.8023394292991873 0.5000000000000000	-0.097510
C	0.5000000000000000 0.8585797415655049 0.5000000000000000	0.125037
C	0.5000000000000000 0.9707740492608219 0.5000000000000000	0.066589
C	-0.0000000000000000 0.1976837043413733 0.0000000000000000	0.170913
C	-0.0000000000000000 0.2539392730562983 0.0000000000000000	-0.114600
C	-0.0000000000000000 0.3023394092991854 0.0000000000000000	-0.097479
C	-0.0000000000000000 0.3585797415655048 0.0000000000000000	0.124933
C	-0.0000000000000000 0.4707740872608250 0.0000000000000000	0.066582
C	0.6976836853413753 0.5000000000000000 0.5000000000000000	0.170912
C	0.7539393310562958 0.5000000000000000 0.5000000000000000	-0.114591
C	0.8023394292991872 0.5000000000000000 0.5000000000000000	-0.097510
C	0.8585797415655049 0.5000000000000000 0.5000000000000000	0.125037
C	0.9707740492608219 0.5000000000000000 0.5000000000000000	0.066588
C	0.1976837043413733 0.0000000000000000 0.0000000000000000	0.170913
C	0.2539392730562983 0.0000000000000000 0.0000000000000000	-0.114600
C	0.3023394092991854 0.0000000000000000 0.0000000000000000	-0.097479
C	0.3585797415655048 0.0000000000000000 0.0000000000000000	0.124933
C	0.4707740872608250 0.0000000000000000 0.0000000000000000	0.066581
C	0.3023162956586265 0.5000000000000000 0.5000000000000000	0.170912
C	0.2460607269437017 0.5000000000000000 0.5000000000000000	-0.114591
C	0.1976605707008130 0.5000000000000000 0.5000000000000000	-0.097509
C	0.1414202584344953 0.5000000000000000 0.5000000000000000	0.125037
C	0.0292259367391769 0.5000000000000000 0.5000000000000000	0.066589
C	0.8023162766586216 0.0000000000000000 0.0000000000000000	0.170913
C	0.7460607069437002 0.0000000000000000 0.0000000000000000	-0.114600
C	0.6976605327008166 0.0000000000000000 0.0000000000000000	-0.097479
C	0.6414202204344920 0.0000000000000000 0.0000000000000000	0.124933
C	0.5292259507391781 0.0000000000000000 0.0000000000000000	0.066583
H	0.4604551553371168 0.4095239334400491 0.2568739637410659	0.103390
H	0.4579547671727878 0.3109964343711887 0.2485711874665555	0.123288
H	0.9200524591610229 0.6344621401229298 0.8976177578209764	0.111245
H	0.9201847491768714 0.5365205791196290 0.8961207135242030	0.106720
H	0.5395448446628831 0.5904760665599508 0.2568739637410659	0.103390
H	0.5420452708272158 0.6890036416288106 0.2485711874665555	0.123288
H	0.0799475218389790 0.3655378598770704 0.8976177578209764	0.111208
H	0.0798152798231275 0.4634794598803705 0.8961207135242030	0.106723
H	0.5904760665599508 0.4604551553371168 0.2568739637410659	0.103390
H	0.6890036416288106 0.4579547671727878 0.2485711874665555	0.123288
H	0.3655378598770704 0.9200524591610229 0.8976177578209764	0.111245
H	0.4634794598803705 0.9201847491768714 0.8961207135242030	0.106719
H	0.4095239334400491 0.5395448446628831 0.2568739637410659	0.103390
H	0.3109964343711887 0.5420452708272158 0.2485711874665555	0.123288
H	0.6344621401229298 0.0799475218389790 0.8976177578209764	0.111208
H	0.5365205791196290 0.0798152798231275 0.8961207135242030	0.106723
H	0.5395448446628831 0.4095239334400491 0.7431260202589327	0.103391
H	0.5420452708272158 0.3109964343711887 0.7514288125334445	0.123288
H	0.0799475218389790 0.6344621401229298 0.1023822181790212	0.111208
H	0.0798152798231275 0.5365205791196290 0.1038792864757968	0.106723
H	0.4604551553371168 0.5904760665599508 0.7431260202589327	0.103391
H	0.4579547671727878 0.6890036416288106 0.7514288125334445	0.123288
H	0.9200524591610229 0.3655378598770704 0.1023822181790212	0.111245
H	0.9201847491768714 0.4634794598803705 0.1038792864757968	0.106719
H	0.4095239334400491 0.4604551553371168 0.7431260202589327	0.103391
H	0.3109964343711887 0.4579547671727878 0.7514288125334445	0.123288
H	0.6344621401229298 0.9200524591610229 0.1023822181790212	0.111245
H	0.5365205791196290 0.9201847491768714 0.1038792864757968	0.106720
H	0.5904760665599508 0.5395448446628831 0.7431260202589327	0.103391
H	0.6890036416288106 0.5420452708272158 0.7514288125334445	0.123288
H	0.3655378598770704 0.0799475218389790 0.1023822181790212	0.111208
H	0.4634794598803705 0.0798152798231275 0.1038792864757968	0.106723
H	0.5799475408389771 0.8655378598770702 0.6023822101790209	0.111210
H	0.5798152508231286 0.9634794598803706 0.6038793184757997	0.106722
H	0.0395448546628840 0.0904760375599520 0.2431260362589342	0.103390
H	0.0420452758272123 0.1890035846288093 0.2514288445334401	0.123288
H	0.4200524971610261 0.1344621691229284 0.6023822101790209	0.111210
H	0.4201847101768716 0.0365205641196243 0.6038793184757997	0.106721
H	0.9604551553371169 0.9095240104400449 0.2431260362589342	0.103390
H	0.9579547291727842 0.8109964723711918 0.2514288445334401	0.123288
H	0.1344621691229284 0.5799475408389771 0.6023822101790209	0.111210
H	0.0365205641196243 0.5798152508231286 0.6038793184757997	0.106721
H	0.9095240104400449 0.0395448546628840 0.2431260362589342	0.103390
H	0.8109964723711918 0.0420452758272123 0.2514288445334401	0.123288
H	0.8655378598770702 0.4200524971610261 0.6023822101790209	0.111210
H	0.9634794598803706 0.4201847101768716 0.6038793184757997	0.106722
H	0.0904760375599520 0.9604551553371169 0.2431260362589342	0.103390
H	0.1890035846288093 0.9579547291727842 0.2514288445334401	0.123288
H	0.4200524971610261 0.8655378598770702 0.3976177578209768	0.111210
H	0.4201847101768716 0.9634794598803706 0.3961207455241987	0.106722
H	0.9604551553371169 0.0904760375599520 0.7568739477410646	0.103390
H	0.9579547291727842 0.1890035846288093 0.7485711554665599	0.123288
H	0.5799475408389771 0.1344621691229284 0.3976177578209768	0.111210
H	0.5798152508231286 0.0365205641196243 0.3961207455241987	0.106721
H	0.0395448546628840 0.9095240104400449 0.7568739477410646	0.103391
H	0.0420452758272123 0.8109964723711918 0.7485711554665599	0.123288
H	0.8655378598770702 0.5799475408389771 0.3976177578209768	0.111210
H	0.9634794598803706 0.5798152508231286 0.3961207455241987	0.106722
H	0.0904760375599520 0.0395448546628840 0.7568739477410646	0.103391
H	0.1890035846288093 0.0420452758272123 0.7485711554665599	0.123288
H	0.1344621691229284 0.4200524971610261 0.3976177578209768	0.111210
H	0.0365205641196243 0.4201847101768716 0.3961207455241987	0.106721
H	0.9095240104400449 0.9604551553371169 0.7568739477410646	0.103391
H	0.8109964723711918 0.9579547291727842 0.7485711554665599	0.123288
Fe	0.5000000000000000 0.5000000000000000 0.5000000000000000	0.799547
Fe	-0.0000000000000000 0.0000000000000000 0.0000000000000000	0.799547
Si	0.5000000000000000 0.5000000000000000 0.0000000000000000	1.733065
Si	-0.0000000000000000 0.0000000000000000 0.5000000000000000	1.733065
F	0.5000000000000000 0.5000000000000000 0.2330132896742221	-0.471678
F	-0.0000000000000000 0.0000000000000000 0.7330132576742266	-0.471678
F	0.5000000000000000 0.5000000000000000 0.7669866463257796	-0.471678
F	-0.0000000000000000 0.0000000000000000 0.2669867103257781	-0.471678
F	0.5476649234219381 0.5476649234219381 0.0000000000000000	-0.540811
F	0.0476648764219378 0.0476648764219378 0.5000000000000000	-0.540811
F	0.4523351525780682 0.4523351525780682 0.0000000000000000	-0.540811
F	0.9523351145780651 0.9523351145780651 0.5000000000000000	-0.540811
F	0.4523351525780682 0.5476649234219381 0.0000000000000000	-0.540811
F	0.9523351145780651 0.0476648764219378 0.5000000000000000	-0.540811
F	0.5476649234219381 0.4523351525780682 0.0000000000000000	-0.540811
F	0.0476648764219378 0.9523351145780651 0.5000000000000000	-0.540811
N	0.5000000000000000 0.4136022831074803 0.5000000000000000	-0.250346
N	-0.0000000000000000 0.9136023211074837 0.0000000000000000	-0.250346
N	0.5000000000000000 0.5863977168925194 0.5000000000000000	-0.250346
N	-0.0000000000000000 0.0863977258925168 0.0000000000000000	-0.250347
N	0.5863977168925194 0.5000000000000000 0.5000000000000000	-0.250346
N	0.0863977258925168 0.0000000000000000 0.0000000000000000	-0.250347
N	0.4136022831074803 0.5000000000000000 0.5000000000000000	-0.250346
N	0.9136023211074837 0.0000000000000000 0.0000000000000000	-0.250346
	  	
