#======================================================================

# CRYSTAL DATA

#----------------------------------------------------------------------

data_VESTA_phase_1


_pd_phase_name                         SIFSIX_4_Co_i
_cell_length_a                         23.23298
_cell_length_b                         20.17496
_cell_length_c                         9.44721
_cell_angle_alpha                      90
_cell_angle_beta                       90
_cell_angle_gamma                      90
_symmetry_space_group_name_H-M         P 1
_symmetry_Int_Tables_number            1

loop_
_symmetry_equiv_pos_as_xyz
   x, y, z

loop_
   _atom_site_label
   _atom_site_fract_x
   _atom_site_fract_y
   _atom_site_fract_z
   _atom_site_charge
C	0.4190429091144571 0.5985172895585554 0.6280365518775760	0.090740
C	0.3748854738581309 0.5523445073907394 0.6264431787827821	-0.163907
C	0.2775315630938709 0.4481969229975143 0.6258821904844346	-0.115741
C	0.2308405969467158 0.4052940114387699 0.6246811744691700	-0.114423
C	0.1281211495065142 0.3181134619002236 0.6233227011478443	-0.162071
C	0.0812415784971347 0.2756168969356580 0.6263361544351354	0.084536
C	0.9190429921144527 0.0985173005585595 0.6280365518775760	0.090707
C	0.8748854318581345 0.0523444493907420 0.6264431787827821	-0.163919
C	0.7775315840938765 0.9481969699975152 0.6258821904844346	-0.115740
C	0.7308405769467139 0.9052940574387666 0.6246811744691700	-0.114419
C	0.6281211495065137 0.8181135089002241 0.6233227011478443	-0.162112
C	0.5812415634971301 0.7756169899356553 0.6263361544351354	0.084537
C	0.5809570908855435 0.4014826644414413 0.1280365598775764	0.090707
C	0.6251145681418655 0.4476555386092641 0.1264431937827799	-0.163920
C	0.7224684159061235 0.5518030300024848 0.1258821984844358	-0.115738
C	0.7691594230532861 0.5947059885612301 0.1246811824691704	-0.114424
C	0.8718788504934863 0.6818865380997763 0.1233227081478489	-0.162070
C	0.9187584365028699 0.7243830570643450 0.1263361694351329	0.084535
C	0.0809571018855477 0.9014827574414449 0.1280365598775764	0.090740
C	0.1251145261418692 0.9476554466092639 0.1264431937827799	-0.163908
C	0.2224684579061273 0.0518030770024854 0.1258821984844358	-0.115740
C	0.2691593820532860 0.0947059655612317 0.1246811824691704	-0.114424
C	0.3718788924934894 0.1818865490997737 0.1233227081478489	-0.162070
C	0.4187584365028700 0.2243831270643438 0.1263361694351329	0.084535
C	0.5809570908855435 0.5985172895585554 0.8719634171224250	0.090740
C	0.6251145681418655 0.5523445073907394 0.8735567902172189	-0.163907
C	0.7224684159061235 0.4481969229975143 0.8741178405155644	-0.115741
C	0.7691594230532861 0.4052940114387699 0.8753188565308290	-0.114424
C	0.8718788504934863 0.3181134619002236 0.8766773298521547	-0.162072
C	0.9187584365028699 0.2756168969356580 0.8736638765648637	0.084536
C	0.0809571018855477 0.0985173005585595 0.8719634171224250	0.090707
C	0.1251145261418692 0.0523444493907420 0.8735567902172189	-0.163920
C	0.2224684579061273 0.9481969699975152 0.8741178405155644	-0.115740
C	0.2691593820532860 0.9052940574387666 0.8753188565308290	-0.114419
C	0.3718788924934894 0.8181135089002241 0.8766773298521547	-0.162112
C	0.4187584365028700 0.7756169899356553 0.8736638765648637	0.084537
C	0.4190429091144571 0.4014826644414413 0.3719634481224245	0.090707
C	0.3748854738581309 0.4476555386092641 0.3735567902172190	-0.163920
C	0.2775315630938709 0.5518030300024848 0.3741178095155647	-0.115738
C	0.2308405969467158 0.5947059885612301 0.3753187945308314	-0.114424
C	0.1281211495065142 0.6818865380997763 0.3766772678521492	-0.162071
C	0.0812415784971347 0.7243830570643450 0.3736638145648659	0.084535
C	0.9190429921144527 0.9014827574414449 0.3719634481224245	0.090740
C	0.8748854318581345 0.9476554466092639 0.3735567902172190	-0.163908
C	0.7775315840938765 0.0518030770024854 0.3741178095155647	-0.115740
C	0.7308405769467139 0.0947059655612317 0.3753187945308314	-0.114424
C	0.6281211495065137 0.1818865490997737 0.3766772678521492	-0.162071
C	0.5812415634971301 0.2243831270643438 0.3736638145648659	0.084535
C	0.5809570908855435 0.4014826644414413 0.3719634481224245	0.090708
C	0.6251145681418655 0.4476555386092641 0.3735567902172190	-0.163920
C	0.7224684159061235 0.5518030300024848 0.3741178095155647	-0.115738
C	0.7691594230532861 0.5947059885612301 0.3753187945308314	-0.114424
C	0.8718788504934863 0.6818865380997763 0.3766772678521492	-0.162072
C	0.9187584365028699 0.7243830570643450 0.3736638145648659	0.084536
C	0.0809571018855477 0.9014827574414449 0.3719634481224245	0.090741
C	0.1251145261418692 0.9476554466092639 0.3735567902172190	-0.163908
C	0.2224684579061273 0.0518030770024854 0.3741178095155647	-0.115741
C	0.2691593820532860 0.0947059655612317 0.3753187945308314	-0.114424
C	0.3718788924934894 0.1818865490997737 0.3766772678521492	-0.162071
C	0.4187584365028700 0.2243831270643438 0.3736638145648659	0.084536
C	0.4190429091144571 0.5985172895585554 0.8719634171224250	0.090740
C	0.3748854738581309 0.5523445073907394 0.8735567902172189	-0.163908
C	0.2775315630938709 0.4481969229975143 0.8741178405155644	-0.115741
C	0.2308405969467158 0.4052940114387699 0.8753188565308290	-0.114423
C	0.1281211495065142 0.3181134619002236 0.8766773298521547	-0.162072
C	0.0812415784971347 0.2756168969356580 0.8736638765648637	0.084537
C	0.9190429921144527 0.0985173005585595 0.8719634171224250	0.090708
C	0.8748854318581345 0.0523444493907420 0.8735567902172189	-0.163919
C	0.7775315840938765 0.9481969699975152 0.8741178405155644	-0.115740
C	0.7308405769467139 0.9052940574387666 0.8753188565308290	-0.114419
C	0.6281211495065137 0.8181135089002241 0.8766773298521547	-0.162113
C	0.5812415634971301 0.7756169899356554 0.8736638765648637	0.084538
C	0.4190429091144571 0.4014826644414413 0.1280365598775764	0.090708
C	0.3748854738581309 0.4476555386092641 0.1264431937827799	-0.163920
C	0.2775315630938709 0.5518030300024848 0.1258821984844358	-0.115738
C	0.2308405969467158 0.5947059885612301 0.1246811824691704	-0.114424
C	0.1281211495065142 0.6818865380997763 0.1233227081478489	-0.162072
C	0.0812415784971347 0.7243830570643450 0.1263361694351329	0.084536
C	0.9190429921144527 0.9014827574414449 0.1280365598775763	0.090741
C	0.8748854318581345 0.9476554466092639 0.1264431937827799	-0.163908
C	0.7775315840938765 0.0518030770024854 0.1258821984844358	-0.115740
C	0.7308405769467139 0.0947059655612317 0.1246811824691704	-0.114424
C	0.6281211495065137 0.1818865490997736 0.1233227081478489	-0.162072
C	0.5812415634971301 0.2243831270643438 0.1263361694351329	0.084536
C	0.5809570908855435 0.5985172895585554 0.6280365518775760	0.090741
C	0.6251145681418655 0.5523445073907394 0.6264431787827821	-0.163907
C	0.7224684159061235 0.4481969229975143 0.6258821904844346	-0.115741
C	0.7691594230532861 0.4052940114387699 0.6246811744691700	-0.114423
C	0.8718788504934863 0.3181134619002236 0.6233227011478443	-0.162073
C	0.9187584365028699 0.2756168969356580 0.6263361544351354	0.084537
C	0.0809571018855477 0.0985173005585595 0.6280365518775760	0.090708
C	0.1251145261418692 0.0523444493907420 0.6264431787827821	-0.163920
C	0.2224684579061273 0.9481969699975152 0.6258821904844346	-0.115741
C	0.2691593820532860 0.9052940574387666 0.6246811744691700	-0.114419
C	0.3718788924934894 0.8181135089002241 0.6233227011478443	-0.162113
C	0.4187584365028700 0.7756169899356553 0.6263361544351354	0.084538
C	0.3502885906454743 0.5250967052251342 0.7500000149999977	0.115007
C	0.3025858131732954 0.4744031363434223 0.7500000149999977	0.068741
C	0.2047228996982246 0.3834789933183906 0.7500000149999977	0.067882
C	0.1537293876319707 0.3399155726458717 0.7500000149999977	0.099990
C	0.8502885486454784 0.0250966882251368 0.7500000149999977	0.115048
C	0.8025858751732933 0.9744030893434217 0.7500000149999977	0.068732
C	0.7047228996982248 0.8834790163183894 0.7500000149999977	0.067867
C	0.6537293876319710 0.8399155036458695 0.7500000149999977	0.100057
C	0.6497114093545252 0.4749033407748620 0.2500000000000000	0.115049
C	0.6974141248267067 0.5255968636565780 0.2500000000000000	0.068732
C	0.7952771003017752 0.6165210306816109 0.2500000000000000	0.067883
C	0.8462706533680360 0.6600844043541300 0.2500000000000000	0.099990
C	0.1497114203545229 0.9749033877748629 0.2500000000000000	0.115007
C	0.1974142078267027 0.0255968666565746 0.2500000000000000	0.068740
C	0.2952771003017752 0.1165209836816109 0.2500000000000000	0.067883
C	0.3462706123680293 0.1600844383541332 0.2500000000000000	0.099990
C	0.6497114093545252 0.5250967052251342 0.7500000149999977	0.115007
C	0.6974141248267067 0.4744031363434223 0.7500000149999977	0.068740
C	0.7952771003017752 0.3834789933183906 0.7500000149999977	0.067882
C	0.8462706533680360 0.3399155726458717 0.7500000149999977	0.099990
C	0.1497114203545229 0.0250966882251368 0.7500000149999977	0.115049
C	0.1974142078267027 0.9744030893434217 0.7500000149999977	0.068732
C	0.2952771003017752 0.8834790163183894 0.7500000149999977	0.067867
C	0.3462706123680293 0.8399155036458695 0.7500000149999977	0.100057
C	0.3502885906454743 0.4749033407748620 0.2500000000000000	0.115049
C	0.3025858131732954 0.5255968636565780 0.2500000000000000	0.068732
C	0.2047228996982246 0.6165210306816109 0.2500000000000000	0.067883
C	0.1537293876319707 0.6600844043541300 0.2500000000000000	0.099990
C	0.8502885486454784 0.9749033877748629 0.2500000000000000	0.115007
C	0.8025858751732933 0.0255968666565746 0.2500000000000000	0.068740
C	0.7047228996982248 0.1165209836816109 0.2500000000000000	0.067883
C	0.6537293876319710 0.1600844383541332 0.2500000000000000	0.099990
H	0.4371050317519116 0.6179866958124790 0.5294067486160412	0.118122
H	0.3614112190281598 0.5397518156355428 0.5211576201156499	0.107563
H	0.2936444183678452 0.4601932250875778 0.5225062125623934	0.086778
H	0.2149792250001281 0.3891470108423685 0.5219046850952499	0.104646
H	0.1441195240304595 0.3329393325011438 0.5199545095592342	0.124135
H	0.0612105184243624 0.2571758630699307 0.5289461266420279	0.117505
H	0.9371049897519078 0.1179867308124786 0.5294067486160413	0.118127
H	0.8614111780281601 0.0397517516355369 0.5211576201156499	0.107575
H	0.7936443973678470 0.9601932250875773 0.5225062125623934	0.086780
H	0.7149791830001245 0.8891469418423736 0.5219046850952499	0.104647
H	0.6441195140304588 0.8329393325011434 0.5199545095592342	0.124146
H	0.5612105494243618 0.7571758400699324 0.5289461266420279	0.117504
H	0.5628949682480887 0.3820133041875207 0.0294068106160393	0.118127
H	0.6385887809718400 0.4602482313644583 0.0211576201156497	0.107575
H	0.7063556026321530 0.5398067289124189 0.0225062745623914	0.086780
H	0.7850208169998755 0.6108529661576259 0.0219046240952486	0.104646
H	0.8558804859695412 0.6670606214988528 0.0199545095592339	0.124135
H	0.9387894095756384 0.7428241599300676 0.0289460956420290	0.117505
H	0.0628949742480891 0.8820133041875210 0.0294068106160393	0.118122
H	0.1385888219718401 0.9602482313644576 0.0211576201156497	0.107563
H	0.2063556026321531 0.0398067719124188 0.0225062745623914	0.086778
H	0.2850207749998717 0.1108530001576287 0.0219046240952486	0.104647
H	0.3558804859695412 0.1670606444988509 0.0199545095592337	0.124135
H	0.4387894505756385 0.2428241369300694 0.0289460956420290	0.117505
H	0.5628949682480887 0.6179866958124790 -0.0294067676160393	0.118121
H	0.6385887809718400 0.5397518156355428 -0.0211576471156555	0.107563
H	0.7063556026321530 0.4601932250875778 -0.0225062305623877	0.086777
H	0.7850208169998755 0.3891470108423685 -0.0219046780952458	0.104646
H	0.8558804859695412 0.3329393325011437 -0.0199545095592339	0.124135
H	0.9387894095756384 0.2571758630699307 -0.0289461336420321	0.117505
H	0.0628949742480891 0.1179867308124786 -0.0294067676160393	0.118127
H	0.1385888219718401 0.0397517516355369 -0.0211576471156555	0.107575
H	0.2063556026321531 0.9601932250875773 -0.0225062305623877	0.086779
H	0.2850207749998717 0.8891469418423736 -0.0219046780952458	0.104647
H	0.3558804859695412 0.8329393325011434 -0.0199545095592339	0.124146
H	0.4387894505756385 0.7571758400699324 -0.0289461336420321	0.117504
H	0.4371050317519116 0.3820133041875207 0.4705932203839596	0.118127
H	0.3614112190281598 0.4602482313644583 0.4788424108843494	0.107575
H	0.2936444183678452 0.5398067289124189 0.4774937564376076	0.086779
H	0.2149792250001281 0.6108529661576259 0.4780952839047510	0.104646
H	0.1441195240304595 0.6670606214988528 0.4800454594407673	0.124135
H	0.0612105184243624 0.7428241599300676 0.4710538733579719	0.117505
H	0.9371049897519078 0.8820133041875210 0.4705932203839596	0.118122
H	0.8614111780281601 0.9602482313644576 0.4788424108843494	0.107563
H	0.7936443973678470 0.0398067719124188 0.4774937564376076	0.086777
H	0.7149791830001245 0.1108530001576287 0.4780952839047510	0.104646
H	0.6441195140304588 0.1670606444988509 0.4800454594407673	0.124135
H	0.5612105494243618 0.2428241369300694 0.4710538733579719	0.117505
H	0.5628949682480887 0.3820133041875207 0.4705932203839596	0.118127
H	0.6385887809718400 0.4602482313644583 0.4788424108843494	0.107575
H	0.7063556026321530 0.5398067289124189 0.4774937564376076	0.086779
H	0.7850208169998755 0.6108529661576259 0.4780952839047509	0.104646
H	0.8558804859695412 0.6670606214988528 0.4800454594407672	0.124135
H	0.9387894095756384 0.7428241599300676 0.4710538733579719	0.117505
H	0.0628949742480891 0.8820133041875210 0.4705932203839596	0.118122
H	0.1385888219718401 0.9602482313644576 0.4788424108843494	0.107563
H	0.2063556026321531 0.0398067719124188 0.4774937564376076	0.086778
H	0.2850207749998717 0.1108530001576287 0.4780952839047510	0.104646
H	0.3558804859695412 0.1670606444988509 0.4800454594407673	0.124135
H	0.4387894505756385 0.2428241369300694 0.4710538733579719	0.117505
H	0.4371050317519116 0.6179866958124790 -0.0294067676160393	0.118122
H	0.3614112190281598 0.5397518156355428 -0.0211576471156555	0.107563
H	0.2936444183678452 0.4601932250875778 -0.0225062305623877	0.086777
H	0.2149792250001281 0.3891470108423685 -0.0219046780952458	0.104646
H	0.1441195240304595 0.3329393325011437 -0.0199545095592339	0.124135
H	0.0612105184243624 0.2571758630699307 -0.0289461336420321	0.117506
H	0.9371049897519078 0.1179867308124786 -0.0294067676160393	0.118127
H	0.8614111780281601 0.0397517516355369 -0.0211576471156555	0.107575
H	0.7936443973678470 0.9601932250875773 -0.0225062305623877	0.086779
H	0.7149791830001245 0.8891469418423736 -0.0219046780952458	0.104646
H	0.6441195140304588 0.8329393325011434 -0.0199545095592339	0.124145
H	0.5612105494243618 0.7571758400699324 -0.0289461336420321	0.117505
H	0.4371050317519116 0.3820133041875207 0.0294068106160393	0.118128
H	0.3614112190281598 0.4602482313644583 0.0211576201156497	0.107575
H	0.2936444183678452 0.5398067289124189 0.0225062745623914	0.086779
H	0.2149792250001281 0.6108529661576259 0.0219046240952486	0.104646
H	0.1441195240304595 0.6670606214988528 0.0199545095592337	0.124135
H	0.0612105184243624 0.7428241599300676 0.0289460956420290	0.117506
H	0.9371049897519078 0.8820133041875210 0.0294068106160393	0.118122
H	0.8614111780281601 0.9602482313644576 0.0211576201156497	0.107563
H	0.7936443973678470 0.0398067719124188 0.0225062745623914	0.086777
H	0.7149791830001245 0.1108530001576287 0.0219046240952486	0.104646
H	0.6441195140304588 0.1670606444988509 0.0199545095592337	0.124135
H	0.5612105494243618 0.2428241369300694 0.0289460956420290	0.117506
H	0.5628949682480887 0.6179866958124790 0.5294067486160413	0.118122
H	0.6385887809718400 0.5397518156355428 0.5211576201156499	0.107563
H	0.7063556026321530 0.4601932250875778 0.5225062125623934	0.086777
H	0.7850208169998755 0.3891470108423685 0.5219046850952499	0.104646
H	0.8558804859695412 0.3329393325011437 0.5199545095592342	0.124135
H	0.9387894095756384 0.2571758630699307 0.5289461266420279	0.117506
H	0.0628949742480891 0.1179867308124786 0.5294067486160413	0.118128
H	0.1385888219718401 0.0397517516355369 0.5211576201156499	0.107575
H	0.2063556026321531 0.9601932250875773 0.5225062125623934	0.086779
H	0.2850207749998717 0.8891469418423736 0.5219046850952499	0.104647
H	0.3558804859695412 0.8329393325011434 0.5199545095592342	0.124146
H	0.4387894505756385 0.7571758400699324 0.5289461266420279	0.117505
Co	0.5000000000000000 0.6879507600588594 0.7500000149999977	0.582703
Co	-0.0000000000000000 0.1879508180588568 0.7500000149999977	0.582701
Co	0.5000000000000000 0.3120491699411422 0.2500000000000000	0.582701
Co	-0.0000000000000000 0.8120492399411408 0.2500000000000000	0.582703
F	0.5000000000000000 0.6854643210095013 0.4408152701753756	-0.547129
F	-0.0000000000000000 0.1854643560095007 0.4408152701753756	-0.547129
F	0.5000000000000000 0.3145356559904933 0.9408152701753763	-0.547129
F	-0.0000000000000000 0.8145356789904987 0.9408152701753763	-0.547129
F	0.5000000000000000 0.6854643210095013 0.0591847158246230	-0.547129
F	-0.0000000000000000 0.1854643560095007 0.0591847158246230	-0.547129
F	0.5000000000000000 0.3145356559904933 0.5591846998246213	-0.547129
F	-0.0000000000000000 0.8145356789904987 0.5591846998246213	-0.547129
F	0.4481085697666633 0.7452695671086028 0.2500000000000000	-0.569579
F	0.5520127336728864 0.6255692028759904 0.2500000000000000	-0.562985
F	0.9481085697666631 0.2452695671086029 0.2500000000000000	-0.569580
F	0.0520127546728916 0.1255692028759906 0.2500000000000000	-0.562985
F	0.5518913892333370 0.2547304098913986 0.7500000149999977	-0.569579
F	0.4479872663271137 0.3744307971240092 0.7500000149999977	-0.562985
F	0.0518914412333411 0.7547304328913972 0.7500000149999977	-0.569579
F	0.9479872663271136 0.8744307971240096 0.7500000149999977	-0.562985
F	0.5518913892333370 0.7452695671086028 0.2500000000000000	-0.569579
F	0.4479872663271137 0.6255692028759905 0.2500000000000000	-0.562985
F	0.0518914412333411 0.2452695671086029 0.2500000000000000	-0.569580
F	0.9479872663271136 0.1255692028759906 0.2500000000000000	-0.562985
F	0.4481085697666633 0.2547304098913986 0.7500000149999977	-0.569579
F	0.5520127336728864 0.3744307971240092 0.7500000149999977	-0.562985
F	0.9481085697666631 0.7547304328913972 0.7500000149999977	-0.569579
F	0.0520127546728915 0.8744307971240095 0.7500000149999977	-0.562985
N	0.4413449811470082 0.6214287687826650 0.7500000149999977	-0.187429
N	0.5588008456376982 0.7541839579858265 0.7500000149999977	-0.195110
N	0.9413449401470010 0.1214287567826643 0.7500000149999977	-0.187411
N	0.0588008196376960 0.2541839349858213 0.7500000149999977	-0.195108
N	0.5586550188529921 0.3785712312173347 0.2500000000000000	-0.187411
N	0.4411991543623018 0.2458160650141790 0.2500000000000000	-0.195108
N	0.0586550188529918 0.8785712312173350 0.2500000000000000	-0.187429
N	0.9411991953623017 0.7458160420141735 0.2500000000000000	-0.195107
N	0.5586550188529921 0.6214287687826650 0.7500000149999977	-0.187429
N	0.4411991543623018 0.7541839579858265 0.7500000149999977	-0.195109
N	0.0586550188529918 0.1214287567826643 0.7500000149999977	-0.187411
N	0.9411991953623017 0.2541839349858213 0.7500000149999977	-0.195108
N	0.4413449811470082 0.3785712312173347 0.2500000000000000	-0.187411
N	0.5588008456376982 0.2458160650141790 0.2500000000000000	-0.195108
N	0.9413449401470010 0.8785712312173350 0.2500000000000000	-0.187429
N	0.0588008196376960 0.7458160420141735 0.2500000000000000	-0.195107
Si	0.5000000000000000 0.6854011604868756 0.2500000000000000	1.726990
Si	-0.0000000000000000 0.1854011844868777 0.2500000000000000	1.726990
Si	0.5000000000000000 0.3145987925131238 0.7500000149999977	1.726990
Si	-0.0000000000000000 0.8145988395131244 0.7500000149999977	1.726990
	  	
