#======================================================================

# CRYSTAL DATA

#----------------------------------------------------------------------

data_VESTA_phase_1


_pd_phase_name                         SIFSIX_4_Cd_i
_cell_length_a                         24.36406
_cell_length_b                         21.27158
_cell_length_c                         9.16241
_cell_angle_alpha                      90
_cell_angle_beta                       90
_cell_angle_gamma                      90
_symmetry_space_group_name_H-M         P 1
_symmetry_Int_Tables_number            1

loop_
_symmetry_equiv_pos_as_xyz
   x, y, z

loop_
   _atom_site_label
   _atom_site_fract_x
   _atom_site_fract_y
   _atom_site_fract_z
   _atom_site_charge
C	0.4104808231325783 0.5943095905451358 0.6249994877675301	0.103065
C	0.3682946034003043 0.5504032805096486 0.6229605580235468	-0.171703
C	0.2752711547189428 0.4497004994199132 0.6223056278902518	-0.120116
C	0.2313657812106052 0.4080643565716412 0.6210726844455717	-0.114272
C	0.1344064213677925 0.3234823861447203 0.6193110195967761	-0.168553
C	0.0891886840116755 0.2837860418454182 0.6229210230149276	0.098278
C	0.9104809061325737 0.0943096015451404 0.6249994877675301	0.103087
C	0.8682945614003080 0.0504032225096507 0.6229605580235468	-0.171700
C	0.7752711757189479 0.9497005464199139 0.6223056278902518	-0.120162
C	0.7313657612106033 0.9080644025716381 0.6210726844455717	-0.114307
C	0.6344064213677924 0.8234824331447206 0.6193110195967761	-0.168553
C	0.5891886690116708 0.7837861348454153 0.6229210230149276	0.098278
C	0.5895191768674225 0.4056903634548601 0.1249994957675308	0.103064
C	0.6317054385996920 0.4495967654903557 0.1229605730235446	-0.171702
C	0.7247288242810521 0.5502994535800861 0.1223056358902529	-0.120161
C	0.7686342387893967 0.5919356434283586 0.1210726924455720	-0.114307
C	0.8655935786322076 0.6765176138552798 0.1193110265967803	-0.168552
C	0.9108113309883292 0.7162139121545851 0.1229210380149257	0.098277
C	0.0895191878674265 0.9056904564548646 0.1249994957675308	0.103065
C	0.1317053965996955 0.9495966734903547 0.1229605730235445	-0.171704
C	0.2247288662810554 0.0502995005800868 0.1223056358902529	-0.120115
C	0.2686341977893968 0.0919356204283604 0.1210726924455720	-0.114272
C	0.3655936206322110 0.1765176248552769 0.1193110265967803	-0.168552
C	0.4108113309883293 0.2162139821545838 0.1229210380149257	0.098277
C	0.5895191768674225 0.5943095905451358 0.8750004812324709	0.103059
C	0.6317054385996920 0.5504032805096486 0.8770394109764542	-0.171706
C	0.7247288242810521 0.4497004994199132 0.8776944031097472	-0.120115
C	0.7686342387893967 0.4080643565716412 0.8789273465544273	-0.114272
C	0.8655935786322076 0.3234823861447203 0.8806890114032228	-0.168553
C	0.9108113309883292 0.2837860418454182 0.8770790079850714	0.098278
C	0.0895191878674265 0.0943096015451404 0.8750004812324709	0.103058
C	0.1317053965996955 0.0504032225096507 0.8770394109764542	-0.171704
C	0.2247288662810554 0.9497005464199139 0.8776944031097472	-0.120163
C	0.2686341977893968 0.9080644025716381 0.8789273465544273	-0.114307
C	0.3655936206322110 0.8234824331447206 0.8806890114032228	-0.168553
C	0.4108113309883293 0.7837861348454153 0.8770790079850714	0.098278
C	0.4104808231325783 0.4056903634548601 0.3750005122324699	0.103064
C	0.3682946034003043 0.4495967654903557 0.3770394109764541	-0.171702
C	0.2752711547189428 0.5502994535800861 0.3776943721097478	-0.120161
C	0.2313657812106052 0.5919356434283586 0.3789272845544299	-0.114307
C	0.1344064213677925 0.6765176138552798 0.3806889494032178	-0.168552
C	0.0891886840116755 0.7162139121545851 0.3770789459850731	0.098277
C	0.9104809061325737 0.9056904564548646 0.3750005122324699	0.103088
C	0.8682945614003080 0.9495966734903547 0.3770394109764541	-0.171703
C	0.7752711757189479 0.0502995005800868 0.3776943721097478	-0.120115
C	0.7313657612106033 0.0919356204283604 0.3789272845544299	-0.114272
C	0.6344064213677924 0.1765176248552769 0.3806889494032178	-0.168552
C	0.5891886690116708 0.2162139821545838 0.3770789459850731	0.098278
C	0.5895191768674225 0.4056903634548601 0.3750005122324699	0.103066
C	0.6317054385996920 0.4495967654903557 0.3770394109764541	-0.171702
C	0.7247288242810521 0.5502994535800861 0.3776943721097478	-0.120161
C	0.7686342387893967 0.5919356434283586 0.3789272845544299	-0.114307
C	0.8655935786322076 0.6765176138552798 0.3806889494032178	-0.168553
C	0.9108113309883292 0.7162139121545851 0.3770789459850731	0.098279
C	0.0895191878674265 0.9056904564548646 0.3750005122324699	0.103066
C	0.1317053965996955 0.9495966734903547 0.3770394109764541	-0.171704
C	0.2247288662810554 0.0502995005800868 0.3776943721097478	-0.120115
C	0.2686341977893968 0.0919356204283604 0.3789272845544299	-0.114272
C	0.3655936206322110 0.1765176248552769 0.3806889494032178	-0.168553
C	0.4108113309883293 0.2162139821545838 0.3770789459850731	0.098279
C	0.4104808231325783 0.5943095905451358 0.8750004812324709	0.103060
C	0.3682946034003043 0.5504032805096486 0.8770394109764542	-0.171707
C	0.2752711547189428 0.4497004994199132 0.8776944031097472	-0.120116
C	0.2313657812106052 0.4080643565716412 0.8789273465544273	-0.114272
C	0.1344064213677925 0.3234823861447203 0.8806890114032228	-0.168553
C	0.0891886840116755 0.2837860418454182 0.8770790079850714	0.098280
C	0.9104809061325737 0.0943096015451404 0.8750004812324709	0.103082
C	0.8682945614003080 0.0504032225096507 0.8770394109764542	-0.171704
C	0.7752711757189479 0.9497005464199139 0.8776944031097472	-0.120162
C	0.7313657612106033 0.9080644025716381 0.8789273465544273	-0.114307
C	0.6344064213677924 0.8234824331447206 0.8806890114032228	-0.168553
C	0.5891886690116708 0.7837861348454153 0.8770790079850715	0.098279
C	0.4104808231325783 0.4056903634548601 0.1249994957675308	0.103066
C	0.3682946034003043 0.4495967654903557 0.1229605730235445	-0.171702
C	0.2752711547189428 0.5502994535800861 0.1223056358902529	-0.120162
C	0.2313657812106052 0.5919356434283586 0.1210726924455720	-0.114307
C	0.1344064213677925 0.6765176138552798 0.1193110265967803	-0.168553
C	0.0891886840116755 0.7162139121545851 0.1229210380149257	0.098279
C	0.9104809061325737 0.9056904564548646 0.1249994957675308	0.103089
C	0.8682945614003080 0.9495966734903547 0.1229605730235445	-0.171703
C	0.7752711757189479 0.0502995005800868 0.1223056358902529	-0.120115
C	0.7313657612106033 0.0919356204283604 0.1210726924455720	-0.114272
C	0.6344064213677924 0.1765176248552769 0.1193110265967803	-0.168553
C	0.5891886690116708 0.2162139821545838 0.1229210380149257	0.098279
C	0.5895191768674225 0.5943095905451358 0.6249994877675301	0.103066
C	0.6317054385996920 0.5504032805096486 0.6229605580235468	-0.171703
C	0.7247288242810521 0.4497004994199132 0.6223056278902518	-0.120116
C	0.7686342387893967 0.4080643565716412 0.6210726844455717	-0.114272
C	0.8655935786322076 0.3234823861447203 0.6193110195967763	-0.168553
C	0.9108113309883292 0.2837860418454182 0.6229210230149276	0.098280
C	0.0895191878674265 0.0943096015451404 0.6249994877675301	0.103066
C	0.1317053965996955 0.0504032225096507 0.6229605580235468	-0.171701
C	0.2247288662810554 0.9497005464199139 0.6223056278902518	-0.120163
C	0.2686341977893968 0.9080644025716381 0.6210726844455717	-0.114307
C	0.3655936206322110 0.8234824331447206 0.6193110195967761	-0.168553
C	0.4108113309883293 0.7837861348454153 0.6229210230149276	0.098279
C	0.3446503618660646 0.5241308330979677 0.7500000149999977	0.110502
C	0.2992025783818555 0.4751470917881651 0.7500000149999977	0.068107
C	0.2067604015774258 0.3866402750286653 0.7500000149999977	0.068479
C	0.1586059345711395 0.3443813057496261 0.7500000149999977	0.102225
C	0.8446503198660673 0.0241308160979696 0.7500000149999977	0.110499
C	0.7992026403818536 0.9751470447881648 0.7500000149999977	0.068146
C	0.7067604015774259 0.8866402980286635 0.7500000149999977	0.068501
C	0.6586059345711397 0.8443812367496244 0.7500000149999977	0.102224
C	0.6553496381339363 0.4758692129020293 0.2500000000000000	0.110498
C	0.7007973596181464 0.5248529082118348 0.2500000000000000	0.068146
C	0.7932395984225741 0.6133597489713368 0.2500000000000000	0.068501
C	0.8413941064288673 0.6556186712503751 0.2500000000000000	0.102223
C	0.1553496491339331 0.9758692599020293 0.2500000000000000	0.110501
C	0.2007974426181427 0.0248529112118315 0.2500000000000000	0.068107
C	0.2932395984225742 0.1133597019713361 0.2500000000000000	0.068480
C	0.3413940654288606 0.1556187052503782 0.2500000000000000	0.102225
C	0.6553496381339363 0.5241308330979677 0.7500000149999977	0.110502
C	0.7007973596181464 0.4751470917881651 0.7500000149999977	0.068107
C	0.7932395984225741 0.3866402750286653 0.7500000149999977	0.068479
C	0.8413941064288673 0.3443813057496261 0.7500000149999977	0.102225
C	0.1553496491339331 0.0241308160979696 0.7500000149999977	0.110500
C	0.2007974426181427 0.9751470447881648 0.7500000149999977	0.068147
C	0.2932395984225742 0.8866402980286635 0.7500000149999977	0.068501
C	0.3413940654288606 0.8443812367496244 0.7500000149999977	0.102224
C	0.3446503618660646 0.4758692129020293 0.2500000000000000	0.110499
C	0.2992025783818555 0.5248529082118348 0.2500000000000000	0.068146
C	0.2067604015774258 0.6133597489713368 0.2500000000000000	0.068501
C	0.1586059345711395 0.6556186712503751 0.2500000000000000	0.102223
C	0.8446503198660673 0.9758692599020293 0.2500000000000000	0.110501
C	0.7992026403818536 0.0248529112118315 0.2500000000000000	0.068106
C	0.7067604015774259 0.1133597019713361 0.2500000000000000	0.068480
C	0.6586059345711397 0.1556187052503782 0.2500000000000000	0.102225
H	0.4275849504712139 0.6123541588115824 0.5226769559443593	0.114152
H	0.3559712797872246 0.5384937256549747 0.5141724390070975	0.106547
H	0.2899215500253444 0.4610635305506706 0.5151111686071183	0.088634
H	0.2165407705996688 0.3926331000957397 0.5147530930768848	0.103855
H	0.1502550288046064 0.3373335143499012 0.5131118413246794	0.118969
H	0.0700807047617523 0.2665416366726244 0.5223806406487925	0.112546
H	0.9275849084712102 0.1123541938115820 0.5226769559443593	0.114150
H	0.8559712387872247 0.0384936616549692 0.5141724390070975	0.106549
H	0.7899215290253465 0.9610635305506706 0.5151111686071183	0.088678
H	0.7165407285996656 0.8926330310957448 0.5147530930768848	0.103862
H	0.6502550188046059 0.8373335143499017 0.5131118413246794	0.118970
H	0.5700807357617516 0.7665416136726267 0.5223806406487925	0.112546
H	0.5724150495287863 0.3876458411884173 0.0226770179443577	0.114153
H	0.6440287202127755 0.4615063213450258 0.0141724390070970	0.106549
H	0.7100784709746535 0.5389364234493256 0.0151112306071165	0.088678
H	0.7834592714003344 0.6073668769042547 0.0147530320768829	0.103862
H	0.8497449811953941 0.6626664396500945 0.0131118413246797	0.118969
H	0.9299192232382486 0.7334583863273733 0.0223806096487934	0.112546
H	0.0724150555287866 0.8876458411884176 0.0226770179443577	0.114153
H	0.1440287612127749 0.9615063213450257 0.0141724390070970	0.106547
H	0.2100784709746538 0.0389364664493256 0.0151112306071165	0.088634
H	0.2834592294003312 0.1073669109042576 0.0147530320768829	0.103855
H	0.3497449811953945 0.1626664626500929 0.0131118413246797	0.118969
H	0.4299192642382488 0.2334583633273755 0.0223806096487934	0.112545
H	0.5724150495287863 0.6123541588115824 -0.0226769749443574	0.114149
H	0.6440287202127755 0.5384937256549747 -0.0141724660071031	0.106547
H	0.7100784709746535 0.4610635305506706 -0.0151111866071126	0.088634
H	0.7834592714003344 0.3926331000957397 -0.0147530860768803	0.103855
H	0.8497449811953941 0.3373335143499012 -0.0131118413246795	0.118969
H	0.9299192232382486 0.2665416366726244 -0.0223806476487966	0.112545
H	0.0724150555287866 0.1123541938115820 -0.0226769749443574	0.114149
H	0.1440287612127749 0.0384936616549692 -0.0141724660071031	0.106549
H	0.2100784709746538 0.9610635305506706 -0.0151111866071126	0.088678
H	0.2834592294003312 0.8926330310957448 -0.0147530860768803	0.103862
H	0.3497449811953945 0.8373335143499017 -0.0131118413246795	0.118969
H	0.4299192642382488 0.7665416136726267 -0.0223806476487966	0.112546
H	0.4275849504712139 0.3876458411884173 0.4773230130556412	0.114153
H	0.3559712797872246 0.4615063213450258 0.4858275919929020	0.106549
H	0.2899215500253444 0.5389364234493256 0.4848888003928825	0.088678
H	0.2165407705996688 0.6073668769042547 0.4852468759231168	0.103862
H	0.1502550288046064 0.6626664396500945 0.4868881276753212	0.118969
H	0.0700807047617523 0.7334583863273733 0.4776193593512075	0.112546
H	0.9275849084712102 0.8876458411884176 0.4773230130556412	0.114150
H	0.8559712387872247 0.9615063213450257 0.4858275919929020	0.106546
H	0.7899215290253465 0.0389364664493256 0.4848888003928825	0.088634
H	0.7165407285996656 0.1073669109042576 0.4852468759231168	0.103855
H	0.6502550188046059 0.1626664626500929 0.4868881276753212	0.118969
H	0.5700807357617516 0.2334583633273755 0.4776193593512075	0.112545
H	0.5724150495287863 0.3876458411884173 0.4773230130556412	0.114153
H	0.6440287202127755 0.4615063213450258 0.4858275919929020	0.106549
H	0.7100784709746535 0.5389364234493256 0.4848888003928825	0.088678
H	0.7834592714003344 0.6073668769042547 0.4852468759231167	0.103862
H	0.8497449811953941 0.6626664396500945 0.4868881276753212	0.118970
H	0.9299192232382486 0.7334583863273733 0.4776193593512075	0.112546
H	0.0724150555287866 0.8876458411884176 0.4773230130556412	0.114153
H	0.1440287612127749 0.9615063213450257 0.4858275919929020	0.106547
H	0.2100784709746538 0.0389364664493256 0.4848888003928825	0.088634
H	0.2834592294003312 0.1073669109042576 0.4852468759231167	0.103855
H	0.3497449811953945 0.1626664626500929 0.4868881276753212	0.118970
H	0.4299192642382488 0.2334583633273755 0.4776193593512075	0.112546
H	0.4275849504712139 0.6123541588115824 -0.0226769749443574	0.114149
H	0.3559712797872246 0.5384937256549747 -0.0141724660071031	0.106547
H	0.2899215500253444 0.4610635305506706 -0.0151111866071126	0.088634
H	0.2165407705996688 0.3926331000957397 -0.0147530860768803	0.103855
H	0.1502550288046064 0.3373335143499012 -0.0131118413246795	0.118970
H	0.0700807047617523 0.2665416366726244 -0.0223806476487966	0.112546
H	0.9275849084712102 0.1123541938115820 -0.0226769749443574	0.114146
H	0.8559712387872247 0.0384936616549692 -0.0141724660071031	0.106549
H	0.7899215290253465 0.9610635305506706 -0.0151111866071126	0.088678
H	0.7165407285996656 0.8926330310957448 -0.0147530860768803	0.103862
H	0.6502550188046059 0.8373335143499017 -0.0131118413246795	0.118970
H	0.5700807357617516 0.7665416136726267 -0.0223806476487966	0.112546
H	0.4275849504712139 0.3876458411884173 0.0226770179443577	0.114153
H	0.3559712797872246 0.4615063213450258 0.0141724390070970	0.106549
H	0.2899215500253444 0.5389364234493256 0.0151112306071165	0.088678
H	0.2165407705996688 0.6073668769042547 0.0147530320768829	0.103862
H	0.1502550288046064 0.6626664396500945 0.0131118413246797	0.118970
H	0.0700807047617523 0.7334583863273733 0.0223806096487934	0.112546
H	0.9275849084712102 0.8876458411884176 0.0226770179443577	0.114150
H	0.8559712387872247 0.9615063213450257 0.0141724390070970	0.106547
H	0.7899215290253465 0.0389364664493256 0.0151112306071165	0.088634
H	0.7165407285996656 0.1073669109042576 0.0147530320768829	0.103855
H	0.6502550188046059 0.1626664626500929 0.0131118413246797	0.118970
H	0.5700807357617516 0.2334583633273755 0.0223806096487934	0.112546
H	0.5724150495287863 0.6123541588115824 0.5226769559443593	0.114152
H	0.6440287202127755 0.5384937256549747 0.5141724390070975	0.106547
H	0.7100784709746535 0.4610635305506706 0.5151111686071183	0.088634
H	0.7834592714003344 0.3926331000957397 0.5147530930768848	0.103855
H	0.8497449811953941 0.3373335143499012 0.5131118413246795	0.118970
H	0.9299192232382486 0.2665416366726244 0.5223806406487925	0.112546
H	0.0724150555287866 0.1123541938115820 0.5226769559443593	0.114153
H	0.1440287612127749 0.0384936616549692 0.5141724390070975	0.106549
H	0.2100784709746538 0.9610635305506706 0.5151111686071183	0.088678
H	0.2834592294003312 0.8926330310957448 0.5147530930768848	0.103862
H	0.3497449811953945 0.8373335143499017 0.5131118413246794	0.118970
H	0.4299192642382488 0.7665416136726267 0.5223806406487925	0.112546
Cd	0.5000000000000000 0.6892324238678067 0.7500000149999977	0.823169
Cd	0.0000000000000000 0.1892324818678044 0.7500000149999977	0.823152
Cd	0.5000000000000000 0.3107675061321946 0.2500000000000000	0.823170
Cd	0.0000000000000000 0.8107675761321933 0.2500000000000000	0.823151
F	0.5000000000000000 0.6851763749122760 0.4493034188928494	-0.566328
F	0.0000000000000000 0.1851764099122750 0.4493034188928494	-0.566329
F	0.5000000000000000 0.3148236020877188 0.9493034188928494	-0.566330
F	0.0000000000000000 0.8148236250877240 0.9493034188928494	-0.566326
F	0.5000000000000000 0.6851763749122760 0.0506965671071495	-0.566327
F	0.0000000000000000 0.1851764099122750 0.0506965671071495	-0.566329
F	0.5000000000000000 0.3148236020877188 0.5506965511071481	-0.566330
F	0.0000000000000000 0.8148236250877240 0.5506965511071481	-0.566326
F	0.4505306655562957 0.7411575328134840 0.2500000000000000	-0.568290
F	0.5493874556796748 0.6278308442511634 0.2500000000000000	-0.561753
F	0.9505306655562958 0.2411575328134842 0.2500000000000000	-0.568281
F	0.0493874766796802 0.1278308442511636 0.2500000000000000	-0.561761
F	0.5494692934437043 0.2588424441865175 0.7500000149999977	-0.568280
F	0.4506125443203252 0.3721691557488363 0.7500000149999977	-0.561761
F	0.0494693454437087 0.7588424671865160 0.7500000149999977	-0.568290
F	0.9506125443203252 0.8721691557488366 0.7500000149999977	-0.561753
F	0.5494692934437043 0.7411575328134840 0.2500000000000000	-0.568290
F	0.4506125443203252 0.6278308442511634 0.2500000000000000	-0.561753
F	0.0494693454437087 0.2411575328134842 0.2500000000000000	-0.568281
F	0.9506125443203252 0.1278308442511636 0.2500000000000000	-0.561761
F	0.4505306655562957 0.2588424441865175 0.7500000149999977	-0.568280
F	0.5493874556796748 0.3721691557488363 0.7500000149999977	-0.561761
F	0.9505306655562958 0.7588424671865160 0.7500000149999977	-0.568290
F	0.0493874766796802 0.8721691557488366 0.7500000149999977	-0.561753
N	0.4319995259399623 0.6159744400176077 0.7500000149999977	-0.233168
N	0.5671702900005678 0.7643412651391192 0.7500000149999977	-0.246506
N	0.9319994849399551 0.1159744280176070 0.7500000149999977	-0.233199
N	0.0671702640005652 0.2643412421391140 0.7500000149999977	-0.246503
N	0.5680004740600380 0.3840255599823918 0.2500000000000000	-0.233180
N	0.4328297099994328 0.2356587578608862 0.2500000000000000	-0.246506
N	0.0680004740600375 0.8840255599823923 0.2500000000000000	-0.233179
N	0.9328297509994320 0.7356587348608808 0.2500000000000000	-0.246502
N	0.5680004740600380 0.6159744400176077 0.7500000149999977	-0.233167
N	0.4328297099994328 0.7643412651391192 0.7500000149999977	-0.246506
N	0.0680004740600375 0.1159744280176070 0.7500000149999977	-0.233168
N	0.9328297509994320 0.2643412421391140 0.7500000149999977	-0.246502
N	0.4319995259399623 0.3840255599823918 0.2500000000000000	-0.233179
N	0.5671702900005677 0.2356587578608862 0.2500000000000000	-0.246506
N	0.9319994849399551 0.8840255599823923 0.2500000000000000	-0.233211
N	0.0671702640005652 0.7356587348608808 0.2500000000000000	-0.246502
Si	0.5000000000000000 0.6845844997776770 0.2500000000000000	1.744697
Si	0.0000000000000000 0.1845845237776790 0.2500000000000000	1.744698
Si	0.5000000000000000 0.3154154532223225 0.7500000149999977	1.744698
Si	0.0000000000000000 0.8154155002223230 0.7500000149999977	1.744696
	  	
