#======================================================================

# CRYSTAL DATA

#----------------------------------------------------------------------

data_VESTA_phase_1


_pd_phase_name                         SIFSIX_18_Cd
_cell_length_a                         14.64308
_cell_length_b                         14.17076
_cell_length_c                         8.10702
_cell_angle_alpha                      90
_cell_angle_beta                       95.68173
_cell_angle_gamma                      90
_symmetry_space_group_name_H-M         P 1
_symmetry_Int_Tables_number            1

loop_
_symmetry_equiv_pos_as_xyz
   x, y, z

loop_
   _atom_site_label
   _atom_site_fract_x
   _atom_site_fract_y
   _atom_site_fract_z
   _atom_site_charge
F	0.4190265323924753 0.3751119073458986 0.5109474376548632	-0.536968
F	0.5193304321247270 0.4625419700102706 0.7149038879401092	-0.516857
F	0.4174454339238308 0.5462785103516494 0.5086654268108273	-0.507808
F	0.9190265663924706 0.8751118383458968 0.5109474376548632	-0.536979
F	0.0193304581247220 0.9625419350102723 0.7149038879401092	-0.516863
F	0.9174454679238345 0.0462784763516542 0.5086654268108273	-0.507834
F	0.5809734306075256 0.3751119073458986 0.4890525623451364	-0.536968
F	0.4806695648752767 0.4625419700102706 0.2850961120598907	-0.516856
F	0.5825545620761680 0.5462785103516494 0.4913345741891768	-0.507809
F	0.0809734516075234 0.8751118383458968 0.4890525623451364	-0.536983
F	0.9806694298752758 0.9625419350102723 0.2850961120598907	-0.516875
F	0.0825545370761703 0.0462784763516542 0.4913345741891768	-0.507841
C	0.6992574211995731 0.1813970505486529 0.6197035183643216	-0.428597
C	0.7641744752120626 0.1677609836084386 0.7708630771044416	0.212469
C	0.7606898933550408 0.2005765725213354 0.9333016112194740	-0.147444
C	0.6912365494277471 0.2598266403891156 -0.0014228819105639	-0.144287
C	0.6750780041646467 0.3567941665335028 0.9642361345387980	0.223324
C	0.7222486608936018 0.4184790236194838 0.8504421699489696	-0.431633
C	0.8751717092862999 0.1855977154961517 0.2003084372090244	-0.439943
C	0.8423945847482669 0.1678898685324866 0.0233425431700269	0.204479
C	0.6321657335386293 0.2359379413772073 0.1180835895023050	0.207137
C	0.6152060775428554 0.1440231829215148 0.1987581110111615	-0.425503
C	0.1992574711995698 0.6813971025486504 0.6197035183643216	-0.428668
C	0.2641745092120663 0.6677609666084338 0.7708630771044416	0.212489
C	0.2606898593550376 0.7005765385213321 0.9333016112194740	-0.147449
C	0.1912365494277475 0.7598266573891138 -0.0014228819105639	-0.144286
C	0.1750779871646415 0.8567942005335056 0.9642361345387980	0.223324
C	0.2222486768935964 0.9184789886194846 0.8504421699489696	-0.431632
C	0.3751716082862951 0.6855976294961521 0.2003084372090244	-0.439944
C	0.3423946527482655 0.6678898685324860 0.0233425431700269	0.204485
C	0.1321657085386316 0.7359378553772086 0.1180835895023050	0.207137
C	0.1152061615428551 0.6440232519215167 0.1987581110111615	-0.425503
C	0.3007425758004303 0.1813970505486529 0.3802964826356821	-0.428561
C	0.2358255177879325 0.1677609836084386 0.2291368428955582	0.212464
C	0.2393101356449583 0.2005765725213354 0.0666983647805309	-0.147443
C	0.3087634465722521 0.2598266403891156 0.0014228729105667	-0.144287
C	0.3249220618353591 0.3567941665335028 0.0357639164612030	0.223325
C	0.2777513541064032 0.4184790236194838 0.1495578460510315	-0.431632
C	0.1248283737137036 0.1855977154961516 0.7996916107909793	-0.439945
C	0.1576053942517349 0.1678898685324866 0.9766574448299716	0.204479
C	0.3678342974613689 0.2359379413772073 0.8819164344976896	0.207136
C	0.3847938484571457 0.1440231829215148 0.8012418099888428	-0.425502
C	0.8007425758004302 0.6813971025486504 0.3802964826356821	-0.428596
C	0.7358255177879333 0.6677609666084338 0.2291368428955582	0.212469
C	0.7393101016449624 0.7005765385213321 0.0666983647805309	-0.147444
C	0.8087634465722525 0.7598266573891138 0.0014228729105667	-0.144287
C	0.8249219948353568 0.8567942005335056 0.0357639164612030	0.223325
C	0.7777513371063980 0.9184789886194846 0.1495578460510315	-0.431631
C	0.6248282897137035 0.6855976294961521 0.7996916107909792	-0.439945
C	0.6576054112517328 0.6678898685324860 0.9766574448299716	0.204479
C	0.8678342634613669 0.7359378553772086 0.8819164344976896	0.207136
C	0.8847939154571476 0.6440232519215167 0.8012418099888428	-0.425502
H	0.7360463987060540 0.1912260815569890 0.5093521266531797	0.143922
H	0.6560854123153922 0.2437349333210604 0.6321373250498266	0.157917
H	0.6539920026635085 0.1197549082577552 0.5969420029868814	0.130403
H	0.6833583442453270 0.4236850818415873 0.7278049606644885	0.153139
H	0.7901330928906485 0.3890222661135675 0.8342744926336649	0.132042
H	0.7310027211544738 0.4897630613080973 0.9026541450937345	0.130271
H	0.8703587553432958 0.0860552587989012 0.6721487041230975	0.286044
H	0.8674213395761530 0.1238128536668153 0.2795888373705833	0.147571
H	0.8364784387788042 0.2445482305367802 0.2474206239292097	0.134409
H	0.9484178503104076 0.2039194401717976 0.2142232885867438	0.142962
H	0.5738400116801102 0.1535480874475914 0.3031372905820178	0.142585
H	0.6797320636889483 0.1092869519188498 0.2445618709531192	0.144959
H	0.5782200061668422 0.0954038114232004 0.1098140770869057	0.136312
H	0.5487740666196124 0.3295774840919088 0.2453264869379572	0.284883
H	0.2360464497060547 0.6912259785569904 0.5093521266531797	0.143932
H	0.1560854963153921 0.7437348643210586 0.6321373250498266	0.157925
H	0.1539920526635059 0.6197548482577498 0.5969420029868814	0.130412
H	0.1833583612453253 0.9236850138415811 0.7278049606644885	0.153139
H	0.2901331268906509 0.8890223001135709 0.8342744926336649	0.132043
H	0.2310027541544724 0.9897630613080963 0.9026541450937345	0.130272
H	0.3703587213432997 0.5860553017989011 0.6721487041230975	0.286043
H	0.3674214065761560 0.6238128196668125 0.2795888373705833	0.147571
H	0.3364783707788061 0.7445482655367794 0.2474206239292097	0.134409
H	0.4484179173104021 0.7039194911717911 0.2142232885867438	0.142963
H	0.0738400036801087 0.6535481044475892 0.3031372905820178	0.142585
H	0.1797320296889449 0.6092869089188495 0.2445618709531192	0.144959
H	0.0782200421668447 0.5954037594232030 0.1098140770869057	0.136313
H	0.0487740516196149 0.8295774840919091 0.2453264869379572	0.284881
H	0.2639535322939511 0.1912260815569890 0.4906479053468149	0.143918
H	0.3439144866846033 0.2437349333210604 0.3678627399501755	0.157893
H	0.3460079263364962 0.1197549082577552 0.4030579970131186	0.130398
H	0.3166416507546757 0.4236850818415873 0.2721950073355170	0.153138
H	0.2098669021093481 0.3890222661135676 0.1657254753663321	0.132043
H	0.2689972748455333 0.4897630613080973 0.0973458279062670	0.130272
H	0.1296412456567012 0.0860552587989012 0.3278512008768985	0.286044
H	0.1325785834238433 0.1238128536668153 0.7204111946294192	0.147571
H	0.1635216252211938 0.2445482305367802 0.7525793760707902	0.134411
H	0.0515820786895972 0.2039194401717976 0.7857767434132519	0.142966
H	0.4261600183198934 0.1535480874475914 0.6968627094179826	0.142581
H	0.3202679983110572 0.1092869519188498 0.7554380810468772	0.144958
H	0.4217799588331586 0.0954038114232003 0.8901859629130973	0.136310
H	0.4512258943803878 0.3295774840919088 0.7546734660620427	0.284886
H	0.7639535992939458 0.6912259785569904 0.4906479053468149	0.143922
H	0.8439145876846078 0.7437348643210586 0.3678627399501755	0.157914
H	0.8460079263364962 0.6197548482577498 0.4030579970131186	0.130404
H	0.8166416507546761 0.9236850138415811 0.2721950073355170	0.153139
H	0.7098669021093476 0.8890223001135709 0.1657254753663321	0.132042
H	0.7689972748455329 0.9897630613080963 0.0973458279062670	0.130272
H	0.6296412366567036 0.5860553017989011 0.3278512008768985	0.286046
H	0.6325786924238426 0.6238128196668125 0.7204111946294192	0.147572
H	0.6635215582211920 0.7445482655367794 0.7525793760707902	0.134411
H	0.5515821146895931 0.7039194911717911 0.7857767434132519	0.142967
H	0.9261599513198903 0.6535481044475892 0.6968627094179826	0.142581
H	0.8202679313110548 0.6092869089188495 0.7554380810468772	0.144958
H	0.9217799588331583 0.5954037594232030 0.8901859629130973	0.136311
H	0.9512258603803923 0.8295774840919091 0.7546734660620427	0.284885
N	0.8429252051399098 0.1179878055528301 0.7711728889384628	-0.147446
N	0.6106011728502174 0.3895329966297411 0.0565904473552466	-0.260299
N	0.8916123775421892 0.1178743253542813 0.9223541727901813	-0.266874
N	0.5851694585556291 0.3152907024741534 0.1471037157051167	-0.149006
N	0.3429252051399096 0.6179877285528343 0.7711728889384627	-0.147418
N	0.1106012398502191 0.8895329966297401 0.0565904473552466	-0.260299
N	0.3916124115421921 0.6178743763542820 0.9223541727901813	-0.266878
N	0.0851694505556294 0.8152906674741532 0.1471037157051167	-0.149007
N	0.1570747768600890 0.1179878055528301 0.2288271590615350	-0.147446
N	0.3893987211497815 0.3895329966297411 0.9434095286447511	-0.260299
N	0.1083875924578079 0.1178743253542813 0.0776458072098174	-0.266874
N	0.4148305384443732 0.3152907024741534 0.8528963002948842	-0.149010
N	0.6570747938600866 0.6179877285528343 0.2288271590615350	-0.147447
N	0.8893988221497857 0.8895329966297401 0.9434095286447511	-0.260298
N	0.6083876174578139 0.6178743763542820 0.0776458072098174	-0.266874
N	0.9148305724443699 0.8152906674741532 0.8528963002948842	-0.149010
Si	0.4999999979999998 0.4603027517453182 0.5000000000000000	1.706132
Si	-0.0000000000000000 0.9603027517453175 0.5000000000000000	1.706249
Cd	0.5000000000000000 0.5059377938114558 -0.0000000000000000	0.869541
Cd	-0.0000000000000000 0.0059378008114599 -0.0000000000000000	0.869535
	  	
