#======================================================================

# CRYSTAL DATA

#----------------------------------------------------------------------

data_VESTA_phase_1


_pd_phase_name                         SIFSIX_2_Fe
_cell_length_a                         14.03399
_cell_length_b                         14.03399
_cell_length_c                         7.60375
_cell_angle_alpha                      90
_cell_angle_beta                       90
_cell_angle_gamma                      90
_symmetry_space_group_name_H-M         P 1
_symmetry_Int_Tables_number            1

loop_
_symmetry_equiv_pos_as_xyz
   x, y, z

loop_
   _atom_site_label
   _atom_site_fract_x
   _atom_site_fract_y
   _atom_site_fract_z
   _atom_site_charge
C	0.5323321391097776 0.7052456811339719 0.1405044042127419	0.097047
C	0.5331426562949394 0.8040990189412258 0.1462785485760537	-0.169865
C	0.4676679308902211 0.2947543188660285 0.1405044042127419	0.097044
C	0.4668573087050614 0.1959009630587726 0.1462785485760537	-0.169862
C	0.2947543188660285 0.5323321391097776 0.1405044042127419	0.097047
C	0.1959009630587726 0.5331426562949394 0.1462785485760537	-0.169865
C	0.7052456811339719 0.4676679308902211 0.1405044042127419	0.097044
C	0.8040990189412258 0.4668573087050614 0.1462785485760537	-0.169863
C	0.4676679308902211 0.7052456811339719 0.8594955957872584	0.097055
C	0.4668573087050614 0.8040990189412258 0.8537214214239435	-0.169886
C	0.5323321391097776 0.2947543188660285 0.8594955957872584	0.097052
C	0.5331426562949394 0.1959009630587726 0.8537214214239435	-0.169883
C	0.7052456811339719 0.5323321391097776 0.8594955957872584	0.097052
C	0.8040990189412258 0.5331426562949394 0.8537214214239435	-0.169883
C	0.2947543188660285 0.4676679308902211 0.8594955957872584	0.097054
C	0.1959009630587726 0.4668573087050614 0.8537214214239435	-0.169886
C	0.5000000000000000 0.1440812184962530 -0.0000000000000000	0.166022
C	0.5000000000000000 0.0434237797203895 -0.0000000000000000	-0.095536
C	0.5000000000000000 0.8559187815037470 -0.0000000000000000	0.165991
C	0.5000000000000000 0.9565761632796163 -0.0000000000000000	-0.095293
C	0.8559187815037470 0.5000000000000000 -0.0000000000000000	0.166022
C	0.9565761632796163 0.5000000000000000 -0.0000000000000000	-0.095536
C	0.1440812184962530 0.5000000000000000 -0.0000000000000000	0.165991
C	0.0434237797203895 0.5000000000000000 -0.0000000000000000	-0.095293
H	0.5575444828241807 0.6634943766226468 0.2522460986256291	0.107405
H	0.5596383557561126 0.8409045500661830 0.2624465213393891	0.126842
H	0.4424555171758192 0.3365055533773546 0.2522460986256291	0.107405
H	0.4403616792438867 0.1590953799338182 0.2624465213393891	0.126843
H	0.3365055533773546 0.5575444828241807 0.2522460986256291	0.107405
H	0.1590953799338182 0.5596383557561126 0.2624465213393891	0.126842
H	0.6634943766226468 0.4424555171758192 0.2522460986256291	0.107405
H	0.8409045500661830 0.4403616792438867 0.2624465213393891	0.126843
H	0.4424555171758192 0.6634943766226468 0.7477539013743711	0.107404
H	0.4403616792438867 0.8409045500661830 0.7375535086606136	0.126849
H	0.5575444828241807 0.3365055533773546 0.7477539013743711	0.107404
H	0.5596383557561126 0.1590953799338182 0.7375535086606136	0.126850
H	0.6634943766226468 0.5575444828241807 0.7477539013743710	0.107404
H	0.8409045500661830 0.5596383557561126 0.7375535086606136	0.126850
H	0.3365055533773546 0.4424555171758192 0.7477539013743711	0.107405
H	0.1590953799338182 0.4403616792438867 0.7375535086606136	0.126848
Fe	0.5000000000000000 0.5000000000000000 -0.0000000000000000	0.539502
Si	0.5000000000000000 0.5000000000000000 0.5000000000000000	1.710317
F	0.5000000000000000 0.5000000000000000 0.7325128284912417	-0.456581
F	0.5000000000000000 0.5000000000000000 0.2674872015087535	-0.456581
F	0.5854961060081646 0.5854961060081646 0.5000000000000000	-0.535019
F	0.4145039289918353 0.5854961060081646 0.5000000000000000	-0.535019
F	0.4145039289918353 0.4145039289918353 0.5000000000000000	-0.535019
F	0.5854961060081646 0.4145039289918353 0.5000000000000000	-0.535019
N	0.5000000000000000 0.3438779829076151 -0.0000000000000000	-0.192589
N	0.5000000000000000 0.6561219820923858 -0.0000000000000000	-0.192588
N	0.6561219820923858 0.5000000000000000 -0.0000000000000000	-0.192589
N	0.3438779829076151 0.5000000000000000 -0.0000000000000000	-0.192588
	  	
