#======================================================================

# CRYSTAL DATA

#----------------------------------------------------------------------

data_VESTA_phase_1


_pd_phase_name                         SIFSIX_4_Cu_i
_cell_length_a                         23.45119
_cell_length_b                         20.27709
_cell_length_c                         9.46322
_cell_angle_alpha                      90
_cell_angle_beta                       90
_cell_angle_gamma                      90
_symmetry_space_group_name_H-M         P 1
_symmetry_Int_Tables_number            1

loop_
_symmetry_equiv_pos_as_xyz
   x, y, z

loop_
   _atom_site_label
   _atom_site_fract_x
   _atom_site_fract_y
   _atom_site_fract_z
   _atom_site_charge
C	0.4174126058291691 0.5983087501451908 0.6282674982987108	0.100415
C	0.3734598643396112 0.5525252158097637 0.6264321744994836	-0.164787
C	0.2772476355312364 0.4487918577759609 0.6261855119396141	-0.115442
C	0.2311722297303228 0.4058725497408558 0.6249502435279476	-0.111884
C	0.1294208717573024 0.3192057520094008 0.6234170178418373	-0.161214
C	0.0826170388599275 0.2773852568365688 0.6265893747000932	0.093665
C	0.9174126888291650 0.0983087611451956 0.6282674982987108	0.100415
C	0.8734598223396149 0.0525251578097660 0.6264321744994836	-0.164787
C	0.7772476565312417 0.9487919047759613 0.6261855119396141	-0.115442
C	0.7311722097303213 0.9058725957408520 0.6249502435279476	-0.111884
C	0.6294208717573024 0.8192057990094012 0.6234170178418373	-0.161215
C	0.5826170238599226 0.7773853498365659 0.6265893747000932	0.093665
C	0.5825873941708312 0.4016912038548052 0.1282675062987118	0.100441
C	0.6265401776603851 0.4474748301902400 0.1264321894994816	-0.164791
C	0.7227523434687583 0.5512080952240387 0.1261855199396150	-0.115441
C	0.7688277902696787 0.5941274502591447 0.1249502515279481	-0.111884
C	0.8705791282426976 0.6807942479905992 0.1234170248418419	-0.161214
C	0.9173829761400774 0.7226146971634344 0.1265893897000911	0.093665
C	0.0825874051708354 0.9016912968548095 0.1282675062987118	0.100440
C	0.1265401356603887 0.9474747381902396 0.1264321894994816	-0.164791
C	0.2227523854687618 0.0512081422240391 0.1261855199396150	-0.115442
C	0.2688277492696793 0.0941274272591461 0.1249502515279481	-0.111884
C	0.3705791702427008 0.1807942589905967 0.1234170248418419	-0.161214
C	0.4173829761400772 0.2226147671634334 0.1265893897000911	0.093665
C	0.5825873941708312 0.5983087501451908 0.8717324707012902	0.100439
C	0.6265401776603851 0.5525252158097637 0.8735677945005174	-0.164787
C	0.7227523434687583 0.4487918577759609 0.8738145190603849	-0.115510
C	0.7688277902696787 0.4058725497408558 0.8750497874720514	-0.111874
C	0.8705791282426976 0.3192057520094008 0.8765830131581617	-0.161216
C	0.9173829761400774 0.2773852568365688 0.8734106562999058	0.093665
C	0.0825874051708354 0.0983087611451956 0.8717324707012902	0.100439
C	0.1265401356603887 0.0525251578097660 0.8735677945005174	-0.164787
C	0.2227523854687618 0.9487919047759613 0.8738145190603849	-0.115511
C	0.2688277492696793 0.9058725957408520 0.8750497874720514	-0.111874
C	0.3705791702427008 0.8192057990094012 0.8765830131581617	-0.161216
C	0.4173829761400772 0.7773853498365659 0.8734106562999058	0.093665
C	0.4174126058291691 0.4016912038548052 0.3717325017012889	0.100415
C	0.3734598643396112 0.4474748301902400 0.3735677945005173	-0.164787
C	0.2772476355312364 0.5512080952240387 0.3738144880603855	-0.115440
C	0.2311722297303228 0.5941274502591447 0.3750497254720536	-0.111885
C	0.1294208717573024 0.6807942479905992 0.3765829511581560	-0.161215
C	0.0826170388599275 0.7226146971634344 0.3734105942999075	0.093665
C	0.9174126888291650 0.9016912968548095 0.3717325017012889	0.100415
C	0.8734598223396149 0.9474747381902396 0.3735677945005173	-0.164787
C	0.7772476565312417 0.0512081422240391 0.3738144880603855	-0.115440
C	0.7311722097303213 0.0941274272591461 0.3750497254720536	-0.111885
C	0.6294208717573024 0.1807942589905967 0.3765829511581560	-0.161215
C	0.5826170238599226 0.2226147671634334 0.3734105942999075	0.093665
C	0.5825873941708312 0.4016912038548052 0.3717325017012889	0.100415
C	0.6265401776603851 0.4474748301902400 0.3735677945005173	-0.164787
C	0.7227523434687583 0.5512080952240387 0.3738144880603855	-0.115440
C	0.7688277902696787 0.5941274502591447 0.3750497254720536	-0.111885
C	0.8705791282426976 0.6807942479905992 0.3765829511581560	-0.161216
C	0.9173829761400774 0.7226146971634344 0.3734105942999075	0.093664
C	0.0825874051708354 0.9016912968548095 0.3717325017012890	0.100415
C	0.1265401356603887 0.9474747381902396 0.3735677945005173	-0.164788
C	0.2227523854687618 0.0512081422240391 0.3738144880603855	-0.115441
C	0.2688277492696793 0.0941274272591461 0.3750497254720536	-0.111886
C	0.3705791702427008 0.1807942589905967 0.3765829511581560	-0.161215
C	0.4173829761400772 0.2226147671634334 0.3734105942999075	0.093664
C	0.4174126058291691 0.5983087501451908 0.8717324707012902	0.100439
C	0.3734598643396112 0.5525252158097637 0.8735677945005174	-0.164788
C	0.2772476355312364 0.4487918577759609 0.8738145190603849	-0.115511
C	0.2311722297303228 0.4058725497408558 0.8750497874720514	-0.111874
C	0.1294208717573024 0.3192057520094008 0.8765830131581617	-0.161216
C	0.0826170388599275 0.2773852568365688 0.8734106562999058	0.093665
C	0.9174126888291650 0.0983087611451956 0.8717324707012902	0.100440
C	0.8734598223396149 0.0525251578097660 0.8735677945005174	-0.164787
C	0.7772476565312417 0.9487919047759613 0.8738145190603849	-0.115510
C	0.7311722097303213 0.9058725957408520 0.8750497874720514	-0.111873
C	0.6294208717573024 0.8192057990094012 0.8765830131581617	-0.161216
C	0.5826170238599226 0.7773853498365659 0.8734106562999058	0.093665
C	0.4174126058291691 0.4016912038548052 0.1282675062987118	0.100441
C	0.3734598643396112 0.4474748301902400 0.1264321894994816	-0.164790
C	0.2772476355312364 0.5512080952240387 0.1261855199396150	-0.115442
C	0.2311722297303228 0.5941274502591447 0.1249502515279481	-0.111885
C	0.1294208717573024 0.6807942479905992 0.1234170248418419	-0.161216
C	0.0826170388599275 0.7226146971634344 0.1265893897000911	0.093664
C	0.9174126888291650 0.9016912968548095 0.1282675062987118	0.100441
C	0.8734598223396149 0.9474747381902396 0.1264321894994816	-0.164790
C	0.7772476565312417 0.0512081422240391 0.1261855199396150	-0.115441
C	0.7311722097303213 0.0941274272591461 0.1249502515279481	-0.111885
C	0.6294208717573024 0.1807942589905967 0.1234170248418419	-0.161216
C	0.5826170238599226 0.2226147671634334 0.1265893897000911	0.093664
C	0.5825873941708312 0.5983087501451908 0.6282674982987108	0.100415
C	0.6265401776603851 0.5525252158097637 0.6264321744994836	-0.164787
C	0.7227523434687583 0.4487918577759609 0.6261855119396141	-0.115441
C	0.7688277902696787 0.4058725497408558 0.6249502435279476	-0.111885
C	0.8705791282426976 0.3192057520094008 0.6234170178418373	-0.161217
C	0.9173829761400774 0.2773852568365688 0.6265893747000932	0.093665
C	0.0825874051708354 0.0983087611451956 0.6282674982987108	0.100415
C	0.1265401356603887 0.0525251578097660 0.6264321744994836	-0.164787
C	0.2227523854687618 0.9487919047759613 0.6261855119396141	-0.115442
C	0.2688277492696793 0.9058725957408520 0.6249502435279476	-0.111885
C	0.3705791702427008 0.8192057990094012 0.6234170178418373	-0.161217
C	0.4173829761400772 0.7773853498365659 0.6265893747000932	0.093665
C	0.3491239453123010 0.5255327419930306 0.7500000149999977	0.117634
C	0.3019298115703887 0.4749699657944907 0.7500000149999977	0.070961
C	0.2053662875585439 0.3841078958058332 0.7500000149999977	0.065531
C	0.1547868060084038 0.3408069311328553 0.7500000149999977	0.100462
C	0.8491239033123045 0.0255327249930326 0.7500000149999977	0.117633
C	0.8019298735703865 0.9749699187944906 0.7500000149999977	0.070961
C	0.7053662875585440 0.8841079188058313 0.7500000149999977	0.065531
C	0.6547868060084033 0.8408068621328527 0.7500000149999977	0.100462
C	0.6508760546876992 0.4744673040069662 0.2500000000000000	0.117634
C	0.6980701264296135 0.5250300342055091 0.2500000000000000	0.070951
C	0.7946337124414560 0.6158921281941691 0.2500000000000000	0.065532
C	0.8452132349916036 0.6591930458671468 0.2500000000000000	0.100462
C	0.1508760656876966 0.9744673510069665 0.2500000000000000	0.117634
C	0.1980702094296096 0.0250300372055059 0.2500000000000000	0.070951
C	0.2946337124414563 0.1158920811941684 0.2500000000000000	0.065533
C	0.3452131939915962 0.1591930798671492 0.2500000000000000	0.100462
C	0.6508760546876992 0.5255327419930306 0.7500000149999977	0.117633
C	0.6980701264296135 0.4749699657944907 0.7500000149999977	0.070961
C	0.7946337124414560 0.3841078958058332 0.7500000149999977	0.065531
C	0.8452132349916036 0.3408069311328553 0.7500000149999977	0.100462
C	0.1508760656876966 0.0255327249930326 0.7500000149999977	0.117633
C	0.1980702094296096 0.9749699187944906 0.7500000149999977	0.070961
C	0.2946337124414563 0.8841079188058313 0.7500000149999977	0.065532
C	0.3452131939915962 0.8408068621328527 0.7500000149999977	0.100462
C	0.3491239453123010 0.4744673040069662 0.2500000000000000	0.117634
C	0.3019298115703887 0.5250300342055091 0.2500000000000000	0.070951
C	0.2053662875585439 0.6158921281941691 0.2500000000000000	0.065533
C	0.1547868060084038 0.6591930458671468 0.2500000000000000	0.100462
C	0.8491239033123045 0.9744673510069665 0.2500000000000000	0.117634
C	0.8019298735703865 0.0250300372055059 0.2500000000000000	0.070951
C	0.7053662875585440 0.1158920811941684 0.2500000000000000	0.065532
C	0.6547868060084033 0.1591930798671492 0.2500000000000000	0.100462
H	0.4354243122486033 0.6176434595348140 0.5298419370813686	0.117700
H	0.3600530820710407 0.5398471673957649 0.5214340231124985	0.106893
H	0.2931390840623622 0.4607719358441745 0.5230087932639458	0.086329
H	0.2155812887008780 0.3896871169536003 0.5222919712442441	0.103926
H	0.1454673765833744 0.3339511216490889 0.5202983704906362	0.123094
H	0.0627377025594538 0.2591453310976998 0.5294307492572844	0.117544
H	0.9354242702485999 0.1176434945348127 0.5298419370813686	0.117700
H	0.8600530410710404 0.0398471033957595 0.5214340231124985	0.106893
H	0.7931390630623641 0.9607719358441744 0.5230087932639458	0.086329
H	0.7155812467008748 0.8896870479536049 0.5222919712442441	0.103926
H	0.6454673665833732 0.8339511216490888 0.5202983704906362	0.123094
H	0.5627377335594527 0.7591453080977011 0.5294307492572844	0.117544
H	0.5645756877513967 0.3823565404651869 0.0298419990813665	0.117660
H	0.6399469179289597 0.4601528796042356 0.0214340231124986	0.106890
H	0.7068609369376359 0.5392280181558218 0.0230088552639441	0.086328
H	0.7844187532991252 0.6103128600463946 0.0222919102442425	0.103927
H	0.8545326334166268 0.6660488323509074 0.0202983704906359	0.123093
H	0.9372622254405475 0.7408546919022989 0.0294307182572856	0.117543
H	0.0645756937513972 0.8823565404651860 0.0298419990813666	0.117660
H	0.1399469589289593 0.9601528796042355 0.0214340231124986	0.106890
H	0.2068609369376359 0.0392280611558217 0.0230088552639441	0.086329
H	0.2844187112991221 0.1103128940463970 0.0222919102442425	0.103927
H	0.3545326334166264 0.1660488553509056 0.0202983704906359	0.123093
H	0.4372622664405472 0.2408546689023005 0.0294307182572856	0.117543
H	0.5645756877513967 0.6176434595348140 -0.0298419560813665	0.117660
H	0.6399469179289597 0.5398471673957649 -0.0214340501125043	0.106891
H	0.7068609369376359 0.4607719358441745 -0.0230088112639405	0.086382
H	0.7844187532991252 0.3896871169536003 -0.0222919642442398	0.103926
H	0.8545326334166268 0.3339511216490889 -0.0202983704906359	0.123093
H	0.9372622254405475 0.2591453310976998 -0.0294307562572887	0.117543
H	0.0645756937513972 0.1176434945348127 -0.0298419560813665	0.117660
H	0.1399469589289593 0.0398471033957595 -0.0214340501125043	0.106891
H	0.2068609369376359 0.9607719358441744 -0.0230088112639405	0.086382
H	0.2844187112991221 0.8896870479536049 -0.0222919642442398	0.103926
H	0.3545326334166264 0.8339511216490888 -0.0202983704906359	0.123093
H	0.4372622664405472 0.7591453080977011 -0.0294307562572887	0.117543
H	0.4354243122486033 0.3823565404651869 0.4701580319186327	0.117700
H	0.3600530820710407 0.4601528796042356 0.4785660078875004	0.106893
H	0.2931390840623622 0.5392280181558218 0.4769911757360548	0.086329
H	0.2155812887008780 0.6103128600463946 0.4777079977557568	0.103926
H	0.1454673765833744 0.6660488323509074 0.4797015985093651	0.123093
H	0.0627377025594538 0.7408546919022989 0.4705692507427154	0.117543
H	0.9354242702485999 0.8823565404651860 0.4701580319186327	0.117700
H	0.8600530410710404 0.9601528796042355 0.4785660078875004	0.106893
H	0.7931390630623641 0.0392280611558217 0.4769911757360548	0.086329
H	0.7155812467008748 0.1103128940463970 0.4777079977557568	0.103926
H	0.6454673665833732 0.1660488553509056 0.4797015985093651	0.123093
H	0.5627377335594527 0.2408546689023005 0.4705692507427154	0.117543
H	0.5645756877513967 0.3823565404651869 0.4701580319186327	0.117700
H	0.6399469179289597 0.4601528796042356 0.4785660078875004	0.106893
H	0.7068609369376359 0.5392280181558218 0.4769911757360548	0.086329
H	0.7844187532991252 0.6103128600463946 0.4777079977557568	0.103927
H	0.8545326334166268 0.6660488323509074 0.4797015985093651	0.123093
H	0.9372622254405475 0.7408546919022989 0.4705692507427154	0.117543
H	0.0645756937513972 0.8823565404651860 0.4701580319186327	0.117700
H	0.1399469589289593 0.9601528796042355 0.4785660078875004	0.106893
H	0.2068609369376359 0.0392280611558217 0.4769911757360548	0.086329
H	0.2844187112991221 0.1103128940463970 0.4777079977557568	0.103927
H	0.3545326334166264 0.1660488553509056 0.4797015985093651	0.123093
H	0.4372622664405472 0.2408546689023005 0.4705692507427154	0.117543
H	0.4354243122486033 0.6176434595348140 -0.0298419560813665	0.117660
H	0.3600530820710407 0.5398471673957649 -0.0214340501125043	0.106891
H	0.2931390840623622 0.4607719358441745 -0.0230088112639405	0.086382
H	0.2155812887008780 0.3896871169536003 -0.0222919642442398	0.103927
H	0.1454673765833744 0.3339511216490889 -0.0202983704906359	0.123093
H	0.0627377025594538 0.2591453310976998 -0.0294307562572887	0.117543
H	0.9354242702485999 0.1176434945348127 -0.0298419560813665	0.117660
H	0.8600530410710404 0.0398471033957595 -0.0214340501125043	0.106891
H	0.7931390630623641 0.9607719358441744 -0.0230088112639405	0.086382
H	0.7155812467008748 0.8896870479536049 -0.0222919642442398	0.103927
H	0.6454673665833732 0.8339511216490888 -0.0202983704906359	0.123093
H	0.5627377335594527 0.7591453080977011 -0.0294307562572887	0.117543
H	0.4354243122486033 0.3823565404651869 0.0298419990813666	0.117660
H	0.3600530820710407 0.4601528796042356 0.0214340231124986	0.106890
H	0.2931390840623622 0.5392280181558218 0.0230088552639441	0.086328
H	0.2155812887008780 0.6103128600463946 0.0222919102442425	0.103927
H	0.1454673765833744 0.6660488323509074 0.0202983704906359	0.123093
H	0.0627377025594538 0.7408546919022989 0.0294307182572856	0.117543
H	0.9354242702485999 0.8823565404651860 0.0298419990813665	0.117660
H	0.8600530410710404 0.9601528796042355 0.0214340231124986	0.106890
H	0.7931390630623641 0.0392280611558217 0.0230088552639441	0.086328
H	0.7155812467008748 0.1103128940463970 0.0222919102442425	0.103927
H	0.6454673665833732 0.1660488553509056 0.0202983704906359	0.123093
H	0.5627377335594527 0.2408546689023005 0.0294307182572856	0.117543
H	0.5645756877513967 0.6176434595348140 0.5298419370813686	0.117700
H	0.6399469179289597 0.5398471673957649 0.5214340231124985	0.106893
H	0.7068609369376359 0.4607719358441745 0.5230087932639458	0.086329
H	0.7844187532991252 0.3896871169536003 0.5222919712442441	0.103927
H	0.8545326334166268 0.3339511216490889 0.5202983704906361	0.123094
H	0.9372622254405475 0.2591453310976998 0.5294307492572844	0.117543
H	0.0645756937513972 0.1176434945348127 0.5298419370813686	0.117700
H	0.1399469589289593 0.0398471033957595 0.5214340231124985	0.106893
H	0.2068609369376359 0.9607719358441744 0.5230087932639458	0.086329
H	0.2844187112991221 0.8896870479536049 0.5222919712442441	0.103927
H	0.3545326334166264 0.8339511216490888 0.5202983704906362	0.123094
H	0.4372622664405472 0.7591453080977011 0.5294307492572844	0.117543
Cu	0.5000000000000000 0.6886178416517768 0.7500000149999977	0.656122
Cu	-0.0000000000000000 0.1886178996517745 0.7500000149999977	0.656122
Cu	0.5000000000000000 0.3113820883482245 0.2500000000000000	0.656122
Cu	-0.0000000000000000 0.8113821583482232 0.2500000000000000	0.656122
F	0.5000000000000000 0.6848252945915058 0.4396458184271214	-0.561686
F	-0.0000000000000000 0.1848253295915055 0.4396458184271214	-0.561686
F	0.5000000000000000 0.3151746824084884 0.9396458184271212	-0.561679
F	-0.0000000000000000 0.8151747054084942 0.9396458184271212	-0.561679
F	0.5000000000000000 0.6848252945915058 0.0603541675728774	-0.561679
F	-0.0000000000000000 0.1848253295915055 0.0603541675728774	-0.561679
F	0.5000000000000000 0.3151746824084885 0.5603541515728763	-0.561686
F	-0.0000000000000000 0.8151747054084942 0.5603541515728763	-0.561686
F	0.4485326181840646 0.7442626090216277 0.2500000000000000	-0.575286
F	0.5515348232606360 0.6251647917367230 0.2500000000000000	-0.567142
F	0.9485326181840645 0.2442626090216277 0.2500000000000000	-0.575286
F	0.0515348442606414 0.1251647917367232 0.2500000000000000	-0.567142
F	0.5514673408159356 0.2557373679783739 0.7500000149999977	-0.575286
F	0.4484651767393638 0.3748352082632767 0.7500000149999977	-0.567142
F	0.0514673928159400 0.7557373909783723 0.7500000149999977	-0.575286
F	0.9484651767393640 0.8748352082632770 0.7500000149999977	-0.567142
F	0.5514673408159356 0.7442626090216277 0.2500000000000000	-0.575286
F	0.4484651767393638 0.6251647917367230 0.2500000000000000	-0.567142
F	0.0514673928159400 0.2442626090216277 0.2500000000000000	-0.575286
F	0.9484651767393640 0.1251647917367232 0.2500000000000000	-0.567142
F	0.4485326181840646 0.2557373679783739 0.7500000149999977	-0.575286
F	0.5515348232606360 0.3748352082632767 0.7500000149999977	-0.567142
F	0.9485326181840645 0.7557373909783723 0.7500000149999977	-0.575286
F	0.0515348442606414 0.8748352082632770 0.7500000149999977	-0.567142
N	0.4395643553804242 0.6206399925870004 0.7500000149999977	-0.215735
N	0.5602296248992160 0.7566665405542611 0.7500000149999977	-0.226250
N	0.9395643143804173 0.1206399805869994 0.7500000149999977	-0.215735
N	0.0602295988992140 0.2566665175542553 0.7500000149999977	-0.226251
N	0.5604356446195757 0.3793600074129996 0.2500000000000000	-0.215735
N	0.4397703751007837 0.2433334824457445 0.2500000000000000	-0.226251
N	0.0604356446195757 0.8793600074129996 0.2500000000000000	-0.215735
N	0.9397704161007838 0.7433334594457389 0.2500000000000000	-0.226250
N	0.5604356446195757 0.6206399925870004 0.7500000149999977	-0.215735
N	0.4397703751007837 0.7566665405542611 0.7500000149999977	-0.226250
N	0.0604356446195757 0.1206399805869994 0.7500000149999977	-0.215735
N	0.9397704161007838 0.2566665175542553 0.7500000149999977	-0.226251
N	0.4395643553804242 0.3793600074129996 0.2500000000000000	-0.215735
N	0.5602296248992160 0.2433334824457445 0.2500000000000000	-0.226251
N	0.9395643143804173 0.8793600074129996 0.2500000000000000	-0.215736
N	0.0602295988992140 0.7433334594457389 0.2500000000000000	-0.226250
Si	0.5000000000000000 0.6846406607345195 0.2500000000000000	1.742004
Si	-0.0000000000000000 0.1846406847345213 0.2500000000000000	1.742004
Si	0.5000000000000000 0.3153592922654803 0.7500000149999977	1.742004
Si	-0.0000000000000000 0.8153593392654805 0.7500000149999977	1.742004
	  	
