#======================================================================

# CRYSTAL DATA

#----------------------------------------------------------------------

data_VESTA_phase_1


_pd_phase_name                         SIFSIX_7_Co
_cell_length_a                         18.70930
_cell_length_b                         18.70930
_cell_length_c                         7.99441
_cell_angle_alpha                      90
_cell_angle_beta                       90
_cell_angle_gamma                      90
_symmetry_space_group_name_H-M         P 1
_symmetry_Int_Tables_number            1

loop_
_symmetry_equiv_pos_as_xyz
   x, y, z

loop_
   _atom_site_label
   _atom_site_fract_x
   _atom_site_fract_y
   _atom_site_fract_z
   _atom_site_charge
C	0.6688130145136225 0.8683914061180062 0.6995568442034195	0.090225
C	0.6166259698271374 0.9210699138230583 0.7036472597397014	-0.172449
C	0.5813076099857575 0.8857527697050852 0.4277022822515538	-0.168394
C	0.6340104729453079 0.8337971968273367 0.4319802210071268	0.086614
C	0.8311869854863775 0.6316085938819938 0.6995568442034195	0.090219
C	0.8833740801728597 0.5789301371769424 0.7036472597397014	-0.172431
C	0.9186922890142448 0.6142472812949084 0.4277022822515538	-0.168393
C	0.8659895270546921 0.6662028031726633 0.4319802210071268	0.086614
C	0.6316085938819938 0.6688130145136225 0.6995568442034195	0.090219
C	0.5789301371769424 0.6166259698271374 0.7036472597397014	-0.172431
C	0.6142472812949084 0.5813076099857575 0.4277022822515538	-0.168393
C	0.6662028031726633 0.6340104729453079 0.4319802210071268	0.086614
C	0.8683914061180062 0.8311869854863775 0.6995568442034195	0.090225
C	0.9210699138230583 0.8833740801728597 0.7036472597397014	-0.172449
C	0.8857527697050852 0.9186922890142448 0.4277022822515538	-0.168393
C	0.8337971968273367 0.8659895270546921 0.4319802210071268	0.086615
C	0.3311869604863790 0.3683913561180021 0.3004431857965834	0.090204
C	0.3833740301728628 0.4210699138230581 0.2963527702603008	-0.172431
C	0.4186923900142425 0.3857527187050915 0.5722977177484463	-0.168434
C	0.3659894760546984 0.3337971968273367 0.5680198089928757	0.086614
C	0.1688130395136209 0.1316086308820003 0.3004431857965834	0.090204
C	0.1166259698271373 0.0789300861769418 0.2963527702603008	-0.172431
C	0.0813075909857524 0.1142472812949085 0.5722977177484463	-0.168434
C	0.1340105239453015 0.1662027911726623 0.5680198089928757	0.086614
C	0.3683913561180021 0.1688130395136209 0.3004431857965834	0.090205
C	0.4210699138230581 0.1166259698271373 0.2963527702603008	-0.172430
C	0.3857527187050915 0.0813075909857524 0.5722977177484463	-0.168434
C	0.3337971968273367 0.1340105239453015 0.5680198089928757	0.086615
C	0.1316086308820003 0.3311869604863790 0.3004431857965834	0.090205
C	0.0789300861769418 0.3833740301728628 0.2963527702603008	-0.172430
C	0.1142472812949085 0.4186923900142425 0.5722977177484463	-0.168434
C	0.1662027911726623 0.3659894760546984 0.5680198089928757	0.086615
C	0.4314794689242207 0.0714707905757858 0.4346384598231581	0.136597
C	0.4870270255976522 0.0169585731201961 0.4315191747722409	-0.123381
C	0.0685205310757794 0.4285292024242172 0.4346384598231581	0.136597
C	0.0129729424023452 0.4830413628798057 0.4315191747722409	-0.123381
C	0.4285292024242172 0.4314794689242207 0.4346384598231581	0.136597
C	0.4830413628798057 0.4870270255976522 0.4315191747722409	-0.123381
C	0.0714707905757858 0.0685205310757794 0.4346384598231581	0.136597
C	0.0169585731201961 0.0129729424023452 0.4315191747722409	-0.123381
C	0.5685205310757796 0.5714707975757828 0.5653615401768420	0.136585
C	0.5129730254023417 0.5169585871201900 0.5684808542277583	-0.123361
C	0.9314794189242234 0.9285291524242131 0.5653615401768420	0.136591
C	0.9870270255976519 0.9830414638798106 0.5684808542277583	-0.123361
C	0.5714707975757828 0.9314794189242234 0.5653615401768420	0.136591
C	0.5169585871201900 0.9870270255976519 0.5684808542277583	-0.123361
C	0.9285291524242131 0.5685205310757796 0.5653615401768420	0.136585
C	0.9830414638798106 0.5129730254023417 0.5684808542277583	-0.123361
H	0.7032933326218087 0.8587147301484132 0.8066782345091734	0.113944
H	0.6116064106415281 0.9543585011486188 0.8149996068098735	0.119207
H	0.5473063155703137 0.8892617669323174 0.3173887050269881	0.119746
H	0.6432388362916339 0.7989418155336510 0.3253440390741121	0.113436
H	0.7967066673781913 0.6412852698515868 0.8066782345091735	0.113945
H	0.8883935893584719 0.5456415498513819 0.8149996068098735	0.119199
H	0.9526937354296869 0.6107382840676833 0.3173887050269881	0.119746
H	0.8567611637083661 0.7010581844663490 0.3253440390741121	0.113436
H	0.6412852698515868 0.7032933326218087 0.8066782345091735	0.113945
H	0.5456415498513819 0.6116064106415281 0.8149996068098735	0.119200
H	0.6107382840676833 0.5473063155703137 0.3173887050269881	0.119747
H	0.7010581844663490 0.6432388362916339 0.3253440390741121	0.113436
H	0.8587147301484132 0.7967066673781913 0.8066782345091735	0.113944
H	0.9543585011486188 0.8883935893584719 0.8149996068098735	0.119207
H	0.8892617669323174 0.9526937354296869 0.3173887050269881	0.119746
H	0.7989418155336510 0.8567611637083661 0.3253440390741121	0.113436
H	0.2967066933781935 0.3587146541484139 0.1933217504908287	0.113945
H	0.3883935133584658 0.4543584501486179 0.1850003491901229	0.119200
H	0.4526937354296869 0.3892617669323172 0.6826112649730163	0.119754
H	0.3567611887083716 0.2989418415336531 0.6746559609258880	0.113430
H	0.2032933196218040 0.1412853718515882 0.1933217504908287	0.113945
H	0.1116064616415286 0.0456415658513833 0.1850003491901229	0.119200
H	0.0473062585703126 0.1107382590676849 0.6826112649730163	0.119754
H	0.1432388362916339 0.2010581464663460 0.6746559609258880	0.113430
H	0.3587146541484139 0.2032933196218040 0.1933217504908287	0.113945
H	0.4543584501486179 0.1116064616415286 0.1850003491901229	0.119200
H	0.3892617669323172 0.0473062585703126 0.6826112649730163	0.119754
H	0.2989418415336531 0.1432388362916339 0.6746559609258880	0.113430
H	0.1412853718515882 0.2967066933781935 0.1933217504908287	0.113945
H	0.0456415658513833 0.3883935133584658 0.1850003491901229	0.119200
H	0.1107382590676849 0.4526937354296869 0.6826112649730163	0.119754
H	0.2010581464663460 0.3567611887083716 0.6746559609258880	0.113430
H	0.5067396156275448 0.0015463582022548 0.3077046415776462	0.103454
H	0.9932604353724559 0.4984536137977429 0.3077046415776462	0.103454
H	0.4984536137977429 0.5067396156275448 0.3077046415776462	0.103454
H	0.0015463582022548 0.9932604353724559 0.3077046415776462	0.103454
H	0.4932603843724552 0.5015463362022601 0.6922953884223495	0.103451
H	0.0067396066275476 0.9984536137977429 0.6922953884223495	0.103451
H	0.5015463362022601 0.0067396066275476 0.6922953884223495	0.103451
H	0.9984536137977429 0.4932603843724552 0.6922953884223495	0.103451
Co	0.2500000000000000 0.2500000000000000 0.4340963246444062	0.575334
Co	0.7500000000000000 0.7500000000000000 0.5659036753555936	0.575369
Si	0.2500000000000000 0.2500000000000000 0.9352150130925438	1.716126
Si	0.7500000000000000 0.7500000000000000 0.0647849719074584	1.716128
F	0.2500000000000000 0.2500000000000000 0.1537530192166459	-0.507745
F	0.2500000000000000 0.2500000000000000 0.7166002807580232	-0.508237
F	0.7500000000000000 0.7500000000000000 0.8462470107833568	-0.507745
F	0.7500000000000000 0.7500000000000000 0.2833997192419768	-0.508251
F	0.3152057320049789 0.3139357080735689 0.9353393969861853	-0.550104
F	0.1847942929950195 0.1860643169264298 0.9353393969861853	-0.550104
F	0.1860643169264298 0.3152057320049789 0.9353393969861853	-0.550104
F	0.3139357080735689 0.1847942929950195 0.9353393969861853	-0.550104
F	0.6847942929950195 0.8139357080735686 0.0646606030138148	-0.550104
F	0.8152057070049805 0.6860642919264314 0.0646606030138148	-0.550104
F	0.8139357080735686 0.8152057070049805 0.0646606030138148	-0.550104
F	0.6860642919264314 0.6847942929950195 0.0646606030138148	-0.550104
N	0.3251220975985951 0.1774054200778373 0.4341722427139801	-0.187726
N	0.1748779274014035 0.3225946049221612 0.4341722427139801	-0.187726
N	0.3225946049221612 0.3251220975985951 0.4341722427139801	-0.187726
N	0.1774054200778373 0.1748779274014035 0.4341722427139801	-0.187726
N	0.6748779024014050 0.6774053950778388 0.5658277572860198	-0.187775
N	0.8251220975985950 0.8225946049221612 0.5658277572860198	-0.187776
N	0.6774053950778388 0.8251220975985950 0.5658277572860198	-0.187776
N	0.8225946049221612 0.6748779024014050 0.5658277572860198	-0.187775
	  	
