#======================================================================

# CRYSTAL DATA

#----------------------------------------------------------------------

data_VESTA_phase_1


_pd_phase_name                         SIFSIX_2_Fe_i
_cell_length_a                         14.03127
_cell_length_b                         14.03127
_cell_length_c                         7.75824
_cell_angle_alpha                      90
_cell_angle_beta                       90
_cell_angle_gamma                      90
_symmetry_space_group_name_H-M         P 1
_symmetry_Int_Tables_number            1

loop_
_symmetry_equiv_pos_as_xyz
   x, y, z

loop_
   _atom_site_label
   _atom_site_fract_x
   _atom_site_fract_y
   _atom_site_fract_z
   _atom_site_charge
C	-0.0000000000000000 0.3044597001847729 0.3444394685189658	-0.160419
C	-0.0000000000000000 0.2056353822950624 0.3504219698178577	0.102775
C	0.5000000000000000 0.8044597001847731 0.8444394975189650	-0.160420
C	0.5000000000000000 0.7056354002950639 0.8504219698178580	0.102775
C	-0.0000000000000000 0.6955402998152269 0.3444394685189658	-0.160422
C	-0.0000000000000000 0.7943645997049361 0.3504219698178577	0.102777
C	0.5000000000000000 0.1955403168152250 0.8444394975189650	-0.160422
C	0.5000000000000000 0.2943645997049361 0.8504219698178580	0.102777
C	0.6955402998152269 -0.0000000000000000 0.3444394685189658	-0.160420
C	0.7943645997049361 -0.0000000000000000 0.3504219698178577	0.102776
C	0.1955403168152250 0.5000000000000000 0.8444394975189650	-0.160420
C	0.2943645997049361 0.5000000000000000 0.8504219698178580	0.102776
C	0.3044597001847729 -0.0000000000000000 0.3444394685189658	-0.160422
C	0.2056353822950624 -0.0000000000000000 0.3504219698178577	0.102778
C	0.8044597001847731 0.5000000000000000 0.8444394975189650	-0.160422
C	0.7056354002950639 0.5000000000000000 0.8504219698178580	0.102778
C	-0.0000000000000000 0.3044597001847729 0.6555605024810350	-0.160419
C	-0.0000000000000000 0.2056353822950624 0.6495780301821420	0.102775
C	0.5000000000000000 0.8044597001847731 0.1555605314810342	-0.160419
C	0.5000000000000000 0.7056354002950639 0.1495780151821444	0.102775
C	-0.0000000000000000 0.6955402998152269 0.6555605024810350	-0.160421
C	-0.0000000000000000 0.7943645997049361 0.6495780301821420	0.102777
C	0.5000000000000000 0.1955403168152250 0.1555605314810342	-0.160421
C	0.5000000000000000 0.2943645997049361 0.1495780151821444	0.102777
C	0.3044597001847729 -0.0000000000000000 0.6555605024810350	-0.160421
C	0.2056353822950624 -0.0000000000000000 0.6495780301821420	0.102778
C	0.8044597001847731 0.5000000000000000 0.1555605314810342	-0.160421
C	0.7056354002950639 0.5000000000000000 0.1495780151821444	0.102778
C	0.6955402998152269 -0.0000000000000000 0.6555605024810350	-0.160419
C	0.7943645997049361 -0.0000000000000000 0.6495780301821420	0.102776
C	0.1955403168152250 0.5000000000000000 0.1555605314810342	-0.160419
C	0.2943645997049361 0.5000000000000000 0.1495780151821444	0.102776
C	-0.0000000000000000 0.4565359846176015 0.5000000000000000	-0.097568
C	-0.0000000000000000 0.3559972992664482 0.5000000000000000	0.156803
C	0.5000000000000000 0.9565360186176041 -0.0000000000000000	-0.097568
C	0.5000000000000000 0.8559972642664487 -0.0000000000000000	0.156804
C	-0.0000000000000000 0.5434640153823986 0.5000000000000000	-0.097328
C	-0.0000000000000000 0.6440027357335513 0.5000000000000000	0.156775
C	0.5000000000000000 0.0434639943823935 -0.0000000000000000	-0.097329
C	0.5000000000000000 0.1440027357335512 -0.0000000000000000	0.156775
C	0.5434640153823987 -0.0000000000000000 0.5000000000000000	-0.097568
C	0.6440027357335513 -0.0000000000000000 0.5000000000000000	0.156804
C	0.0434639943823935 0.5000000000000000 -0.0000000000000000	-0.097568
C	0.1440027357335512 0.5000000000000000 -0.0000000000000000	0.156804
C	0.4565359846176015 -0.0000000000000000 0.5000000000000000	-0.097329
C	0.3559972992664482 -0.0000000000000000 0.5000000000000000	0.156775
C	0.9565360186176042 0.5000000000000000 -0.0000000000000000	-0.097329
C	0.8559972642664487 0.5000000000000000 -0.0000000000000000	0.156775
H	-0.0000000000000000 0.3415410996245335 0.2212414055343076	0.118463
H	-0.0000000000000000 0.1640681635885099 0.2319593012105538	0.100329
H	0.5000000000000000 0.8415410996245337 0.7212414055343078	0.118463
H	0.5000000000000000 0.6640681105885091 0.7319593312105563	0.100329
H	-0.0000000000000000 0.6584589003754663 0.2212414055343076	0.118462
H	-0.0000000000000000 0.8359318894114909 0.2319593012105538	0.100329
H	0.5000000000000000 0.1584589003754664 0.7212414055343078	0.118462
H	0.5000000000000000 0.3359318544114844 0.7319593312105563	0.100329
H	0.6584589003754663 -0.0000000000000000 0.2212414055343076	0.118463
H	0.8359318894114909 -0.0000000000000000 0.2319593012105538	0.100329
H	0.1584589003754664 0.5000000000000000 0.7212414055343078	0.118463
H	0.3359318544114844 0.5000000000000000 0.7319593312105563	0.100329
H	0.3415410996245335 -0.0000000000000000 0.2212414055343076	0.118462
H	0.1640681635885099 -0.0000000000000000 0.2319593012105538	0.100329
H	0.8415410996245337 0.5000000000000000 0.7212414055343078	0.118462
H	0.6640681105885091 0.5000000000000000 0.7319593312105563	0.100329
H	-0.0000000000000000 0.3415410996245335 0.7787585944656922	0.118461
H	-0.0000000000000000 0.1640681635885099 0.7680406107894460	0.100328
H	0.5000000000000000 0.8415410996245337 0.2787585944656921	0.118461
H	0.5000000000000000 0.6640681105885091 0.2680406987894461	0.100328
H	-0.0000000000000000 0.6584589003754663 0.7787585944656922	0.118460
H	-0.0000000000000000 0.8359318894114909 0.7680406107894460	0.100329
H	0.5000000000000000 0.1584589003754664 0.2787585944656921	0.118460
H	0.5000000000000000 0.3359318544114844 0.2680406987894461	0.100329
H	0.3415410996245335 -0.0000000000000000 0.7787585944656922	0.118460
H	0.1640681635885099 -0.0000000000000000 0.7680406107894460	0.100329
H	0.8415410996245337 0.5000000000000000 0.2787585944656921	0.118460
H	0.6640681105885091 0.5000000000000000 0.2680406987894461	0.100329
H	0.6584589003754663 -0.0000000000000000 0.7787585944656922	0.118461
H	0.8359318894114909 -0.0000000000000000 0.7680406107894460	0.100329
H	0.1584589003754664 0.5000000000000000 0.2787585944656921	0.118461
H	0.3359318544114844 0.5000000000000000 0.2680406987894461	0.100329
Fe	-0.0000000000000000 -0.0000000000000000 0.5000000000000000	0.828606
Fe	0.5000000000000000 0.5000000000000000 -0.0000000000000000	0.828606
Si	-0.0000000000000000 -0.0000000000000000 -0.0000000000000000	1.715477
Si	0.5000000000000000 0.5000000000000000 0.5000000000000000	1.715476
N	-0.0000000000000000 0.1563307139043410 0.5000000000000000	-0.246456
N	0.5000000000000000 0.6563306959043393 -0.0000000000000000	-0.246456
N	-0.0000000000000000 0.8436693040956607 0.5000000000000000	-0.246455
N	0.5000000000000000 0.3436693040956607 -0.0000000000000000	-0.246455
N	0.8436693040956607 -0.0000000000000000 0.5000000000000000	-0.246456
N	0.3436693040956607 0.5000000000000000 -0.0000000000000000	-0.246456
N	0.1563307139043410 -0.0000000000000000 0.5000000000000000	-0.246455
N	0.6563306959043393 0.5000000000000000 -0.0000000000000000	-0.246455
F	-0.0000000000000000 -0.0000000000000000 0.7685680915578306	-0.481981
F	0.5000000000000000 0.5000000000000000 0.2685681805578342	-0.481981
F	-0.0000000000000000 -0.0000000000000000 0.2314318344421706	-0.481981
F	0.5000000000000000 0.5000000000000000 0.7314319084421694	-0.481981
F	0.5852690374953279 0.5852690374953279 0.5000000000000000	-0.530209
F	0.5852690374953279 0.4147309625046723 0.5000000000000000	-0.530209
F	0.4147309625046723 0.5852690374953279 0.5000000000000000	-0.530209
F	0.4147309625046723 0.4147309625046723 0.5000000000000000	-0.530208
F	0.0852690544953256 0.0852690544953256 -0.0000000000000000	-0.530209
F	0.9147309625046721 0.9147309625046721 -0.0000000000000000	-0.530209
F	0.9147309625046721 0.0852690544953256 -0.0000000000000000	-0.530209
F	0.0852690544953256 0.9147309625046721 -0.0000000000000000	-0.530208
	  	
