#======================================================================

# CRYSTAL DATA

#----------------------------------------------------------------------

data_VESTA_phase_1


_pd_phase_name                         SIFSIX_14_Cd_i
_cell_length_a                         13.71581
_cell_length_b                         13.70512
_cell_length_c                         7.95116
_cell_angle_alpha                      88.98801
_cell_angle_beta                       88.91168
_cell_angle_gamma                      90.42570
_symmetry_space_group_name_H-M         P 1
_symmetry_Int_Tables_number            1

loop_
_symmetry_equiv_pos_as_xyz
   x, y, z

loop_
   _atom_site_label
   _atom_site_fract_x
   _atom_site_fract_y
   _atom_site_fract_z
   _atom_site_charge
C	0.5764349717293750 0.2647750175031968 0.3646622653669754	-0.183958
C	0.4752753510946385 0.2686781763207371 0.3693667475248691	0.110189
C	0.9334694551004007 0.2873285688940762 0.4224122757134527	-0.169304
C	0.0343400227751710 0.2791061931224382 0.4082112745748315	0.109093
C	0.2633090806230464 0.5765482342960754 0.3673839675566164	-0.185401
C	0.2673114661022393 0.4752871828857982 0.3723196064012345	0.111007
C	0.2953378018016630 0.9336905315417122 0.4175713735098672	-0.170131
C	0.2858155120928331 0.0345574690128431 0.4049462620338485	0.109873
C	0.9235819857493959 0.2374945409388409 0.1332002066230116	-0.184286
C	0.0247586182453160 0.2338036628492539 0.1279764743826113	0.109574
C	0.5664854412020666 0.2078041872789114 0.0795601157642795	-0.169275
C	0.4655999982355382 0.2165898705514427 0.0928443960222071	0.111257
C	0.2091812940616079 0.5664214321661293 0.0807536199293729	-0.173050
C	0.2182382061509762 0.4655719455158465 0.0941913715611317	0.110031
C	0.2345006874310989 0.9234983603227571 0.1351414230940531	-0.184047
C	0.2304166151993374 0.0247459532137893 0.1305561657022184	0.110997
C	0.4241132247513483 0.7374908994890217 0.6347320057830377	-0.181582
C	0.5252792390274759 0.7353356276326389 0.6286546637924326	0.109575
C	0.0664516791168601 0.7296722384590973 0.5689676616548299	-0.163565
C	0.9653622322112781 0.7328363309350192 0.5858628849053753	0.112432
C	0.7377578028209910 0.4237240699847826 0.6340480426807903	-0.182442
C	0.7351925044878876 0.5249641669460712 0.6283705721540352	0.110980
C	0.7175464381772004 0.0658863742686399 0.5735864538640614	-0.164784
C	0.7239005777080365 0.9648151660954580 0.5885123172689336	0.112004
C	0.0762292732485134 0.7602126929277663 0.8666900927634315	-0.182347
C	0.9750554205386719 0.7616644828898814 0.8730606540600636	0.109380
C	0.4341119372570406 0.7760129029921601 0.9294453076203379	-0.162004
C	0.5352003527750069 0.7718410948656322 0.9129923462133612	0.112336
C	0.7767738638507886 0.4336888691409507 0.9284572521411395	-0.166128
C	0.7714460413662482 0.5347782427764504 0.9127651674627603	0.111938
C	0.7644701847502473 0.0759485305217187 0.8642964127346133	-0.180586
C	0.7676379434606374 0.9747220349996548 0.8695025804727025	0.108428
C	0.6232553388819901 0.2344384708131564 0.2161425631217568	0.189389
C	0.8767516233243886 0.2640025202364866 0.2839669026954352	0.188446
C	0.2343482720755978 0.6232573467375286 0.2181871538726767	0.191606
C	0.2670038745557772 0.8768341640423610 0.2820587281219618	0.187536
C	0.3772939188056476 0.7577931491918465 0.7888214661514306	0.186477
C	0.1231580121816210 0.7443863862131125 0.7109967642123672	0.188755
C	0.7583970935218157 0.3769030678297861 0.7877485193184381	0.190088
C	0.7394219853838518 0.1227318291814604 0.7126891701204138	0.186837
H	0.6187098083006694 0.2806997640407067 0.4752174234222171	0.104917
H	0.4354539301899715 0.2891643993517535 0.4834863622896333	0.108140
H	0.8996451507308314 0.3105283030030649 0.5396522322019501	0.124774
H	0.0808365759190035 0.2939479734815594 0.5149716841879449	0.108486
H	0.2780231817095194 0.6192128671907966 0.4781479574539986	0.108227
H	0.2866618576614056 0.4355191159034913 0.4870239825947941	0.108255
H	0.3231405465719333 0.8998088561529289 0.5314736888081462	0.125438
H	0.3038000745639085 0.0811636111052241 0.5102389784670548	0.107786
H	0.8812084766460120 0.2243722881862191 0.0215533174015112	0.105375
H	0.0646212534857231 0.2160400360897449 0.0124156663629503	0.108361
H	0.6003869170684687 0.1814733409634927 0.9644885880045414	0.125426
H	0.4190818176823277 0.1993358066426489 0.9871966965784007	0.107759
H	0.1842698832144624 0.6002685327934203 0.9647567643091683	0.125489
H	0.2024724109279316 0.4190203874294942 0.9878027358252783	0.107800
H	0.2170714566027405 0.8809200421037555 0.0255595765802742	0.108294
H	0.2085784832827624 0.0645012967237690 0.0172721839190425	0.108863
H	0.3823383605248907 0.7264871676818893 0.5215875992393726	0.099878
H	0.5651691820594223 0.7211706993591596 0.5116218844245145	0.108915
H	0.1003072262436094 0.7162993077909372 0.4469821190923655	0.124012
H	0.9188923642950151 0.7225190924257888 0.4775982433617592	0.107663
H	0.7275768138343824 0.3817081698370279 0.5208098584382441	0.100999
H	0.7210477904882840 0.5649088343584406 0.5114665894578868	0.108951
H	0.6962371426448204 0.0997566089289020 0.4554589821164187	0.124571
H	0.7090188199626087 0.9182623999278036 0.4818083623860037	0.107230
H	0.1180166360218836 0.7684540080985518 0.9806215857138469	0.099507
H	0.9350745501252676 0.7725879531116525 0.9911456253036153	0.109844
H	0.4003269022769082 0.7929810968191530 0.0500091761906537	0.123533
H	0.5817488633024822 0.7847961346016452 0.0203143107676995	0.108424
H	0.7945669655176564 0.3998174296499581 0.0484595414827953	0.125162
H	0.7838595510536406 0.5812926817684333 0.0204450408511868	0.107850
H	0.7775930931285073 0.1179002742528752 0.9765870934969911	0.101777
H	0.7848432563461428 0.9348175522223515 0.9850664498583254	0.110074
N	0.7743816087014317 0.2740071320926046 0.3010033221814215	-0.098842
N	0.2784849525898006 0.7743957711216143 0.2965497363145675	-0.104319
N	0.7256711613803943 0.2240287628893123 0.1993974637314100	-0.104462
N	0.2231834879256732 0.7256388395229766 0.2034366668520173	-0.100760
N	0.2255882832653983 0.7394181512038048 0.6868608058127208	-0.099554
N	0.7313989533114377 0.2251765852599459 0.6911176071713327	-0.098784
N	0.2748417652817967 0.7634160500719319 0.8127762776533320	-0.097416
N	0.7657976378894719 0.2744848969370908 0.8095718554945409	-0.100035
N	0.4210698203873963 0.2464013567976228 0.2353290469520473	-0.233551
N	0.0789275687419030 0.2529081638959068 0.2635343636998002	-0.232397
N	0.2465612904279864 0.4210351169396742 0.2375692232049993	-0.234677
N	0.2541828780362212 0.0790278763529949 0.2637427305194019	-0.235049
N	0.5796407456319732 0.7516849299611198 0.7653451636852233	-0.231400
N	0.9207831347580099 0.7487277239738775 0.7351235225615594	-0.231207
N	0.7510125301690110 0.5792701462924241 0.7653683590341430	-0.233292
N	0.7484891189743164 0.9203689647845049 0.7338589671559743	-0.230722
F	0.3368284104139578 0.1609696456603526 0.7505069936372913	-0.550832
F	0.1631504482253804 0.3389637124173833 0.7489386861391899	-0.551390
F	0.3375098893349724 0.3357755697673331 0.7802959229819258	-0.560648
F	0.1622917263136514 0.1642391900879616 0.7195750977433424	-0.560769
F	0.6612419193594973 0.8370436387225342 0.2512677433303129	-0.548194
F	0.8384754452983592 0.6632490348142326 0.2482713961857837	-0.548843
F	0.6641113502714499 0.6628043252786887 0.2163073005928970	-0.556403
F	0.8356928688879809 0.8374636426876444 0.2830040654704866	-0.556384
F	0.2669736314399080 0.2657571223015048 0.5317256719781128	-0.512101
F	0.2329727422588642 0.2340544436021700 0.9680187484031882	-0.512461
F	0.7329059108286828 0.7319076685991442 0.4674181595790578	-0.512510
F	0.7669402630957198 0.7683907804789100 0.0321117313182846	-0.512353
Si	0.2499889346231054 0.2499306085670794 0.7498171220700628	1.735746
Si	0.7498874795446544 0.7501313125277242 0.2496802098861525	1.731267
Cd	0.2499619863440812 0.2500652088653875 0.2498291900430095	0.824281
Cd	0.7502576990306948 0.7496858549433675 0.7497529390808606	0.820943
	  	
