#======================================================================

# CRYSTAL DATA

#----------------------------------------------------------------------

data_VESTA_phase_1


_pd_phase_name                         SIFSIX_14_Fe_i
_cell_length_a                         13.40762
_cell_length_b                         13.39894
_cell_length_c                         7.66474
_cell_angle_alpha                      87.35931
_cell_angle_beta                       87.33851
_cell_angle_gamma                      89.99793
_symmetry_space_group_name_H-M         P 1
_symmetry_Int_Tables_number            1

loop_
_symmetry_equiv_pos_as_xyz
   x, y, z

loop_
   _atom_site_label
   _atom_site_fract_x
   _atom_site_fract_y
   _atom_site_fract_z
   _atom_site_charge
C	0.5702661922520561 0.2708618263983595 0.3681544303697591	-0.184743
C	0.4666474435336902 0.2741544071998404 0.3731409108510624	0.108909
C	0.9360511315044929 0.2897234385046924 0.4217615128560179	-0.177881
C	0.0392272897115457 0.2819410715524905 0.4072448500851343	0.110047
C	0.2691813102461622 0.5699937149335780 0.3708922477579741	-0.184769
C	0.2725811940070587 0.4662912582465280 0.3763175257257937	0.110463
C	0.2973782568808682 0.9358484025638500 0.4162492983970524	-0.178146
C	0.2885245555261016 0.0390215165401921 0.4030156101556303	0.108316
C	0.9300371229998419 0.2316390690030171 0.1292917378342436	-0.186113
C	0.0336610963248786 0.2285080841324797 0.1238461618800675	0.108899
C	0.5642759817570062 0.2057403690308255 0.0807068112396230	-0.174092
C	0.4611133482212600 0.2140848340692360 0.0942221700193135	0.107387
C	0.2068712361456536 0.5637578421137315 0.0814811380052342	-0.179251
C	0.2154299521965918 0.4606050996051012 0.0954575293492419	0.109832
C	0.2281852192781277 0.9295772633941015 0.1320899020688584	-0.184926
C	0.2248159801479678 0.0332572233569865 0.1269135715849344	0.110463
C	0.4302552172875159 0.7340760914636848 0.6285258662839468	-0.179298
C	0.5337953824799119 0.7318119276864969 0.6226392254340132	0.109496
C	0.0640522772333834 0.7280288901698370 0.5682216284809642	-0.166491
C	0.9607103276511650 0.7305273387080369 0.5858303412121959	0.110457
C	0.7340314969071157 0.4303491688055359 0.6282300845557400	-0.179156
C	0.7321028259335469 0.5339774042484440 0.6224824161733121	0.110442
C	0.7149887170663740 0.0638757369967655 0.5739138038779382	-0.166224
C	0.7199497653340371 0.9605070786294627 0.5899520812619983	0.108139
C	0.0697356127418693 0.7633707268392401 0.8733283823708412	-0.181207
C	0.9661880704026156 0.7648422047550975 0.8795360129602466	0.110473
C	0.4360896079905655 0.7779134706611317 0.9296117595935895	-0.166863
C	0.5394253418734810 0.7744934644759890 0.9123737597045157	0.110850
C	0.7790056843323137 0.4359494386008522 0.9287442157710715	-0.167570
C	0.7749294733707623 0.5393326446444648 0.9121820912605689	0.109064
C	0.7686065677594270 0.0697100516649508 0.8693643387399078	-0.178745
C	0.7712729342594041 0.9661192624963323 0.8747551268290104	0.111518
C	0.6208328669746223 0.2361220865127026 0.2180921046819294	0.190529
C	0.8794912235195612 0.2626328354631205 0.2821234592070223	0.193442
C	0.2357975472436662 0.6203734519877834 0.2198536505995195	0.192165
C	0.2650730340576800 0.8791939429831557 0.2803643245327056	0.191863
C	0.3795838254592286 0.7570150078546681 0.7864806190836716	0.187244
C	0.1204737889113056 0.7451039529244742 0.7132158303483448	0.188385
C	0.7573968612350753 0.3795418474437747 0.7857393673199345	0.188599
C	0.7404787330579325 0.1204097711611471 0.7145684636818469	0.186403
H	0.6108585758231831 0.2898068794973750 0.4816828817187153	0.109930
H	0.4251528295845700 0.2974130051679096 0.4901736169237913	0.099454
H	0.8997292052237640 0.3159978258519106 0.5406250335869343	0.123807
H	0.0846280494840628 0.3011037837122129 0.5152889356249891	0.101946
H	0.2871622412772534 0.6109549264578034 0.4845923797738093	0.112622
H	0.2947378352501985 0.4249203596879478 0.4941687429340588	0.099418
H	0.3282565392542885 0.8995418948713808 0.5313073253079509	0.123934
H	0.3109173253202653 0.0846027638241987 0.5088550851752464	0.102923
H	0.8892832682649379 0.2154764607918006 0.0144357148943709	0.110374
H	0.0751148801754356 0.2078514201217058 0.0050820086902202	0.100183
H	0.6006579073829397 0.1763707421207252 0.9643856459376509	0.122624
H	0.4157327009735403 0.1927208266992527 0.9874909615475648	0.102705
H	0.1789768621964145 0.6000153196111715 0.9638279624399866	0.123918
H	0.1953635062891578 0.4150691528498484 0.9880582846165504	0.101643
H	0.2074371981723931 0.8887006788626189 0.0199403793190967	0.112219
H	0.2001506168550350 0.0746531243658199 0.0107977106319293	0.099898
H	0.3900325228607637 0.7213869401628666 0.5113057739860241	0.102464
H	0.5753526024777946 0.7145149450697228 0.5021909960172464	0.100218
H	0.1005718262560882 0.7133612001798740 0.4426290854488171	0.121389
H	0.9156751498853648 0.7169257140753076 0.4747825715541126	0.101082
H	0.7215644922867598 0.3899658254174576 0.5110789542136659	0.103736
H	0.7152198687276773 0.5756573728540607 0.5019586692476253	0.100123
H	0.6917286171340443 0.1003846815504985 0.4531858892860345	0.122228
H	0.7007711274207010 0.9153445214831556 0.4817467464330095	0.101748
H	0.1099500050536440 0.7730456163035861 0.9917120802954725	0.102554
H	0.9245404446744010 0.7783579757739607 0.0016178186602278	0.100018
H	0.3996281224220324 0.7964356954466471 0.0533180333799187	0.121681
H	0.5844977339511720 0.7909479381824247 0.0220622001312481	0.101350
H	0.7983648685151670 0.3993581995354271 0.0518265425230213	0.122017
H	0.7913039242215215 0.5844206778302122 0.0220166184242324	0.101237
H	0.7841975817953133 0.1099808080300594 0.9852064584086053	0.104114
H	0.7917296482406736 0.9245674035985693 0.9934340568033346	0.100382
N	0.7751410989964256 0.2755821981600246 0.2994030273221302	-0.113591
N	0.2792840270382558 0.7747812998847434 0.2949735131448113	-0.114085
N	0.7252027659206131 0.2227656283114302 0.2012206003779586	-0.114003
N	0.2218744261481164 0.7247515353122925 0.2049054531924920	-0.113007
N	0.2249957661051212 0.7397722116358060 0.6854017825276050	-0.106640
N	0.7321712919697798 0.2249650623237808 0.6894221345440701	-0.106739
N	0.2750552584081342 0.7630123779067729 0.8140683417236879	-0.105590
N	0.7649538323994353 0.2749872106744202 0.8112686541424755	-0.108648
N	0.4123980239771351 0.2474814620945536 0.2383866833838582	-0.250100
N	0.0879768747889282 0.2520362240805293 0.2604341109315002	-0.253517
N	0.2473884615317314 0.4119541348941617 0.2408090437637490	-0.253559
N	0.2532086153475399 0.0875957184406382 0.2603018977461364	-0.251767
N	0.5882107635025303 0.7512910276472969 0.7616573079772657	-0.251559
N	0.9117988697102072 0.7490872027998748 0.7388056346607667	-0.252063
N	0.7515717151214262 0.5882831073393624 0.7616667178186427	-0.252235
N	0.7479910925266895 0.9117357484832084 0.7377194367235148	-0.250983
F	0.3394315532047948 0.1581454379047066 0.7506028563526796	-0.528584
F	0.1627181914209781 0.3395186300605189 0.7490056528842791	-0.529154
F	0.3413931810597157 0.3374604672178805 0.7329821732443595	-0.530729
F	0.1604081628787694 0.1606441541743044 0.7666713585408501	-0.530971
F	0.6590751648319592 0.8397262204695363 0.2502344438166413	-0.523663
F	0.8395285345633734 0.6625338064672207 0.2495269036455018	-0.525195
F	0.6608332365663967 0.6608396745910777 0.2650794537345817	-0.527500
F	0.8379800043166108 0.8411629707015122 0.2348045486175879	-0.527784
F	0.2508575346346414 0.2480950296034095 0.5175727739646561	-0.482189
F	0.2515090629567015 0.2497209280905364 0.9821176641959656	-0.482155
F	0.7492092746448500 0.7509389669626843 0.4825891851616366	-0.482060
F	0.7493910062267234 0.7511809932185147 0.0171923887994935	-0.481846
Si	0.2510948012587967 0.2488593346844658 0.7498859959212461	1.723218
Si	0.7492753890545404 0.7511592924880978 0.2498203064084687	1.718508
Fe	0.2502828821794828 0.2497479998126522 0.2498550421937383	0.851519
Fe	0.7499868924431726 0.7500462907543101 0.7499150064574188	0.864819
	  	
