#======================================================================

# CRYSTAL DATA

#----------------------------------------------------------------------

data_VESTA_phase_1


_pd_phase_name                         SIFSIX_2_Co
_cell_length_a                         13.55890
_cell_length_b                         13.55890
_cell_length_c                         7.87908
_cell_angle_alpha                      90
_cell_angle_beta                       90
_cell_angle_gamma                      90
_symmetry_space_group_name_H-M         P 1
_symmetry_Int_Tables_number            1

loop_
_symmetry_equiv_pos_as_xyz
   x, y, z

loop_
   _atom_site_label
   _atom_site_fract_x
   _atom_site_fract_y
   _atom_site_fract_z
   _atom_site_charge
C	0.5315588459378832 0.6947425919056068 0.1376067154263021	0.088999
C	0.5323500066367223 0.7969209922783441 0.1423409415780456	-0.162195
C	0.4684412240621151 0.3052574080943933 0.1376067154263021	0.088996
C	0.4676499583632787 0.2030789897216544 0.1423409415780456	-0.162192
C	0.3052574080943933 0.5315588459378832 0.1376067154263021	0.088999
C	0.2030789897216544 0.5323500066367223 0.1423409415780456	-0.162195
C	0.6947425919056068 0.4684412240621151 0.1376067154263021	0.088996
C	0.7969209922783441 0.4676499583632787 0.1423409415780456	-0.162192
C	0.4684412240621151 0.6947425919056068 0.8623932845736980	0.089000
C	0.4676499583632787 0.7969209922783441 0.8576590284219517	-0.162194
C	0.5315588459378832 0.3052574080943933 0.8623932845736980	0.088997
C	0.5323500066367223 0.2030789897216544 0.8576590284219517	-0.162191
C	0.6947425919056068 0.5315588459378832 0.8623932845736980	0.088997
C	0.7969209922783441 0.5323500066367223 0.8576590284219517	-0.162191
C	0.3052574080943933 0.4684412240621151 0.8623932845736980	0.089000
C	0.2030789897216544 0.4676499583632787 0.8576590284219517	-0.162194
C	0.5000000000000000 0.1492402391469911 -0.0000000000000000	0.163917
C	0.5000000000000000 0.0449782348024486 -0.0000000000000000	-0.093673
C	0.5000000000000000 0.8507597608530090 -0.0000000000000000	0.163886
C	0.5000000000000000 0.9550217081975577 -0.0000000000000000	-0.093420
C	0.8507597608530090 0.5000000000000000 -0.0000000000000000	0.163917
C	0.9550217081975577 0.5000000000000000 -0.0000000000000000	-0.093673
C	0.1492402391469911 0.5000000000000000 -0.0000000000000000	0.163886
C	0.0449782348024486 0.5000000000000000 -0.0000000000000000	-0.093420
H	0.5556614542546578 0.6515831588460279 0.2466439905584503	0.111830
H	0.5584886867081060 0.8345351748300799 0.2557454350144972	0.130011
H	0.4443385457453422 0.3484167711539734 0.2466439905584503	0.111830
H	0.4415113482918932 0.1654647551699212 0.2557454350144972	0.130011
H	0.3484167711539734 0.5556614542546578 0.2466439905584503	0.111830
H	0.1654647551699212 0.5584886867081060 0.2557454350144972	0.130011
H	0.6515831588460279 0.4443385457453422 0.2466439905584503	0.111830
H	0.8345351748300799 0.4415113482918932 0.2557454350144972	0.130011
H	0.4443385457453422 0.6515831588460279 0.7533560094415498	0.111830
H	0.4415113482918932 0.8345351748300799 0.7442545949855054	0.130009
H	0.5556614542546578 0.3484167711539734 0.7533560094415498	0.111830
H	0.5584886867081060 0.1654647551699212 0.7442545949855054	0.130009
H	0.6515831588460279 0.5556614542546578 0.7533560094415498	0.111830
H	0.8345351748300799 0.5584886867081060 0.7442545949855054	0.130010
H	0.3484167711539734 0.4443385457453422 0.7533560094415498	0.111830
H	0.1654647551699212 0.4415113482918932 0.7442545949855054	0.130008
Co	0.5000000000000000 0.5000000000000000 -0.0000000000000000	0.585687
Si	0.5000000000000000 0.5000000000000000 0.5000000000000000	1.717784
F	0.5000000000000000 0.5000000000000000 0.7206365599715749	-0.505788
F	0.5000000000000000 0.5000000000000000 0.2793634700284205	-0.505788
F	0.5892648038812881 0.5892648038812881 0.5000000000000000	-0.543219
F	0.4107352311187115 0.5892648038812881 0.5000000000000000	-0.543218
F	0.4107352311187115 0.4107352311187115 0.5000000000000000	-0.543219
F	0.5892648038812881 0.4107352311187115 0.5000000000000000	-0.543219
N	0.5000000000000000 0.3559125134655625 -0.0000000000000000	-0.187401
N	0.5000000000000000 0.6440874515344385 -0.0000000000000000	-0.187401
N	0.6440874515344385 0.5000000000000000 -0.0000000000000000	-0.187401
N	0.3559125134655625 0.5000000000000000 -0.0000000000000000	-0.187400
	  	
