#======================================================================

# CRYSTAL DATA

#----------------------------------------------------------------------

data_VESTA_phase_1


_pd_phase_name                         SIFSIX_15_Co_i
_cell_length_a                         29.44483
_cell_length_b                         28.44766
_cell_length_c                         8.00887
_cell_angle_alpha                      90
_cell_angle_beta                       90
_cell_angle_gamma                      90
_symmetry_space_group_name_H-M         P 1
_symmetry_Int_Tables_number            1

loop_
_symmetry_equiv_pos_as_xyz
   x, y, z

loop_
   _atom_site_label
   _atom_site_fract_x
   _atom_site_fract_y
   _atom_site_fract_z
   _atom_site_charge
C	0.9365694269841076 0.1056872831821041 0.8953783957099376	0.089867
C	0.9039917575642467 0.0705620611607982 0.9004568586834135	-0.160685
C	0.7703328244146197 0.9363245536999506 0.9022786309296288	-0.116397
C	0.7354765643562540 0.9036031640958559 0.9020239766471330	-0.114572
C	0.5648706902758392 0.7382905964976781 0.8952424698697157	0.089576
C	0.5989890322124384 0.7718528146696462 0.9001023744066018	-0.165933
C	0.4365694589841030 0.6056872991821053 0.8953783957099376	0.089867
C	0.4039917895642496 0.5705620241607990 0.9004568586834135	-0.160685
C	0.2703327604146213 0.4363245866999499 0.9022786309296288	-0.116397
C	0.2354765323562510 0.4036032300958613 0.9020239766471330	-0.114572
C	0.0648707142758419 0.2382905794976805 0.8952424698697157	0.089576
C	0.0989890082124365 0.2718528476696455 0.9001023744066018	-0.165923
C	0.0634305410158970 0.8943127008178947 0.3953784267099367	0.089797
C	0.0960082184357512 0.9294379758392010 0.4004568906834083	-0.160664
C	0.2296671915853815 0.0636754093000496 0.4022786929296271	-0.116397
C	0.2645234516437475 0.0963967859041401 0.4020239766471328	-0.114572
C	0.4351292777241572 0.2617094535023187 0.3952425008697145	0.089581
C	0.4010109677875615 0.2281471523303543 0.4001023744066020	-0.165917
C	0.5634305730158924 0.3943127338178937 0.3953784267099367	0.089797
C	0.5960082424357533 0.4294379758392015 0.4004568906834083	-0.160665
C	0.7296671755853803 0.5636754463000494 0.4022786929296271	-0.116397
C	0.7645234356437460 0.5963968359041441 0.4020239766471328	-0.114572
C	0.9351293097241608 0.7617094035023219 0.3952425008697145	0.089581
C	0.9010109677875616 0.7281471853303538 0.4001023744066020	-0.165927
C	0.0634305410158970 0.1056872831821041 0.6046215732900634	0.089867
C	0.0960082184357512 0.0705620611607982 0.5995430473165858	-0.160685
C	0.2296671915853815 0.9363245536999506 0.5977213380703722	-0.116396
C	0.2645234516437475 0.9036031640958559 0.5979760543528660	-0.114572
C	0.4351292777241572 0.7382905964976781 0.6047574361302837	0.089579
C	0.4010109677875615 0.7718528146696462 0.5998975945933992	-0.165927
C	0.5634305730158924 0.6056872991821053 0.6046215732900633	0.089867
C	0.5960082424357533 0.5705620241607990 0.5995430473165858	-0.160685
C	0.7296671755853803 0.4363245866999499 0.5977213380703722	-0.116397
C	0.7645234356437460 0.4036032300958613 0.5979760543528660	-0.114572
C	0.9351293097241608 0.2382905794976805 0.6047574361302837	0.089579
C	0.9010109677875616 0.2718528476696455 0.5998975945933992	-0.165917
C	0.9365694269841076 0.8943127008178947 0.1046215892900646	0.089864
C	0.9039917575642467 0.9294379758392010 0.0995430863165859	-0.160685
C	0.7703328244146197 0.0636754093000496 0.0977213380703720	-0.116396
C	0.7354765643562540 0.0963967859041401 0.0979760393528614	-0.114572
C	0.5648706902758392 0.2617094535023187 0.1047574911302849	0.089581
C	0.5989890322124384 0.2281471523303543 0.0998976405933958	-0.165916
C	0.4365694589841030 0.3943127338178937 0.1046215892900646	0.089864
C	0.4039917895642496 0.4294379758392015 0.0995430863165859	-0.160684
C	0.2703327604146213 0.5636754463000494 0.0977213380703720	-0.116396
C	0.2354765323562510 0.5963968359041441 0.0979760393528614	-0.114572
C	0.0648707142758419 0.7617094035023219 0.1047574911302849	0.089581
C	0.0989890082124365 0.7281471853303538 0.0998976405933958	-0.165927
C	0.0634305410158970 0.8943127008178947 0.1046215892900646	0.089864
C	0.0960082184357512 0.9294379758392010 0.0995430863165859	-0.160684
C	0.2296671915853815 0.0636754093000496 0.0977213380703720	-0.116396
C	0.2645234516437475 0.0963967859041401 0.0979760393528614	-0.114572
C	0.4351292777241572 0.2617094535023187 0.1047574911302849	0.089581
C	0.4010109677875615 0.2281471523303543 0.0998976405933958	-0.165917
C	0.5634305730158924 0.3943127338178937 0.1046215892900646	0.089864
C	0.5960082424357533 0.4294379758392015 0.0995430863165859	-0.160685
C	0.7296671755853803 0.5636754463000494 0.0977213380703720	-0.116396
C	0.7645234356437460 0.5963968359041441 0.0979760393528614	-0.114572
C	0.9351293097241608 0.7617094035023219 0.1047574911302849	0.089581
C	0.9010109677875616 0.7281471853303538 0.0998976405933958	-0.165927
C	0.9365694269841076 0.1056872831821041 0.6046215732900634	0.089867
C	0.9039917575642467 0.0705620611607982 0.5995430473165858	-0.160685
C	0.7703328244146197 0.9363245536999506 0.5977213380703722	-0.116397
C	0.7354765643562540 0.9036031640958559 0.5979760543528660	-0.114572
C	0.5648706902758392 0.7382905964976781 0.6047574361302837	0.089579
C	0.5989890322124384 0.7718528146696462 0.5998975945933992	-0.165927
C	0.4365694589841030 0.6056872991821053 0.6046215732900634	0.089866
C	0.4039917895642496 0.5705620241607990 0.5995430473165858	-0.160685
C	0.2703327604146213 0.4363245866999499 0.5977213380703722	-0.116397
C	0.2354765323562510 0.4036032300958613 0.5979760543528660	-0.114572
C	0.0648707142758419 0.2382905794976805 0.6047574361302837	0.089579
C	0.0989890082124365 0.2718528476696455 0.5998975945933992	-0.165917
C	0.9365694269841076 0.8943127008178947 0.3953784267099367	0.089797
C	0.9039917575642467 0.9294379758392010 0.4004568906834083	-0.160664
C	0.7703328244146197 0.0636754093000496 0.4022786929296271	-0.116396
C	0.7354765643562540 0.0963967859041401 0.4020239766471328	-0.114573
C	0.5648706902758392 0.2617094535023187 0.3952425008697145	0.089581
C	0.5989890322124384 0.2281471523303543 0.4001023744066020	-0.165916
C	0.4365694589841030 0.3943127338178937 0.3953784267099367	0.089797
C	0.4039917895642496 0.4294379758392015 0.4004568906834083	-0.160664
C	0.2703327604146213 0.5636754463000494 0.4022786929296271	-0.116396
C	0.2354765323562510 0.5963968359041441 0.4020239766471328	-0.114573
C	0.0648707142758419 0.7617094035023219 0.3952425008697145	0.089581
C	0.0989890082124365 0.7281471853303538 0.4001023744066020	-0.165927
C	0.0634305410158970 0.1056872831821041 0.8953783957099376	0.089866
C	0.0960082184357512 0.0705620611607982 0.9004568586834135	-0.160685
C	0.2296671915853815 0.9363245536999506 0.9022786309296288	-0.116396
C	0.2645234516437475 0.9036031640958559 0.9020239766471330	-0.114572
C	0.4351292777241572 0.7382905964976781 0.8952424698697157	0.089576
C	0.4010109677875615 0.7718528146696462 0.9001023744066018	-0.165933
C	0.5634305730158924 0.6056872991821053 0.8953783957099376	0.089866
C	0.5960082424357533 0.5705620241607990 0.9004568586834135	-0.160685
C	0.7296671755853803 0.4363245866999499 0.9022786309296288	-0.116397
C	0.7645234356437460 0.4036032300958613 0.9020239766471330	-0.114572
C	0.9351293097241608 0.2382905794976805 0.8952424698697157	0.089576
C	0.9010109677875616 0.2718528476696455 0.9001023744066018	-0.165923
C	0.6519095925172724 0.8236589126307463 0.7500000160000013	-0.104519
C	0.8867969831640117 0.0521919403244504 0.7500000160000013	0.159913
C	0.8233249765322919 0.9870301656774878 0.7500000160000013	-0.098372
C	0.6170272137734819 0.7895927884109596 0.7500000160000013	0.167117
C	0.7882444469794836 0.9532018228989910 0.7500000160000013	0.126537
C	0.7174575626800254 0.8866290551612371 0.7500000160000013	0.136986
C	0.6821787197940725 0.8530084602930372 0.7500000160000013	-0.100439
C	0.8531273929849625 0.0168871021986340 0.7500000160000013	-0.105519
C	0.1519095765172704 0.3236589126307466 0.7500000160000013	-0.104519
C	0.3867968871640105 0.5521919523244516 0.7500000160000013	0.159913
C	0.3233249765322920 0.4870301656774874 0.7500000160000013	-0.098372
C	0.1170272057734815 0.2895927884109591 0.7500000160000013	0.167115
C	0.2882444149794882 0.4532018228989913 0.7500000160000013	0.126537
C	0.2174575466800233 0.3866290881612370 0.7500000160000013	0.136986
C	0.1821786867940735 0.3530084272930379 0.7500000160000013	-0.100439
C	0.3531273609849593 0.5168870971986305 0.7500000160000013	-0.105519
C	0.3480904394827312 0.1763410873692532 0.2500000000000000	-0.104518
C	0.1132030888359945 0.9478080476755484 0.2500000000000000	0.159909
C	0.1766750234677077 0.0129698303225121 0.2500000000000000	-0.098373
C	0.3829727862265179 0.2104071955890394 0.2500000000000000	0.167111
C	0.2117555690205177 0.0467981691010083 0.2500000000000000	0.126536
C	0.2825424373199756 0.1133709038387625 0.2500000000000000	0.136986
C	0.3178213132059264 0.1469915397069627 0.2500000000000000	-0.100439
C	0.1468726390150406 0.9831128698013704 0.2500000000000000	-0.105520
C	0.8480904074827276 0.6763410873692537 0.2500000000000000	-0.104518
C	0.6132030168359883 0.4478080806755478 0.2500000000000000	0.159909
C	0.6766750234677081 0.5129698343225122 0.2500000000000000	-0.098372
C	0.8829727862265181 0.7104072115890404 0.2500000000000000	0.167114
C	0.7117555530205164 0.5467982101010082 0.2500000000000000	0.126536
C	0.7825424373199746 0.6133709448387629 0.2500000000000000	0.136986
C	0.8178212802059275 0.6469915397069628 0.2500000000000000	-0.100440
C	0.6468726070150375 0.4831128698013709 0.2500000000000000	-0.105520
C	0.3480904394827312 0.8236589126307463 0.7500000160000013	-0.104519
C	0.1132030888359945 0.0521919403244504 0.7500000160000013	0.159913
C	0.1766750234677077 0.9870301656774878 0.7500000160000013	-0.098372
C	0.3829727862265179 0.7895927884109596 0.7500000160000013	0.167117
C	0.2117555690205178 0.9532018228989910 0.7500000160000013	0.126537
C	0.2825424373199756 0.8866290551612371 0.7500000160000013	0.136986
C	0.3178213132059264 0.8530084602930372 0.7500000160000013	-0.100439
C	0.1468726390150406 0.0168871021986340 0.7500000160000013	-0.105519
C	0.8480904074827276 0.3236589126307466 0.7500000160000013	-0.104519
C	0.6132030168359883 0.5521919523244516 0.7500000160000013	0.159913
C	0.6766750234677081 0.4870301656774874 0.7500000160000013	-0.098372
C	0.8829727862265181 0.2895927884109591 0.7500000160000013	0.167115
C	0.7117555530205164 0.4532018228989913 0.7500000160000013	0.126537
C	0.7825424373199746 0.3866290881612370 0.7500000160000013	0.136986
C	0.8178212802059275 0.3530084272930379 0.7500000160000013	-0.100439
C	0.6468726070150375 0.5168870971986305 0.7500000160000013	-0.105519
C	0.6519095925172724 0.1763410873692532 0.2500000000000000	-0.104518
C	0.8867969831640117 0.9478080476755484 0.2500000000000000	0.159909
C	0.8233249765322919 0.0129698303225121 0.2500000000000000	-0.098373
C	0.6170272137734819 0.2104071955890394 0.2500000000000000	0.167111
C	0.7882444469794836 0.0467981691010083 0.2500000000000000	0.126536
C	0.7174575626800254 0.1133709038387625 0.2500000000000000	0.136986
C	0.6821787197940725 0.1469915397069627 0.2500000000000000	-0.100439
C	0.8531273929849625 0.9831128698013704 0.2500000000000000	-0.105520
C	0.1519095765172704 0.6763410873692537 0.2500000000000000	-0.104518
C	0.3867968871640105 0.4478080806755478 0.2500000000000000	0.159909
C	0.3233249765322920 0.5129698343225122 0.2500000000000000	-0.098372
C	0.1170272057734815 0.7104072115890404 0.2500000000000000	0.167114
C	0.2882444149794882 0.5467982101010082 0.2500000000000000	0.126536
C	0.2174575466800233 0.6133709448387629 0.2500000000000000	0.136986
C	0.1821786867940735 0.6469915397069628 0.2500000000000000	-0.100439
C	0.3531273609849593 0.4831128698013709 0.2500000000000000	-0.105520
H	0.9502267551661244 0.1204108599522802 0.0100604877653656	0.109987
H	0.8920335861202181 0.0576224308324175 0.0206411167228754	0.123832
H	0.7842944204116515 0.9493200960754268 0.0195174853111131	0.106132
H	0.7216173931845237 0.8906097741912365 0.0192779394051565	0.114973
H	0.5506621969038994 0.7242340042800076 0.0100585987718466	0.108965
H	0.6114549475320709 0.7840605055995290 0.0204223003260182	0.128259
H	0.4502268511661253 0.6204108759522816 0.0100604877653656	0.109986
H	0.3920335221202195 0.5576224598324235 0.0206411167228754	0.123832
H	0.2842944204116515 0.4493200960754264 0.0195174853111131	0.106132
H	0.2216174091845249 0.3906098731912409 0.0192779394051565	0.114973
H	0.0506622049039003 0.2242340532800077 0.0100585987718466	0.108966
H	0.1114549635320643 0.2840604395995310 0.0204223003260182	0.128249
H	0.0497731848338707 0.8795891240477184 0.5100605167653645	0.110032
H	0.1079664618797792 0.9423775401675765 0.5206411517228746	0.123829
H	0.2157056115883513 0.0506799209245785 0.5195175173111158	0.106133
H	0.2783826068154766 0.1093901518087647 0.5192779354051559	0.114973
H	0.4493378030961004 0.2757659297199946 0.5100585987718467	0.108973
H	0.3885450524679299 0.2159395114004683 0.5204223313260172	0.128248
H	0.5497732448338756 0.3795891240477186 0.5100605167653645	0.110032
H	0.6079664138797819 0.4423775731675830 0.5206411517228746	0.123829
H	0.7157055795883485 0.5506799039245732 0.5195175173111158	0.106133
H	0.7783826068154763 0.6093902258087635 0.5192779354051559	0.114973
H	0.9493378030961006 0.7757659957199924 0.5100585987718467	0.108973
H	0.8885450524679291 0.7159394944004710 0.5204223313260172	0.128258
H	0.0497731848338707 0.1204108599522802 0.4899395142346344	0.109987
H	0.1079664618797792 0.0576224308324175 0.4793588482771181	0.123832
H	0.2157056115883513 0.9493200960754268 0.4804825146888870	0.106132
H	0.2783826068154766 0.8906097741912365 0.4807220645948436	0.114973
H	0.4493378030961004 0.7242340042800076 0.4899414332281563	0.108972
H	0.3885450524679299 0.7840605055995290 0.4795776996739817	0.128258
H	0.5497732448338756 0.6204108759522816 0.4899395142346344	0.109986
H	0.6079664138797819 0.5576224598324235 0.4793588482771181	0.123832
H	0.7157055795883485 0.4493200960754264 0.4804825146888870	0.106132
H	0.7783826068154763 0.3906098731912409 0.4807220645948436	0.114973
H	0.9493378030961006 0.2242340532800077 0.4899414332281563	0.108973
H	0.8885450524679291 0.2840604395995310 0.4795776996739817	0.128248
H	0.9502267551661244 0.8795891240477184 0.9899395142346346	0.109987
H	0.8920335861202181 0.9423775401675765 0.9793588172771193	0.123832
H	0.7842944204116515 0.0506799209245785 0.9804825146888868	0.106132
H	0.7216173931845237 0.1093901518087647 0.9807220335948380	0.114973
H	0.5506621969038994 0.2757659297199946 0.9899414012281532	0.108973
H	0.6114549475320709 0.2159395114004683 0.9795776996739818	0.128248
H	0.4502268511661253 0.3795891240477186 0.9899395142346346	0.109987
H	0.3920335221202195 0.4423775731675830 0.9793588172771193	0.123832
H	0.2842944204116515 0.5506799039245732 0.9804825146888868	0.106132
H	0.2216174091845249 0.6093902258087635 0.9807220335948380	0.114973
H	0.0506622049039003 0.7757659957199924 0.9899414012281533	0.108973
H	0.1114549635320643 0.7159394944004710 0.9795776996739818	0.128258
H	0.0497731848338707 0.8795891240477184 0.9899395142346346	0.109987
H	0.1079664618797792 0.9423775401675765 0.9793588172771193	0.123832
H	0.2157056115883513 0.0506799209245785 0.9804825146888868	0.106132
H	0.2783826068154766 0.1093901518087647 0.9807220335948380	0.114975
H	0.4493378030961004 0.2757659297199946 0.9899414012281532	0.108973
H	0.3885450524679299 0.2159395114004683 0.9795776996739818	0.128249
H	0.5497732448338756 0.3795891240477186 0.9899395142346346	0.109987
H	0.6079664138797819 0.4423775731675830 0.9793588172771193	0.123832
H	0.7157055795883485 0.5506799039245732 0.9804825146888868	0.106132
H	0.7783826068154763 0.6093902258087635 0.9807220335948380	0.114975
H	0.9493378030961006 0.7757659957199924 0.9899414012281533	0.108972
H	0.8885450524679291 0.7159394944004710 0.9795776996739818	0.128259
H	0.9502267551661244 0.1204108599522802 0.4899395142346344	0.109987
H	0.8920335861202181 0.0576224308324175 0.4793588482771181	0.123832
H	0.7842944204116515 0.9493200960754268 0.4804825146888870	0.106132
H	0.7216173931845237 0.8906097741912365 0.4807220645948436	0.114975
H	0.5506621969038994 0.7242340042800076 0.4899414332281563	0.108972
H	0.6114549475320709 0.7840605055995290 0.4795776996739817	0.128259
H	0.4502268511661253 0.6204108759522816 0.4899395142346344	0.109986
H	0.3920335221202195 0.5576224598324235 0.4793588482771181	0.123832
H	0.2842944204116515 0.4493200960754264 0.4804825146888870	0.106132
H	0.2216174091845249 0.3906098731912409 0.4807220645948436	0.114975
H	0.0506622049039003 0.2242340532800077 0.4899414332281563	0.108973
H	0.1114549635320643 0.2840604395995310 0.4795776996739817	0.128249
H	0.9502267551661244 0.8795891240477184 0.5100605167653645	0.110032
H	0.8920335861202181 0.9423775401675765 0.5206411517228746	0.123829
H	0.7842944204116515 0.0506799209245785 0.5195175173111158	0.106133
H	0.7216173931845237 0.1093901518087647 0.5192779354051559	0.114975
H	0.5506621969038994 0.2757659297199946 0.5100585987718467	0.108973
H	0.6114549475320709 0.2159395114004683 0.5204223313260172	0.128248
H	0.4502268511661253 0.3795891240477186 0.5100605167653645	0.110032
H	0.3920335221202195 0.4423775731675830 0.5206411517228746	0.123829
H	0.2842944204116515 0.5506799039245732 0.5195175173111158	0.106133
H	0.2216174091845249 0.6093902258087635 0.5192779354051559	0.114975
H	0.0506622049039003 0.7757659957199924 0.5100585987718468	0.108973
H	0.1114549635320643 0.7159394944004710 0.5204223313260172	0.128258
H	0.0497731848338707 0.1204108599522802 0.0100604877653656	0.109987
H	0.1079664618797792 0.0576224308324175 0.0206411167228754	0.123832
H	0.2157056115883513 0.9493200960754268 0.0195174853111131	0.106132
H	0.2783826068154766 0.8906097741912365 0.0192779394051565	0.114975
H	0.4493378030961004 0.7242340042800076 0.0100585987718466	0.108965
H	0.3885450524679299 0.7840605055995290 0.0204223003260182	0.128259
H	0.5497732448338756 0.6204108759522816 0.0100604877653656	0.109986
H	0.6079664138797819 0.5576224598324235 0.0206411167228754	0.123832
H	0.7157055795883485 0.4493200960754264 0.0195174853111131	0.106132
H	0.7783826068154763 0.3906098731912409 0.0192779394051565	0.114975
H	0.9493378030961006 0.2242340532800077 0.0100585987718466	0.108966
H	0.8885450524679291 0.2840604395995310 0.0204223003260182	0.128249
Co	0.5000000000000000 0.6726188552070013 0.7500000160000013	0.573010
Co	0.0000000000000000 0.1726188722069988 0.7500000160000013	0.573010
Co	0.5000000000000000 0.3273811447929990 0.2500000000000000	0.573011
Co	0.0000000000000000 0.8273811447929987 0.2500000000000000	0.573011
Si	0.5000000000000000 0.6726765425815591 0.2500000000000000	1.709690
Si	0.0000000000000000 0.1726765425815592 0.2500000000000000	1.709637
Si	0.5000000000000000 0.3273234894184436 0.7500000160000013	1.709689
Si	0.0000000000000000 0.8273234574184409 0.7500000160000013	1.709689
F	0.5000000000000000 0.7326377031175303 0.2500000000000000	-0.542878
F	0.5000000000000000 0.6126995020307467 0.2500000000000000	-0.539206
F	0.0000000000000000 0.2326376541175296 0.2500000000000000	-0.542870
F	0.0000000000000000 0.1126994860307454 0.2500000000000000	-0.539178
F	0.5000000000000000 0.2673623458824702 0.7500000160000013	-0.542878
F	0.5000000000000000 0.3873004649692540 0.7500000160000013	-0.539208
F	0.0000000000000000 0.7673622968824697 0.7500000160000013	-0.542878
F	0.0000000000000000 0.8873004979692533 0.7500000160000013	-0.539207
F	0.5579844292847204 0.6726628157571829 0.2500000000000000	-0.542548
F	0.0579844492847220 0.1726628487571820 0.2500000000000000	-0.542544
F	0.4420155387152770 0.3273371182428188 0.7500000160000013	-0.542549
F	0.9420155707152796 0.8273371842428171 0.7500000160000013	-0.542549
F	0.4420155387152770 0.6726628157571829 0.2500000000000000	-0.542548
F	0.9420155707152796 0.1726628487571820 0.2500000000000000	-0.542544
F	0.5579844292847204 0.3273371182428188 0.7500000160000013	-0.542549
F	0.0579844492847220 0.8273371842428171 0.7500000160000013	-0.542549
F	0.5000000000000000 0.6727656520518263 0.4684118813290539	-0.502145
F	0.0000000000000000 0.1727656690518241 0.4684118813290539	-0.502142
F	0.5000000000000000 0.3272343809481732 0.9684118813290538	-0.502145
F	0.0000000000000000 0.8272343479481737 0.9684118813290538	-0.502145
F	0.5000000000000000 0.6727656520518263 0.0315881146709456	-0.502145
F	0.0000000000000000 0.1727656690518241 0.0315881146709455	-0.502143
F	0.5000000000000000 0.3272343809481732 0.5315880866709507	-0.502149
F	0.0000000000000000 0.8272343479481737 0.5315880866709507	-0.502149
N	0.5478113145568686 0.7214831682226364 0.7500000160000013	-0.183800
N	0.9528194775554404 0.1232476710245218 0.7500000160000013	-0.181541
N	0.0478112785568657 0.2214831522226353 0.7500000160000013	-0.183800
N	0.4528194775554402 0.6232476550245205 0.7500000160000013	-0.181541
N	0.4521887494431294 0.2785168317773634 0.2500000000000000	-0.183819
N	0.0471805304445602 0.8767523449754795 0.2500000000000000	-0.181524
N	0.9521886854431314 0.7785168317773636 0.2500000000000000	-0.183820
N	0.5471805224445596 0.3767523449754796 0.2500000000000000	-0.181524
N	0.4521887494431294 0.7214831682226364 0.7500000160000013	-0.183800
N	0.0471805304445602 0.1232476710245218 0.7500000160000013	-0.181541
N	0.9521886854431314 0.2214831522226353 0.7500000160000013	-0.183800
N	0.5471805224445595 0.6232476550245205 0.7500000160000013	-0.181541
N	0.5478113145568686 0.2785168317773634 0.2500000000000000	-0.183819
N	0.9528194775554405 0.8767523449754795 0.2500000000000000	-0.181524
N	0.0478112785568657 0.7785168317773636 0.2500000000000000	-0.183819
N	0.4528194775554402 0.3767523449754796 0.2500000000000000	-0.181524
	  	
