#======================================================================

# CRYSTAL DATA

#----------------------------------------------------------------------

data_VESTA_phase_1


_pd_phase_name                         SIFSIX_2_Ni
_cell_length_a                         13.83728
_cell_length_b                         13.83728
_cell_length_c                         7.59026
_cell_angle_alpha                      90
_cell_angle_beta                       90
_cell_angle_gamma                      90
_symmetry_space_group_name_H-M         P 1
_symmetry_Int_Tables_number            1

loop_
_symmetry_equiv_pos_as_xyz
   x, y, z

loop_
   _atom_site_label
   _atom_site_fract_x
   _atom_site_fract_y
   _atom_site_fract_z
   _atom_site_charge
C	0.5326947154145296 0.7007866770163059 0.1409119270007792	0.100471
C	0.5336610800096488 0.8010886394200604 0.1463462014671729	-0.167164
C	0.4673053545854694 0.2992133229836941 0.1409119270007792	0.100469
C	0.4663388849903514 0.1989113425799381 0.1463462014671729	-0.167162
C	0.2992133229836941 0.5326947154145296 0.1409119270007792	0.100472
C	0.1989113425799381 0.5336610800096488 0.1463462014671729	-0.167164
C	0.7007866770163059 0.4673053545854694 0.1409119270007792	0.100469
C	0.8010886394200604 0.4663388849903514 0.1463462014671729	-0.167162
C	0.4673053545854694 0.7007866770163059 0.8590880729992207	0.100472
C	0.4663388849903514 0.8010886394200604 0.8536537685328243	-0.167163
C	0.5326947154145296 0.2992133229836941 0.8590880729992207	0.100470
C	0.5336610800096488 0.1989113425799381 0.8536537685328243	-0.167161
C	0.7007866770163059 0.5326947154145296 0.8590880729992207	0.100470
C	0.8010886394200604 0.5336610800096488 0.8536537685328244	-0.167161
C	0.2992133229836941 0.4673053545854694 0.8590880729992207	0.100473
C	0.1989113425799381 0.4663388849903514 0.8536537685328244	-0.167163
C	0.5000000000000000 0.1463504795080432 0.0000000000000000	0.169574
C	0.5000000000000000 0.0440473684710280 0.0000000000000000	-0.095515
C	0.5000000000000000 0.8536495204919566 0.0000000000000000	0.169543
C	0.5000000000000000 0.9559525745289781 0.0000000000000000	-0.095274
C	0.8536495204919566 0.5000000000000000 0.0000000000000000	0.169574
C	0.9559525745289781 0.5000000000000000 0.0000000000000000	-0.095516
C	0.1463504795080432 0.5000000000000000 0.0000000000000000	0.169543
C	0.0440473684710280 0.5000000000000000 0.0000000000000000	-0.095273
H	0.5580215997299079 0.6584768272519687 0.2529986313108297	0.105441
H	0.5603203862611180 0.8383239534139404 0.2628696507353935	0.125664
H	0.4419784002700919 0.3415231027480328 0.2529986313108297	0.105441
H	0.4396796487388815 0.1616759765860609 0.2628696507353935	0.125665
H	0.3415231027480328 0.5580215997299079 0.2529986313108297	0.105441
H	0.1616759765860609 0.5603203862611180 0.2628696507353935	0.125664
H	0.6584768272519687 0.4419784002700919 0.2529986313108297	0.105441
H	0.8383239534139404 0.4396796487388815 0.2628696507353935	0.125665
H	0.4419784002700919 0.6584768272519687 0.7470013686891704	0.105441
H	0.4396796487388815 0.8383239534139404 0.7371303792646091	0.125662
H	0.5580215997299079 0.3415231027480328 0.7470013686891704	0.105441
H	0.5603203862611180 0.1616759765860609 0.7371303792646091	0.125663
H	0.6584768272519687 0.5580215997299079 0.7470013686891704	0.105441
H	0.8383239534139404 0.5603203862611180 0.7371303792646091	0.125663
H	0.3415231027480328 0.4419784002700919 0.7470013686891704	0.105441
H	0.1616759765860609 0.4396796487388815 0.7371303792646091	0.125662
Ni	0.5000000000000000 0.5000000000000000 0.0000000000000000	0.764012
Si	0.5000000000000000 0.5000000000000000 0.5000000000000000	1.730512
F	0.5000000000000000 0.5000000000000000 0.7306260730421839	-0.502238
F	0.5000000000000000 0.5000000000000000 0.2693739569578115	-0.502238
F	0.5870707136871447 0.5870707136871447 0.5000000000000000	-0.534262
F	0.4129293213128549 0.5870707136871447 0.5000000000000000	-0.534262
F	0.4129293213128549 0.4129293213128549 0.5000000000000000	-0.534262
F	0.5870707136871447 0.4129293213128549 0.5000000000000000	-0.534262
N	0.5000000000000000 0.3489193304757736 0.0000000000000000	-0.241241
N	0.5000000000000000 0.6510806345242270 0.0000000000000000	-0.241241
N	0.6510806345242270 0.5000000000000000 0.0000000000000000	-0.241241
N	0.3489193304757736 0.5000000000000000 0.0000000000000000	-0.241241
	  	
