#======================================================================

# CRYSTAL DATA

#----------------------------------------------------------------------

data_VESTA_phase_1


_pd_phase_name                         SIFSIX_5_Ni_i
_cell_length_a                         19.83510
_cell_length_b                         19.83510
_cell_length_c                         15.00072
_cell_angle_alpha                      90
_cell_angle_beta                       90
_cell_angle_gamma                      90
_symmetry_space_group_name_H-M         P 1
_symmetry_Int_Tables_number            1

loop_
_symmetry_equiv_pos_as_xyz
   x, y, z

loop_
   _atom_site_label
   _atom_site_fract_x
   _atom_site_fract_y
   _atom_site_fract_z
   _atom_site_charge
F	0.3172957116406177 0.1964205167890983 0.3512521826785353	-0.544236
F	0.1827042763593812 0.3035794832109016 0.3512521826785353	-0.544240
F	0.3035794832109016 0.3172957116406177 0.3512521826785353	-0.544239
F	0.1964205167890983 0.1827042763593812 0.3512521826785353	-0.544237
F	0.6827043123593768 0.6964205407891004 0.1487478173214647	-0.544237
F	0.8172956876406232 0.8035794592108996 0.1487478173214647	-0.544239
F	0.6964205407891004 0.8172956876406232 0.1487478173214647	-0.544239
F	0.8035794592108996 0.6827043123593768 0.1487478173214647	-0.544237
F	0.6827043123593768 0.8035794592108996 0.6487478493214673	-0.544240
F	0.8172956876406232 0.6964205407891004 0.6487478493214673	-0.544237
F	0.6964205407891004 0.6827043123593768 0.6487478493214673	-0.544237
F	0.8035794592108996 0.8172956876406232 0.6487478493214673	-0.544239
F	0.3172957116406177 0.3035794832109016 0.8512521506785327	-0.544239
F	0.1827042763593812 0.1964205167890983 0.8512521506785327	-0.544238
F	0.3035794832109016 0.1827042763593812 0.8512521506785327	-0.544237
F	0.1964205167890983 0.3172957116406177 0.8512521506785327	-0.544240
F	0.2500000000000000 0.2500000000000000 0.4673216766831492	-0.501459
F	0.2500000000000000 0.2500000000000000 0.2349683163541356	-0.500444
F	0.7500000000000000 0.7500000000000000 0.0326783503168496	-0.501459
F	0.7500000000000000 0.7500000000000000 0.2650316676458632	-0.500444
F	0.7500000000000000 0.7500000000000000 0.5326783543168502	-0.501457
F	0.7500000000000000 0.7500000000000000 0.7650316676458632	-0.500446
F	0.2500000000000000 0.2500000000000000 0.9673216456831498	-0.501457
F	0.2500000000000000 0.2500000000000000 0.7349683323541368	-0.500446
N	0.3548862700957063 0.2477191299046541 0.6012932099600155	-0.244220
N	0.1451137299042937 0.2522808700953459 0.6012932099600155	-0.244220
N	0.2522808700953459 0.3548862700957063 0.6012932099600155	-0.244220
N	0.2477191299046541 0.1451137299042937 0.6012932099600155	-0.244219
N	0.6451137539042956 0.7477191059046520 0.8987067900399845	-0.244220
N	0.8548862460957044 0.7522808940953480 0.8987067900399845	-0.244220
N	0.7477191059046520 0.8548862460957044 0.8987067900399845	-0.244220
N	0.7522808940953480 0.6451137539042956 0.8987067900399845	-0.244219
N	0.6451137539042956 0.7522808940953480 0.3987068210399836	-0.244218
N	0.8548862460957044 0.7477191059046520 0.3987068210399836	-0.244218
N	0.7477191059046520 0.6451137539042956 0.3987068210399836	-0.244217
N	0.7522808940953480 0.8548862460957044 0.3987068210399836	-0.244218
N	0.3548862700957063 0.2522808700953459 0.1012932099600155	-0.244218
N	0.1451137299042937 0.2477191299046541 0.1012932099600155	-0.244218
N	0.2522808700953459 0.1451137299042937 0.1012932099600155	-0.244217
N	0.2477191299046541 0.3548862700957063 0.1012932099600155	-0.244218
C	0.3883307827768532 0.2173801749950304 0.6683950659239650	0.104768
C	0.4582537230371503 0.2156112591527329 0.6720515999031310	-0.179539
C	0.4963009053545710 0.2471473711848225 0.6051281664519560	0.103886
C	0.4606118647436021 0.2785393502458645 0.5357831101104149	-0.179936
C	0.3905858132065996 0.2774136836346712 0.5357114052454343	0.105772
C	0.5705567624818062 0.2478424957647880 0.6083185418571717	0.055354
C	0.6068101150677352 0.1911293738788761 0.6378558554832108	-0.131640
C	0.6768273128154062 0.1919465852192664 0.6404552926784599	-0.122621
C	0.7129519853378344 0.2498240188107344 0.6154790979305796	0.067135
C	0.6767765118248140 0.3067913856359925 0.5871224141581493	-0.118173
C	0.6067958597329159 0.3055777675638967 0.5826533685801385	-0.127498
C	0.1116691932231519 0.2826198490049716 0.6683950659239650	0.104769
C	0.0417462169628520 0.2843887648472691 0.6720515999031310	-0.179541
C	0.0036990736454309 0.2528526288151774 0.6051281664519560	0.103882
C	0.0393881622563965 0.2214606497541354 0.5357831101104149	-0.179931
C	0.1094141507933973 0.2225863403653306 0.5357114052454343	0.105770
C	0.9294431895181969 0.2521574802352100 0.6083185418571717	0.055357
C	0.8931899329322617 0.3088706611211234 0.6378558554832108	-0.131713
C	0.8231726871845938 0.3080534267807273 0.6404552926784599	-0.122590
C	0.7870480146621656 0.2501759571892637 0.6154790979305796	0.067103
C	0.8232235351751863 0.1932086143640074 0.5871224141581493	-0.118186
C	0.8932042362670849 0.1944222674361027 0.5826533685801385	-0.127373
C	0.2826198490049716 0.3883307827768532 0.6683950659239650	0.104769
C	0.2843887648472691 0.4582537230371503 0.6720515999031310	-0.179541
C	0.2528526288151774 0.4963009053545710 0.6051281664519560	0.103883
C	0.2214606497541354 0.4606118647436021 0.5357831101104149	-0.179932
C	0.2225863403653306 0.3905858132065996 0.5357114052454343	0.105772
C	0.2521574802352100 0.5705567624818062 0.6083185418571717	0.055369
C	0.3088706611211234 0.6068101150677352 0.6378558554832108	-0.131715
C	0.3080534267807273 0.6768273128154062 0.6404552926784599	-0.122599
C	0.2501759571892637 0.7129519853378344 0.6154790979305796	0.067133
C	0.1932086143640074 0.6767765118248140 0.5871224141581493	-0.118186
C	0.1944222674361027 0.6067958597329159 0.5826533685801385	-0.127452
C	0.2173801749950304 0.1116691932231519 0.6683950659239650	0.104768
C	0.2156112591527329 0.0417462169628520 0.6720515999031310	-0.179538
C	0.2471473711848225 0.0036990736454309 0.6051281664519560	0.103884
C	0.2785393502458645 0.0393881622563965 0.5357831101104149	-0.179934
C	0.2774136836346712 0.1094141507933973 0.5357114052454343	0.105769
C	0.2478424957647880 0.9294431895181969 0.6083185418571717	0.055342
C	0.1911293738788761 0.8931899329322617 0.6378558554832108	-0.131638
C	0.1919465852192664 0.8231726871845938 0.6404552926784599	-0.122613
C	0.2498240188107344 0.7870480146621656 0.6154790979305796	0.067106
C	0.3067913856359925 0.8232235351751863 0.5871224141581493	-0.118173
C	0.3055777675638967 0.8932042362670849 0.5826533685801385	-0.127420
C	0.6116691932231518 0.7173802229950270 0.8316049340760350	0.104767
C	0.5417462289628531 0.7156112831527275 0.8279484000968690	-0.179537
C	0.5036990946454289 0.7471474191848193 0.8948718335480440	0.103882
C	0.5393882312563986 0.7785393022458604 0.9642168898895851	-0.179934
C	0.6094142107933950 0.7774137076346661 0.9642885947545657	0.105770
C	0.4294432375181937 0.7478425677647873 0.8916814581428283	0.055370
C	0.3931898849322648 0.6911293388788768 0.8621441445167892	-0.131713
C	0.3231726151845878 0.6919465492192706 0.8595447073215401	-0.122596
C	0.2870480626621694 0.7498240428107367 0.8845209020694204	0.067137
C	0.3232234401751822 0.8067913856359927 0.9128775858418507	-0.118187
C	0.3932041642670789 0.8055776965638939 0.9173466314198615	-0.127449
C	0.8883308067768482 0.7826197770049730 0.8316049340760350	0.104769
C	0.9582537710371469 0.7843887168472725 0.8279484000968690	-0.179542
C	0.9963009533545679 0.7528525808151807 0.8948718335480440	0.103884
C	0.9606118167436054 0.7214606977541396 0.9642168898895851	-0.179931
C	0.8905857892066050 0.7225862923653339 0.9642885947545657	0.105771
C	0.0705567984818021 0.7521574322352127 0.8916814581428283	0.055369
C	0.1068101030677342 0.8088706611211232 0.8621441445167892	-0.131714
C	0.1768273608154101 0.8080534027807326 0.8595447073215401	-0.122598
C	0.2129519373378307 0.7501759571892633 0.8845209020694204	0.067139
C	0.1767765358248159 0.6932086143640073 0.9128775858418507	-0.118188
C	0.1067958357329211 0.6944222564361058 0.9173466314198615	-0.127452
C	0.7173802229950270 0.8883308067768482 0.8316049340760350	0.104771
C	0.7156112831527275 0.9582537710371469 0.8279484000968690	-0.179539
C	0.7471474191848193 0.9963009533545679 0.8948718335480440	0.103883
C	0.7785393022458604 0.9606118167436054 0.9642168898895851	-0.179934
C	0.7774137076346661 0.8905857892066050 0.9642885947545657	0.105771
C	0.7478425677647873 0.0705567984818021 0.8916814581428283	0.055369
C	0.6911293388788768 0.1068101030677342 0.8621441445167892	-0.131715
C	0.6919465492192706 0.1768273608154101 0.8595447073215401	-0.122596
C	0.7498240428107367 0.2129519373378307 0.8845209020694204	0.067137
C	0.8067913856359927 0.1767765358248159 0.9128775858418507	-0.118187
C	0.8055776965638939 0.1067958357329211 0.9173466314198615	-0.127452
C	0.7826197770049730 0.6116691932231518 0.8316049340760350	0.104766
C	0.7843887168472725 0.5417462289628531 0.8279484000968690	-0.179540
C	0.7528525808151807 0.5036990946454289 0.8948718335480440	0.103883
C	0.7214606977541396 0.5393882312563986 0.9642168898895851	-0.179931
C	0.7225862923653339 0.6094142107933950 0.9642885947545657	0.105770
C	0.7521574322352127 0.4294432375181937 0.8916814581428283	0.055370
C	0.8088706611211232 0.3931898849322648 0.8621441445167892	-0.131712
C	0.8080534027807326 0.3231726151845878 0.8595447073215401	-0.122597
C	0.7501759571892633 0.2870480626621694 0.8845209020694204	0.067139
C	0.6932086143640073 0.3232234401751822 0.9128775858418507	-0.118187
C	0.6944222564361058 0.3932041642670789 0.9173466314198615	-0.127449
C	0.6116691932231518 0.7826197770049730 0.3316049650760343	0.104769
C	0.5417462289628531 0.7843887168472725 0.3279484000968689	-0.179540
C	0.5036990946454289 0.7528525808151807 0.3948718335480438	0.103882
C	0.5393882312563986 0.7214606977541396 0.4642169208895912	-0.179930
C	0.6094142107933950 0.7225862923653339 0.4642885947545655	0.105769
C	0.4294432375181937 0.7521574322352127 0.3916814581428283	0.055369
C	0.3931898849322648 0.8088706611211232 0.3621441135167902	-0.131712
C	0.3231726151845878 0.8080534027807326 0.3595447383215390	-0.122597
C	0.2870480626621694 0.7501759571892633 0.3845208080694197	0.067137
C	0.3232234401751822 0.6932086143640073 0.4128776168418498	-0.118185
C	0.3932041642670789 0.6944222564361058 0.4173466314198614	-0.127449
C	0.8883308067768482 0.7173802229950270 0.3316049650760343	0.104768
C	0.9582537710371469 0.7156112831527275 0.3279484000968689	-0.179538
C	0.9963009533545679 0.7471474191848193 0.3948718335480438	0.103885
C	0.9606118167436054 0.7785393022458604 0.4642169208895912	-0.179934
C	0.8905857892066050 0.7774137076346661 0.4642885947545655	0.105771
C	0.0705567984818021 0.7478425677647873 0.3916814581428283	0.055369
C	0.1068101030677342 0.6911293388788768 0.3621441135167902	-0.131715
C	0.1768273608154101 0.6919465492192706 0.3595447383215390	-0.122598
C	0.2129519373378307 0.7498240428107367 0.3845208080694197	0.067140
C	0.1767765358248159 0.8067913856359927 0.4128776168418498	-0.118189
C	0.1067958357329211 0.8055776965638939 0.4173466314198614	-0.127450
C	0.7173802229950270 0.6116691932231518 0.3316049650760343	0.104768
C	0.7156112831527275 0.5417462289628531 0.3279484000968689	-0.179538
C	0.7471474191848193 0.5036990946454289 0.3948718335480438	0.103884
C	0.7785393022458604 0.5393882312563986 0.4642169208895912	-0.179932
C	0.7774137076346661 0.6094142107933950 0.4642885947545655	0.105769
C	0.7478425677647873 0.4294432375181937 0.3916814581428283	0.055370
C	0.6911293388788768 0.3931898849322648 0.3621441135167902	-0.131712
C	0.6919465492192706 0.3231726151845878 0.3595447383215390	-0.122596
C	0.7498240428107367 0.2870480626621694 0.3845208080694197	0.067139
C	0.8067913856359927 0.3232234401751822 0.4128776168418498	-0.118186
C	0.8055776965638939 0.3932041642670789 0.4173466314198614	-0.127449
C	0.7826197770049730 0.8883308067768482 0.3316049650760343	0.104770
C	0.7843887168472725 0.9582537710371469 0.3279484000968689	-0.179540
C	0.7528525808151807 0.9963009533545679 0.3948718335480438	0.103884
C	0.7214606977541396 0.9606118167436054 0.4642169208895912	-0.179932
C	0.7225862923653339 0.8905857892066050 0.4642885947545655	0.105772
C	0.7521574322352127 0.0705567984818021 0.3916814581428283	0.055369
C	0.8088706611211232 0.1068101030677342 0.3621441135167902	-0.131715
C	0.8080534027807326 0.1768273608154101 0.3595447383215390	-0.122599
C	0.7501759571892633 0.2129519373378307 0.3845208080694197	0.067138
C	0.6932086143640073 0.1767765358248159 0.4128776168418498	-0.118188
C	0.6944222564361058 0.1067958357329211 0.4173466314198614	-0.127451
C	0.3883307827768532 0.2826198490049716 0.1683950509239670	0.104769
C	0.4582537230371503 0.2843887648472691 0.1720515689031321	-0.179541
C	0.4963009053545710 0.2528526288151774 0.1051281664519560	0.103885
C	0.4606118647436021 0.2214606497541354 0.0357830751104155	-0.179931
C	0.3905858132065996 0.2225863403653306 0.0357113972454338	0.105771
C	0.5705567624818062 0.2521574802352100 0.1083185338571711	0.055369
C	0.6068101150677352 0.3088706611211234 0.1378558554832108	-0.131714
C	0.6768273128154062 0.3080534267807273 0.1404552456784597	-0.122598
C	0.7129519853378344 0.2501759571892637 0.1154791689305820	0.067136
C	0.6767765118248140 0.1932086143640074 0.0871223981581478	-0.118186
C	0.6067958597329159 0.1944222674361027 0.0826533835801362	-0.127451
C	0.1116691932231519 0.2173801749950304 0.1683950509239670	0.104767
C	0.0417462169628520 0.2156112591527329 0.1720515689031321	-0.179536
C	0.0036990736454309 0.2471473711848225 0.1051281664519560	0.103883
C	0.0393881622563966 0.2785393502458645 0.0357830751104155	-0.179935
C	0.1094141507933973 0.2774136836346712 0.0357113972454338	0.105770
C	0.9294431895181969 0.2478424957647880 0.1083185338571711	0.055342
C	0.8931899329322617 0.1911293738788761 0.1378558554832108	-0.131639
C	0.8231726871845938 0.1919465852192664 0.1404552456784597	-0.122613
C	0.7870480146621656 0.2498240188107344 0.1154791689305820	0.067105
C	0.8232235351751863 0.3067913856359925 0.0871223981581478	-0.118173
C	0.8932042362670849 0.3055777675638967 0.0826533835801362	-0.127419
C	0.2826198490049716 0.1116691932231519 0.1683950509239670	0.104766
C	0.2843887648472691 0.0417462169628520 0.1720515689031321	-0.179539
C	0.2528526288151774 0.0036990736454309 0.1051281664519560	0.103884
C	0.2214606497541354 0.0393881622563965 0.0357830751104155	-0.179931
C	0.2225863403653306 0.1094141507933973 0.0357113972454338	0.105770
C	0.2521574802352100 0.9294431895181969 0.1083185338571711	0.055357
C	0.3088706611211234 0.8931899329322617 0.1378558554832108	-0.131713
C	0.3080534267807273 0.8231726871845938 0.1404552456784597	-0.122591
C	0.2501759571892637 0.7870480146621656 0.1154791689305820	0.067104
C	0.1932086143640074 0.8232235351751863 0.0871223981581478	-0.118188
C	0.1944222674361027 0.8932042362670849 0.0826533835801362	-0.127372
C	0.2173801749950304 0.3883307827768532 0.1683950509239670	0.104771
C	0.2156112591527329 0.4582537230371503 0.1720515689031321	-0.179538
C	0.2471473711848225 0.4963009053545710 0.1051281664519560	0.103884
C	0.2785393502458645 0.4606118647436021 0.0357830751104155	-0.179935
C	0.2774136836346712 0.3905858132065996 0.0357113972454338	0.105771
C	0.2478424957647880 0.5705567624818062 0.1083185338571711	0.055354
C	0.1911293738788761 0.6068101150677352 0.1378558554832108	-0.131640
C	0.1919465852192664 0.6768273128154062 0.1404552456784597	-0.122620
C	0.2498240188107344 0.7129519853378344 0.1154791689305820	0.067137
C	0.3067913856359925 0.6767765118248140 0.0871223981581478	-0.118171
C	0.3055777675638967 0.6067958597329159 0.0826533835801362	-0.127498
H	0.3577486456249813 0.1953821654015838 0.7214207407196574	0.104276
H	0.4828496811745469 0.1914413616296325 0.7285564735939181	0.112837
H	0.4872046257429200 0.3026568096377598 0.4808279133553432	0.112066
H	0.3616698395217823 0.2998756975625560 0.4813693070247716	0.104023
H	0.5796297994004892 0.1456295626277895 0.6574069374696075	0.099123
H	0.7043444976125484 0.1476441470830356 0.6634178122269226	0.100375
H	0.7041389336595324 0.3515697751746727 0.5654197699583188	0.101679
H	0.5796849868927223 0.3502421974139106 0.5599485630101813	0.102739
H	0.1422513183750159 0.3046178585984185 0.7214207407196574	0.104274
H	0.0171503248254465 0.3085586623703695 0.7285564735939181	0.112840
H	0.0127953632570830 0.1973432023622412 0.4808279133553432	0.112063
H	0.1383301844782198 0.2001242904374428 0.4813693070247716	0.104024
H	0.9203702475995111 0.3543704373722105 0.6574069374696075	0.099136
H	0.7956555023874516 0.3523558409169635 0.6634178122269226	0.100371
H	0.7958610663404676 0.1484302368253280 0.5654197699583188	0.101665
H	0.9203150131072777 0.1497577905860955 0.5599485630101813	0.102723
H	0.3046178585984185 0.3577486456249813 0.7214207407196574	0.104275
H	0.3085586623703695 0.4828496811745469 0.7285564735939181	0.112840
H	0.1973432023622412 0.4872046257429200 0.4808279133553432	0.112065
H	0.2001242904374428 0.3616698395217823 0.4813693070247716	0.104023
H	0.3543704373722105 0.5796297994004892 0.6574069374696075	0.099136
H	0.3523558409169635 0.7043444976125484 0.6634178122269226	0.100372
H	0.1484302368253280 0.7041389336595324 0.5654197699583188	0.101683
H	0.1497577905860955 0.5796849868927223 0.5599485630101813	0.102734
H	0.1953821654015838 0.1422513183750159 0.7214207407196574	0.104274
H	0.1914413616296325 0.0171503248254465 0.7285564735939180	0.112837
H	0.3026568096377598 0.0127953632570830 0.4808279133553432	0.112065
H	0.2998756975625560 0.1383301844782198 0.4813693070247716	0.104024
H	0.1456295626277895 0.9203702475995111 0.6574069374696075	0.099125
H	0.1476441470830356 0.7956555023874516 0.6634178122269226	0.100375
H	0.3515697751746727 0.7958610663404676 0.5654197699583188	0.101661
H	0.3502421974139106 0.9203150131072777 0.5599485630101813	0.102730
H	0.6422513063750148 0.6953821654015837 0.7785792592803426	0.104274
H	0.5171502708254490 0.6914413376296304 0.7714435264060820	0.112837
H	0.5127953742570805 0.8026568096377598 0.0191720716446520	0.112064
H	0.6383301604782178 0.7998756735625542 0.0186307209752309	0.104022
H	0.4203702005995108 0.6456295626277895 0.8425930625303925	0.099137
H	0.2956555263874536 0.6476441590830365 0.8365821877730774	0.100374
H	0.2958610663404678 0.8515697751746729 0.9345802300416812	0.101682
H	0.4203150611072747 0.8502422214139056 0.9400514369898187	0.102733
H	0.8577487416249820 0.8046178825984203 0.7785792592803426	0.104275
H	0.9828496331745502 0.8085586623703696 0.7714435264060820	0.112839
H	0.9872045777429226 0.6973431903622402 0.0191720716446520	0.112066
H	0.8616697435217814 0.7001243264374458 0.0186307209752309	0.104025
H	0.0796297994004892 0.8543704373722105 0.8425930625303925	0.099135
H	0.2043444736125462 0.8523558409169635 0.8365821877730774	0.100370
H	0.2041389336595323 0.6484302728253240 0.9345802300416812	0.101682
H	0.0796849808927218 0.6497577785860944 0.9400514369898187	0.102731
H	0.6953821654015837 0.8577487416249820 0.7785792592803426	0.104274
H	0.6914413376296304 0.9828496331745502 0.7714435264060820	0.112838
H	0.8026568096377598 0.9872045777429226 0.0191720716446520	0.112067
H	0.7998756735625542 0.8616697435217814 0.0186307209752309	0.104025
H	0.6456295626277895 0.0796297994004892 0.8425930625303925	0.099138
H	0.6476441590830365 0.2043444736125462 0.8365821877730774	0.100372
H	0.8515697751746729 0.2041389336595323 0.9345802300416812	0.101681
H	0.8502422214139056 0.0796849808927218 0.9400514369898187	0.102732
H	0.8046178825984203 0.6422513063750148 0.7785792592803426	0.104275
H	0.8085586623703696 0.5171502708254490 0.7714435264060819	0.112838
H	0.6973431903622402 0.5127953742570805 0.0191720716446520	0.112063
H	0.7001243264374458 0.6383301604782178 0.0186307209752309	0.104023
H	0.8543704373722105 0.4203702005995108 0.8425930625303925	0.099135
H	0.8523558409169635 0.2956555263874536 0.8365821877730774	0.100372
H	0.6484302728253240 0.2958610663404678 0.9345802300416812	0.101683
H	0.6497577785860944 0.4203150611072747 0.9400514369898187	0.102734
H	0.6422513063750148 0.8046178825984203 0.2785792912803382	0.104273
H	0.5171502708254490 0.8085586623703696 0.2714435574060809	0.112837
H	0.5127953742570805 0.6973431903622402 0.5191720556446578	0.112060
H	0.6383301604782178 0.7001243264374458 0.5186306929752288	0.104023
H	0.4203702005995108 0.8543704373722105 0.3425930315303933	0.099136
H	0.2956555263874536 0.8523558409169635 0.3365821557730747	0.100373
H	0.2958610663404678 0.6484302728253240 0.4345802610416802	0.101684
H	0.4203150611072747 0.6497577785860944 0.4400514989898170	0.102733
H	0.8577487416249820 0.6953821654015837 0.2785792912803382	0.104275
H	0.9828496331745502 0.6914413376296304 0.2714435574060809	0.112834
H	0.9872045777429226 0.8026568096377598 0.5191720556446578	0.112062
H	0.8616697435217814 0.7998756735625542 0.5186306929752288	0.104023
H	0.0796297994004892 0.6456295626277895 0.3425930315303933	0.099135
H	0.2043444736125462 0.6476441590830365 0.3365821557730747	0.100371
H	0.2041389336595323 0.8515697751746729 0.4345802610416802	0.101679
H	0.0796849808927218 0.8502422214139056 0.4400514989898170	0.102730
H	0.6953821654015837 0.6422513063750148 0.2785792912803382	0.104274
H	0.6914413376296304 0.5171502708254490 0.2714435574060809	0.112834
H	0.8026568096377598 0.5127953742570805 0.5191720556446578	0.112061
H	0.7998756735625542 0.6383301604782178 0.5186306929752288	0.104024
H	0.6456295626277895 0.4203702005995108 0.3425930315303933	0.099138
H	0.6476441590830365 0.2956555263874536 0.3365821557730747	0.100374
H	0.8515697751746729 0.2958610663404678 0.4345802610416802	0.101681
H	0.8502422214139056 0.4203150611072747 0.4400514989898170	0.102731
H	0.8046178825984203 0.8577487416249820 0.2785792912803382	0.104275
H	0.8085586623703696 0.9828496331745502 0.2714435574060809	0.112837
H	0.6973431903622402 0.9872045777429226 0.5191720556446578	0.112061
H	0.7001243264374458 0.8616697435217814 0.5186306929752288	0.104023
H	0.8543704373722105 0.0796297994004892 0.3425930315303933	0.099135
H	0.8523558409169635 0.2043444736125462 0.3365821557730747	0.100370
H	0.6484302728253240 0.2041389336595323 0.4345802610416802	0.101681
H	0.6497577785860944 0.0796849808927218 0.4400514989898170	0.102733
H	0.3577486456249813 0.3046178585984185 0.2214207407196574	0.104275
H	0.4828496811745469 0.3085586623703695 0.2285564885939229	0.112836
H	0.4872046257429200 0.1973432023622412 0.9808279753553483	0.112061
H	0.3616698395217823 0.2001242904374428 0.9813692760247722	0.104024
H	0.5796297994004892 0.3543704373722105 0.1574069524696053	0.099135
H	0.7043444976125484 0.3523558409169635 0.1634178592269231	0.100371
H	0.7041389336595324 0.1484302368253280 0.0654197309583192	0.101682
H	0.5796849868927223 0.1497577905860955 0.0599485240101813	0.102731
H	0.1422513183750159 0.1953821654015838 0.2214207407196574	0.104274
H	0.0171503248254465 0.1914413616296325 0.2285564885939229	0.112834
H	0.0127953632570830 0.3026568096377598 0.9808279753553483	0.112060
H	0.1383301844782198 0.2998756975625560 0.9813692760247722	0.104022
H	0.9203702475995111 0.1456295626277895 0.1574069524696053	0.099125
H	0.7956555023874516 0.1476441470830356 0.1634178592269231	0.100373
H	0.7958610663404676 0.3515697751746727 0.0654197309583192	0.101660
H	0.9203150131072777 0.3502421974139106 0.0599485240101813	0.102731
H	0.3046178585984185 0.1422513183750159 0.2214207407196574	0.104274
H	0.3085586623703695 0.0171503248254465 0.2285564885939229	0.112835
H	0.1973432023622412 0.0127953632570830 0.9808279753553483	0.112058
H	0.2001242904374428 0.1383301844782198 0.9813692760247722	0.104022
H	0.3543704373722105 0.9203702475995111 0.1574069524696053	0.099135
H	0.3523558409169635 0.7956555023874516 0.1634178592269231	0.100371
H	0.1484302368253280 0.7958610663404676 0.0654197309583192	0.101664
H	0.1497577905860955 0.9203150131072777 0.0599485240101813	0.102723
H	0.1953821654015838 0.3577486456249813 0.2214207407196574	0.104274
H	0.1914413616296325 0.4828496811745469 0.2285564885939229	0.112834
H	0.3026568096377598 0.4872046257429200 0.9808279753553483	0.112063
H	0.2998756975625560 0.3616698395217823 0.9813692760247722	0.104024
H	0.1456295626277895 0.5796297994004892 0.1574069524696053	0.099125
H	0.1476441470830356 0.7043444976125484 0.1634178592269231	0.100373
H	0.3515697751746727 0.7041389336595324 0.0654197309583192	0.101678
H	0.3502421974139106 0.5796849868927223 0.0599485240101813	0.102740
Ni	0.2500000000000000 0.2500000000000000 0.6008845432082655	0.762799
Ni	0.7500000000000000 0.7500000000000000 0.8991154567917345	0.762799
Ni	0.7500000000000000 0.7500000000000000 0.3991153947917363	0.762795
Ni	0.2500000000000000 0.2500000000000000 0.1008845662082640	0.762795
Si	0.2500000000000000 0.2500000000000000 0.3512356304324911	1.734413
Si	0.7500000000000000 0.7500000000000000 0.1487643845675065	1.734413
Si	0.7500000000000000 0.7500000000000000 0.6487644625675058	1.734413
Si	0.2500000000000000 0.2500000000000000 0.8512355374324942	1.734413
	  	
