#======================================================================

# CRYSTAL DATA

#----------------------------------------------------------------------

data_VESTA_phase_1


_pd_phase_name                         SIFSIX_16_Cu_i
_cell_length_a                         24.90540
_cell_length_b                         24.90540
_cell_length_c                         7.67965
_cell_angle_alpha                      90
_cell_angle_beta                       90
_cell_angle_gamma                      90
_symmetry_space_group_name_H-M         P 1
_symmetry_Int_Tables_number            1

loop_
_symmetry_equiv_pos_as_xyz
   x, y, z

loop_
   _atom_site_label
   _atom_site_fract_x
   _atom_site_fract_y
   _atom_site_fract_z
   _atom_site_charge
C	0.4781451215727395 0.3905472217540702 0.3659177051440494	0.100581
C	0.4770399241406293 0.3347925149590728 0.3617638833816313	-0.168609
C	0.9545496382774654 0.6140989909372583 0.9427363045926535	-0.127477
C	0.9546892756115614 0.5583356689849267 0.9435239407767833	-0.123223
C	0.5218549164272562 0.6094528162459257 0.3659177051440494	0.100501
C	0.5229600758593702 0.6652075230409236 0.3617638833816313	-0.168619
C	0.0454502857225350 0.3859009700627421 0.9427363045926535	-0.127477
C	0.0453107433884366 0.4416643690150764 0.9435239407767833	-0.123213
C	0.6094528162459257 0.4781451215727395 0.3659177051440494	0.100501
C	0.6652075230409236 0.4770399241406293 0.3617638833816313	-0.168619
C	0.3859009700627421 0.9545496382774654 0.9427363045926535	-0.127476
C	0.4416643690150764 0.9546892756115614 0.9435239407767833	-0.123214
C	0.3905472217540702 0.5218549164272562 0.3659177051440494	0.100581
C	0.3347925149590728 0.5229600758593702 0.3617638833816313	-0.168609
C	0.6140989909372583 0.0454502857225350 0.9427363045926535	-0.127477
C	0.5583356689849267 0.0453107433884366 0.9435239407767833	-0.123223
C	0.5218549164272562 0.3905472217540702 0.6340822948559506	0.100580
C	0.5229600758593702 0.3347925149590728 0.6382360846183671	-0.168609
C	0.0454502857225350 0.6140989909372583 0.0572637074073474	-0.127477
C	0.0453107433884366 0.5583356689849267 0.0564760352232151	-0.123223
C	0.4781451215727395 0.6094528162459257 0.6340822948559506	0.100500
C	0.4770399241406293 0.6652075230409236 0.6382360846183671	-0.168620
C	0.9545496382774654 0.3859009700627421 0.0572637074073474	-0.127476
C	0.9546892756115614 0.4416643690150764 0.0564760352232151	-0.123214
C	0.3905472217540702 0.4781451215727395 0.6340822948559506	0.100580
C	0.3347925149590728 0.4770399241406293 0.6382360846183671	-0.168609
C	0.6140989909372583 0.9545496382774654 0.0572637074073474	-0.127477
C	0.5583356689849267 0.9546892756115614 0.0564760352232151	-0.123223
C	0.6094528162459257 0.5218549164272562 0.6340822948559506	0.100500
C	0.6652075230409236 0.5229600758593702 0.6382360846183671	-0.168620
C	0.3859009700627421 0.0454502857225350 0.0572637074073474	-0.127476
C	0.4416643690150764 0.0453107433884366 0.0564760352232151	-0.123213
C	0.5454503237225385 0.8859009320627460 0.5572637274073421	-0.127477
C	0.5453107243884386 0.9416643690150764 0.5564760272232141	-0.123223
C	0.0218548704272598 0.1094527592459319 0.1340822948559506	0.100581
C	0.0229600738593704 0.1652074850409272 0.1382361006183676	-0.168609
C	0.4545497142774649 0.1140990389372551 0.5572637274073421	-0.127476
C	0.4546892376115655 0.0583356159849256 0.5564760272232141	-0.123213
C	0.9781450835727438 0.8905471837540743 0.1340822948559506	0.100581
C	0.9770399241406298 0.8347925149590725 0.1382361006183676	-0.168609
C	0.1140990389372551 0.5454503237225385 0.5572637274073421	-0.127476
C	0.0583356159849256 0.5453107243884386 0.5564760272232141	-0.123214
C	0.8905471837540743 0.0218548704272598 0.1340822948559506	0.100581
C	0.8347925149590725 0.0229600738593704 0.1382361006183676	-0.168609
C	0.8859009320627460 0.4545497142774649 0.5572637274073421	-0.127477
C	0.9416643690150764 0.4546892376115655 0.5564760272232141	-0.123222
C	0.1094527592459319 0.9781450835727438 0.1340822948559506	0.100581
C	0.1652074850409272 0.9770399241406298 0.1382361006183676	-0.168609
C	0.4545497142774649 0.8859009320627460 0.4427363045926536	-0.127477
C	0.4546892376115655 0.9416643690150764 0.4435239727767856	-0.123222
C	0.9781450835727438 0.1094527592459319 0.8659177371440450	0.100580
C	0.9770399241406298 0.1652074850409272 0.8617638833816302	-0.168609
C	0.5454503237225385 0.1140990389372551 0.4427363045926536	-0.127476
C	0.5453107243884386 0.0583356159849256 0.4435239727767856	-0.123214
C	0.0218548704272598 0.8905471837540743 0.8659177371440450	0.100580
C	0.0229600738593704 0.8347925149590725 0.8617638833816302	-0.168609
C	0.8859009320627460 0.5454503237225385 0.4427363045926536	-0.127477
C	0.9416643690150764 0.5453107243884386 0.4435239727767856	-0.123223
C	0.1094527592459319 0.0218548704272598 0.8659177371440450	0.100580
C	0.1652074850409272 0.0229600738593704 0.8617638833816302	-0.168609
C	0.1140990389372551 0.4545497142774649 0.4427363045926536	-0.127476
C	0.0583356159849256 0.4546892376115655 0.4435239727767856	-0.123213
C	0.8905471837540743 0.9781450835727438 0.8659177371440450	0.100580
C	0.8347925149590725 0.9770399241406298 0.8617638833816302	-0.168609
C	0.5000000000000000 0.3056576183281433 0.5000000000000000	0.173958
C	0.5000000000000000 0.2487572210386987 0.5000000000000000	-0.115365
C	0.5000000000000000 0.1997863522978514 0.5000000000000000	-0.096738
C	0.5000000000000000 0.1428707051573651 0.5000000000000000	0.126648
C	0.5000000000000000 0.0295314916406859 0.5000000000000000	0.065020
C	0.0000000000000000 0.8056575993281381 -0.0000000000000000	0.173959
C	0.0000000000000000 0.7487572010386971 -0.0000000000000000	-0.115364
C	0.0000000000000000 0.6997863142978553 -0.0000000000000000	-0.096738
C	0.0000000000000000 0.6428706671573617 -0.0000000000000000	0.126648
C	0.0000000000000000 0.5295315056406875 -0.0000000000000000	0.065203
C	0.5000000000000000 0.6943423626718588 0.5000000000000000	0.174085
C	0.5000000000000000 0.7512428369612989 0.5000000000000000	-0.115384
C	0.5000000000000000 0.8002136477021486 0.5000000000000000	-0.096732
C	0.5000000000000000 0.8571292948426351 0.5000000000000000	0.126647
C	0.5000000000000000 0.9704684943593125 0.5000000000000000	0.065202
C	0.0000000000000000 0.1943423816718568 -0.0000000000000000	0.173958
C	0.0000000000000000 0.2512427789613013 -0.0000000000000000	-0.115365
C	0.0000000000000000 0.3002136277021471 -0.0000000000000000	-0.096738
C	0.0000000000000000 0.3571292948426349 -0.0000000000000000	0.126648
C	0.0000000000000000 0.4704685323593163 -0.0000000000000000	0.065019
C	0.6943423626718588 0.5000000000000000 0.5000000000000000	0.174085
C	0.7512428369612989 0.5000000000000000 0.5000000000000000	-0.115384
C	0.8002136477021486 0.5000000000000000 0.5000000000000000	-0.096732
C	0.8571292948426351 0.5000000000000000 0.5000000000000000	0.126647
C	0.9704684943593125 0.5000000000000000 0.5000000000000000	0.065203
C	0.1943423816718568 -0.0000000000000000 -0.0000000000000000	0.173958
C	0.2512427789613013 -0.0000000000000000 -0.0000000000000000	-0.115365
C	0.3002136277021471 -0.0000000000000000 -0.0000000000000000	-0.096738
C	0.3571292948426349 -0.0000000000000000 -0.0000000000000000	0.126648
C	0.4704685323593163 -0.0000000000000000 -0.0000000000000000	0.065020
C	0.3056576183281433 0.5000000000000000 0.5000000000000000	0.173958
C	0.2487572210386987 0.5000000000000000 0.5000000000000000	-0.115365
C	0.1997863522978514 0.5000000000000000 0.5000000000000000	-0.096738
C	0.1428707051573651 0.5000000000000000 0.5000000000000000	0.126648
C	0.0295314916406859 0.5000000000000000 0.5000000000000000	0.065020
C	0.8056575993281381 -0.0000000000000000 -0.0000000000000000	0.173959
C	0.7487572010386971 -0.0000000000000000 -0.0000000000000000	-0.115364
C	0.6997863142978553 -0.0000000000000000 -0.0000000000000000	-0.096738
C	0.6428706671573617 -0.0000000000000000 -0.0000000000000000	0.126648
C	0.5295315056406875 -0.0000000000000000 -0.0000000000000000	0.065202
H	0.4619724483324767 0.4142289546101832 0.2582322766034043	0.110803
H	0.4588956207038287 0.3139391036889213 0.2519571817559277	0.126548
H	0.9195718004951736 0.6362481693256826 0.8967339459448186	0.111988
H	0.9196287751761724 0.5366376082808159 0.8952549968136536	0.106363
H	0.5380275516675236 0.5857710453898171 0.2582322766034043	0.110814
H	0.5411044172961742 0.6860609723110778 0.2519571817559277	0.126556
H	0.0804281805048281 0.3637518306743174 0.8967339459448186	0.111988
H	0.0803712538238268 0.4633624307191835 0.8952549968136536	0.106364
H	0.5857710453898171 0.4619724483324767 0.2582322766034043	0.110814
H	0.6860609723110778 0.4588956207038287 0.2519571817559277	0.126556
H	0.3637518306743174 0.9195718004951736 0.8967339459448187	0.111988
H	0.4633624307191835 0.9196287751761724 0.8952549968136536	0.106364
H	0.4142289546101832 0.5380275516675236 0.2582322766034043	0.110803
H	0.3139391036889213 0.5411044172961742 0.2519571817559277	0.126548
H	0.6362481693256826 0.0804281805048281 0.8967339459448187	0.111988
H	0.5366376082808159 0.0803712538238268 0.8952549968136536	0.106363
H	0.5380275516675236 0.4142289546101832 0.7417677073965939	0.110803
H	0.5411044172961742 0.3139391036889213 0.7480428182440724	0.126548
H	0.0804281805048281 0.6362481693256826 0.1032660300551796	0.111988
H	0.0803712538238268 0.5366376082808159 0.1047450031863463	0.106363
H	0.4619724483324767 0.5857710453898171 0.7417677073965939	0.110814
H	0.4588956207038287 0.6860609723110778 0.7480428182440724	0.126556
H	0.9195718004951736 0.3637518306743174 0.1032660300551796	0.111987
H	0.9196287751761724 0.4633624307191835 0.1047450031863463	0.106364
H	0.4142289546101832 0.4619724483324767 0.7417677073965939	0.110803
H	0.3139391036889213 0.4588956207038287 0.7480428182440724	0.126548
H	0.6362481693256826 0.9195718004951736 0.1032660300551796	0.111987
H	0.5366376082808159 0.9196287751761724 0.1047450031863463	0.106363
H	0.5857710453898171 0.5380275516675236 0.7417677073965939	0.110814
H	0.6860609723110778 0.5411044172961742 0.7480428182440724	0.126556
H	0.3637518306743174 0.0804281805048281 0.1032660300551796	0.111988
H	0.4633624307191835 0.0803712538238268 0.1047450031863463	0.106364
H	0.5804281995048264 0.8637518306743174 0.6032660220551787	0.111987
H	0.5803712248238276 0.9633624307191838 0.6047450351863490	0.106363
H	0.0380275616675241 0.0857710163898182 0.2417677233965954	0.110803
H	0.0411044222961712 0.1860609153110768 0.2480428502440677	0.126548
H	0.4195718384951770 0.1362481983256817 0.6032660220551787	0.111987
H	0.4196287361761724 0.0366375932808112 0.6047450351863490	0.106364
H	0.9619724483324764 0.9142290316101787 0.2417677233965954	0.110803
H	0.9588955827038258 0.8139391416889246 0.2480428502440677	0.126548
H	0.1362481983256817 0.5804281995048264 0.6032660220551787	0.111987
H	0.0366375932808112 0.5803712248238276 0.6047450351863490	0.106364
H	0.9142290316101787 0.0380275616675241 0.2417677233965954	0.110803
H	0.8139391416889246 0.0411044222961712 0.2480428502440677	0.126548
H	0.8637518306743174 0.4195718384951770 0.6032660220551787	0.111987
H	0.9633624307191838 0.4196287361761724 0.6047450351863490	0.106363
H	0.0857710163898182 0.9619724483324764 0.2417677233965954	0.110803
H	0.1860609153110768 0.9588955827038258 0.2480428502440677	0.126548
H	0.4195718384951770 0.8637518306743174 0.3967339459448183	0.111987
H	0.4196287361761724 0.9633624307191838 0.3952550288136492	0.106363
H	0.9619724483324764 0.0857710163898182 0.7582322606034034	0.110803
H	0.9588955827038258 0.1860609153110768 0.7519571497559321	0.126548
H	0.5804281995048264 0.1362481983256817 0.3967339459448183	0.111987
H	0.5803712248238276 0.0366375932808112 0.3952550288136492	0.106365
H	0.0380275616675241 0.9142290316101787 0.7582322606034034	0.110803
H	0.0411044222961712 0.8139391416889246 0.7519571497559321	0.126548
H	0.8637518306743174 0.5804281995048264 0.3967339459448183	0.111987
H	0.9633624307191838 0.5803712248238276 0.3952550288136492	0.106363
H	0.0857710163898182 0.0380275616675241 0.7582322606034034	0.110803
H	0.1860609153110768 0.0411044222961712 0.7519571497559321	0.126548
H	0.1362481983256817 0.4195718384951770 0.3967339459448183	0.111987
H	0.0366375932808112 0.4196287361761724 0.3952550288136492	0.106364
H	0.9142290316101787 0.9619724483324764 0.7582322606034034	0.110803
H	0.8139391416889246 0.9588955827038258 0.7519571497559321	0.126548
Cu	0.5000000000000000 0.5000000000000000 0.5000000000000000	0.729135
Cu	0.0000000000000000 -0.0000000000000000 -0.0000000000000000	0.729139
Si	0.5000000000000000 0.5000000000000000 -0.0000000000000000	1.730619
Si	0.0000000000000000 -0.0000000000000000 0.5000000000000000	1.730619
F	0.5000000000000000 0.5000000000000000 0.2227485670127748	-0.529026
F	0.0000000000000000 -0.0000000000000000 0.7227485350127790	-0.529027
F	0.5000000000000000 0.5000000000000000 0.7772513689872272	-0.529026
F	0.0000000000000000 -0.0000000000000000 0.2772514329872249	-0.529027
F	0.5487580466763435 0.5487580466763435 -0.0000000000000000	-0.549198
F	0.0487579996763430 0.0487579996763430 0.5000000000000000	-0.549197
F	0.4512420293236629 0.4512420293236629 -0.0000000000000000	-0.549197
F	0.9512419913236596 0.9512419913236596 0.5000000000000000	-0.549197
F	0.4512420293236629 0.5487580466763435 -0.0000000000000000	-0.549198
F	0.9512419913236596 0.0487579996763430 0.5000000000000000	-0.549197
F	0.5487580466763435 0.4512420293236629 -0.0000000000000000	-0.549198
F	0.0487579996763430 0.9512419913236596 0.5000000000000000	-0.549197
N	0.5000000000000000 0.4178571089239130 0.5000000000000000	-0.228800
N	0.0000000000000000 0.9178571469239163 -0.0000000000000000	-0.228800
N	0.5000000000000000 0.5821428910760869 0.5000000000000000	-0.228767
N	0.0000000000000000 0.0821429000760843 -0.0000000000000000	-0.228800
N	0.5821428910760869 0.5000000000000000 0.5000000000000000	-0.228767
N	0.0821429000760843 -0.0000000000000000 -0.0000000000000000	-0.228800
N	0.4178571089239130 0.5000000000000000 0.5000000000000000	-0.228800
N	0.9178571469239163 -0.0000000000000000 -0.0000000000000000	-0.228800
	  	
