#======================================================================

# CRYSTAL DATA

#----------------------------------------------------------------------

data_VESTA_phase_1


_pd_phase_name                         SIFSIX_15_Cd_i
_cell_length_a                         30.27796
_cell_length_b                         29.63673
_cell_length_c                         7.98017
_cell_angle_alpha                      90
_cell_angle_beta                       90
_cell_angle_gamma                      90
_symmetry_space_group_name_H-M         P 1
_symmetry_Int_Tables_number            1

loop_
_symmetry_equiv_pos_as_xyz
   x, y, z

loop_
   _atom_site_label
   _atom_site_fract_x
   _atom_site_fract_y
   _atom_site_fract_z
   _atom_site_charge
C	0.9303312579489885 0.0996399162210237 0.8959876076275536	0.103528
C	0.8989915012569720 0.0654763841197106 0.9015743833767011	-0.165706
C	0.7695685973551728 0.9361560784456070 0.9027476534410204	-0.116053
C	0.7359490939564074 0.9044312853621395 0.9024872679043118	-0.116767
C	0.5710908418984344 0.7446744010211296 0.8958968761121456	0.099460
C	0.6043364238407516 0.7768875734753888 0.9012741538383692	-0.167564
C	0.4303312899489837 0.5996399322210250 0.8959876076275536	0.103534
C	0.3989915332569752 0.5654763471197113 0.9015743833767011	-0.165711
C	0.2695685333551746 0.4361561114456063 0.9027476534410204	-0.116054
C	0.2359490619564047 0.4044313513621450 0.9024872679043118	-0.116767
C	0.0710908658984361 0.2446743840211317 0.8958968761121455	0.099460
C	0.1043363998407495 0.2768876064753884 0.9012741538383692	-0.167564
C	0.0696687100510161 0.9003600677789750 0.3959876386275527	0.103534
C	0.1010084747430256 0.9345236528802887 0.4015744153766970	-0.165712
C	0.2304314186448284 0.0638438845543935 0.4027477154410183	-0.116053
C	0.2640509220435940 0.0955686646378564 0.4024872679043118	-0.116767
C	0.4289091261015632 0.2553256489788674 0.3958969071121448	0.099459
C	0.3956635761592487 0.2231123935246117 0.4012741538383690	-0.167563
C	0.5696687420510115 0.4003601007789740 0.3959876386275527	0.103529
C	0.6010084987430280 0.4345236528802889 0.4015744153766970	-0.165707
C	0.7304314026448272 0.5638439215543930 0.4027477154410183	-0.116053
C	0.7640509060435926 0.5955687146378605 0.4024872679043118	-0.116767
C	0.9289091581015656 0.7553255989788704 0.3958969071121448	0.099459
C	0.8956635761592484 0.7231124265246112 0.4012741538383690	-0.167563
C	0.0696687100510161 0.0996399162210237 0.6040123613724474	0.103534
C	0.1010084747430256 0.0654763841197106 0.5984255226232982	-0.165711
C	0.2304314186448284 0.9361560784456070 0.5972523155589806	-0.116053
C	0.2640509220435940 0.9044312853621395 0.5975127630956872	-0.116767
C	0.4289091261015632 0.7446744010211296 0.6041030298878538	0.099460
C	0.3956635761592487 0.7768875734753888 0.5987258151616318	-0.167564
C	0.5696687420510115 0.5996399322210250 0.6040123613724474	0.103529
C	0.6010084987430280 0.5654763471197113 0.5984255226232982	-0.165706
C	0.7304314026448272 0.4361561114456063 0.5972523155589806	-0.116053
C	0.7640509060435926 0.4044313513621450 0.5975127630956872	-0.116767
C	0.9289091581015656 0.2446743840211317 0.6041030298878538	0.099460
C	0.8956635761592484 0.2768876064753884 0.5987258151616318	-0.167564
C	0.9303312579489885 0.9003600677789750 0.1040123773724486	0.103529
C	0.8989915012569720 0.9345236528802887 0.0984255616232978	-0.165707
C	0.7695685973551728 0.0638438845543935 0.0972523155589808	-0.116053
C	0.7359490939564074 0.0955686646378564 0.0975127480956824	-0.116767
C	0.5710908418984344 0.2553256489788674 0.1041030848878546	0.099459
C	0.6043364238407516 0.2231123935246117 0.0987258611616287	-0.167563
C	0.4303312899489837 0.4003601007789740 0.1040123773724486	0.103534
C	0.3989915332569752 0.4345236528802889 0.0984255616232978	-0.165711
C	0.2695685333551746 0.5638439215543930 0.0972523155589808	-0.116052
C	0.2359490619564047 0.5955687146378605 0.0975127480956824	-0.116767
C	0.0710908658984361 0.7553255989788704 0.1041030848878546	0.099459
C	0.1043363998407495 0.7231124265246112 0.0987258611616287	-0.167563
C	0.0696687100510161 0.9003600677789750 0.1040123773724486	0.103535
C	0.1010084747430256 0.9345236528802887 0.0984255616232978	-0.165711
C	0.2304314186448284 0.0638438845543935 0.0972523155589808	-0.116053
C	0.2640509220435940 0.0955686646378564 0.0975127480956824	-0.116767
C	0.4289091261015632 0.2553256489788674 0.1041030848878546	0.099460
C	0.3956635761592487 0.2231123935246117 0.0987258611616287	-0.167563
C	0.5696687420510115 0.4003601007789740 0.1040123773724486	0.103529
C	0.6010084987430280 0.4345236528802889 0.0984255616232978	-0.165707
C	0.7304314026448272 0.5638439215543930 0.0972523155589808	-0.116053
C	0.7640509060435926 0.5955687146378605 0.0975127480956824	-0.116767
C	0.9289091581015656 0.7553255989788704 0.1041030848878546	0.099460
C	0.8956635761592484 0.7231124265246112 0.0987258611616287	-0.167563
C	0.9303312579489885 0.0996399162210237 0.6040123613724474	0.103529
C	0.8989915012569720 0.0654763841197106 0.5984255226232982	-0.165706
C	0.7695685973551728 0.9361560784456070 0.5972523155589806	-0.116053
C	0.7359490939564074 0.9044312853621395 0.5975127630956872	-0.116767
C	0.5710908418984344 0.7446744010211296 0.6041030298878538	0.099460
C	0.6043364238407516 0.7768875734753888 0.5987258151616318	-0.167563
C	0.4303312899489837 0.5996399322210250 0.6040123613724474	0.103534
C	0.3989915332569752 0.5654763471197113 0.5984255226232982	-0.165711
C	0.2695685333551746 0.4361561114456063 0.5972523155589806	-0.116053
C	0.2359490619564047 0.4044313513621450 0.5975127630956872	-0.116767
C	0.0710908658984361 0.2446743840211317 0.6041030298878538	0.099460
C	0.1043363998407495 0.2768876064753884 0.5987258151616318	-0.167563
C	0.9303312579489885 0.9003600677789750 0.3959876386275527	0.103529
C	0.8989915012569720 0.9345236528802887 0.4015744153766970	-0.165707
C	0.7695685973551728 0.0638438845543935 0.4027477154410183	-0.116053
C	0.7359490939564074 0.0955686646378564 0.4024872679043118	-0.116767
C	0.5710908418984344 0.2553256489788674 0.3958969071121448	0.099460
C	0.6043364238407516 0.2231123935246117 0.4012741538383690	-0.167563
C	0.4303312899489837 0.4003601007789740 0.3959876386275527	0.103535
C	0.3989915332569752 0.4345236528802889 0.4015744153766970	-0.165711
C	0.2695685333551746 0.5638439215543930 0.4027477154410183	-0.116052
C	0.2359490619564047 0.5955687146378605 0.4024872679043118	-0.116768
C	0.0710908658984361 0.7553255989788704 0.3958969071121448	0.099459
C	0.1043363998407495 0.7231124265246112 0.4012741538383690	-0.167563
C	0.0696687100510161 0.0996399162210237 0.8959876076275536	0.103534
C	0.1010084747430256 0.0654763841197106 0.9015743833767011	-0.165711
C	0.2304314186448284 0.9361560784456070 0.9027476534410204	-0.116053
C	0.2640509220435940 0.9044312853621395 0.9024872679043118	-0.116767
C	0.4289091261015632 0.7446744010211296 0.8958968761121455	0.099460
C	0.3956635761592487 0.7768875734753888 0.9012741538383692	-0.167563
C	0.5696687420510115 0.5996399322210250 0.8959876076275536	0.103529
C	0.6010084987430280 0.5654763471197113 0.9015743833767011	-0.165706
C	0.7304314026448272 0.4361561114456063 0.9027476534410204	-0.116053
C	0.7640509060435926 0.4044313513621450 0.9024872679043118	-0.116767
C	0.9289091581015656 0.2446743840211317 0.8958968761121455	0.099460
C	0.8956635761592484 0.2768876064753884 0.9012741538383692	-0.167563
C	0.6555207555664138 0.8267098662126019 0.7500000160000013	-0.106937
C	0.8825153838456957 0.0478612992757856 0.7500000160000013	0.160785
C	0.8208601112120858 0.9851563894470541 0.7500000160000013	-0.097710
C	0.6217251389315048 0.7937942190427167 0.7500000160000013	0.167890
C	0.7869184217685665 0.9525117099322864 0.7500000160000013	0.129146
C	0.7185720433537732 0.8878970742196337 0.7500000160000013	0.137996
C	0.6846222978480908 0.8552103948898155 0.7500000160000013	-0.097692
C	0.8498144205239659 0.0138334520156395 0.7500000160000013	-0.107117
C	0.1555207395664125 0.3267098662126023 0.7500000160000013	-0.106937
C	0.3825152878456948 0.5478613112757866 0.7500000160000013	0.160787
C	0.3208601112120858 0.4851563894470540 0.7500000160000013	-0.097710
C	0.1217251309315040 0.2937942190427167 0.7500000160000013	0.167890
C	0.2869183897685707 0.4525117099322866 0.7500000160000013	0.129146
C	0.2185720273537716 0.3878971072196330 0.7500000160000013	0.137996
C	0.1846222648480916 0.3552103618898164 0.7500000160000013	-0.097692
C	0.3498143885239637 0.5138334470156354 0.7500000160000013	-0.107117
C	0.3444792764335888 0.1732901337873978 0.2500000000000000	-0.106937
C	0.1174846881543103 0.9521386887242134 0.2500000000000000	0.160787
C	0.1791398887879143 0.0148436065529457 0.2500000000000000	-0.097709
C	0.3782748610684953 0.2062057649572820 0.2500000000000000	0.167890
C	0.2130815942314350 0.0474882820677129 0.2500000000000000	0.129145
C	0.2814279566462271 0.1121028847803663 0.2500000000000000	0.137996
C	0.3153777351519083 0.1447896051101846 0.2500000000000000	-0.097691
C	0.1501856114760365 0.9861665199843654 0.2500000000000000	-0.107118
C	0.8444792444335862 0.6732901337873981 0.2500000000000000	-0.106937
C	0.6174846161543043 0.4521387217242125 0.2500000000000000	0.160785
C	0.6791398887879142 0.5148436105529459 0.2500000000000000	-0.097709
C	0.8782748610684952 0.7062057809572833 0.2500000000000000	0.167890
C	0.7130815782314335 0.5474883230677128 0.2500000000000000	0.129145
C	0.7814279566462268 0.6121029257803663 0.2500000000000000	0.137996
C	0.8153777021519092 0.6447896051101845 0.2500000000000000	-0.097692
C	0.6501855794760341 0.4861665199843652 0.2500000000000000	-0.107118
C	0.3444792764335888 0.8267098662126019 0.7500000160000013	-0.106937
C	0.1174846881543103 0.0478612992757856 0.7500000160000013	0.160787
C	0.1791398887879143 0.9851563894470541 0.7500000160000013	-0.097710
C	0.3782748610684953 0.7937942190427167 0.7500000160000013	0.167890
C	0.2130815942314350 0.9525117099322864 0.7500000160000013	0.129146
C	0.2814279566462271 0.8878970742196337 0.7500000160000013	0.137996
C	0.3153777351519083 0.8552103948898155 0.7500000160000013	-0.097692
C	0.1501856114760365 0.0138334520156395 0.7500000160000013	-0.107117
C	0.8444792444335862 0.3267098662126023 0.7500000160000013	-0.106937
C	0.6174846161543043 0.5478613112757866 0.7500000160000013	0.160785
C	0.6791398887879142 0.4851563894470540 0.7500000160000013	-0.097710
C	0.8782748610684952 0.2937942190427167 0.7500000160000013	0.167890
C	0.7130815782314335 0.4525117099322866 0.7500000160000013	0.129146
C	0.7814279566462268 0.3878971072196330 0.7500000160000013	0.137996
C	0.8153777021519092 0.3552103618898164 0.7500000160000013	-0.097692
C	0.6501855794760341 0.5138334470156354 0.7500000160000013	-0.107117
C	0.6555207555664138 0.1732901337873978 0.2500000000000000	-0.106937
C	0.8825153838456957 0.9521386887242134 0.2500000000000000	0.160785
C	0.8208601112120858 0.0148436065529457 0.2500000000000000	-0.097709
C	0.6217251389315048 0.2062057649572820 0.2500000000000000	0.167890
C	0.7869184217685665 0.0474882820677129 0.2500000000000000	0.129145
C	0.7185720433537732 0.1121028847803663 0.2500000000000000	0.137996
C	0.6846222978480908 0.1447896051101846 0.2500000000000000	-0.097692
C	0.8498144205239659 0.9861665199843654 0.2500000000000000	-0.107118
C	0.1555207395664125 0.6732901337873981 0.2500000000000000	-0.106937
C	0.3825152878456948 0.4521387217242125 0.2500000000000000	0.160787
C	0.3208601112120858 0.5148436105529459 0.2500000000000000	-0.097709
C	0.1217251309315040 0.7062057809572833 0.2500000000000000	0.167890
C	0.2869183897685707 0.5474883230677128 0.2500000000000000	0.129145
C	0.2185720273537716 0.6121029257803663 0.2500000000000000	0.137996
C	0.1846222648480916 0.6447896051101845 0.2500000000000000	-0.097692
C	0.3498143885239637 0.4861665199843652 0.2500000000000000	-0.107118
H	0.9436684508075404 0.1141595723411358 0.0111248184850233	0.106713
H	0.8872902254431385 0.0526004287097435 0.0214137549249584	0.119851
H	0.7830101156598207 0.9488172121875478 0.0205075550729120	0.107036
H	0.7225548827128543 0.8918285269275094 0.0202221541276489	0.115138
H	0.5569496885081164 0.7309878585885761 0.0110489713550773	0.105575
H	0.6168188599525767 0.7887997343959124 0.0212404686610890	0.124885
H	0.4436685468075411 0.6141595883411370 0.0111248184850233	0.106711
H	0.3872901614431402 0.5526004577097492 0.0214137549249584	0.119852
H	0.2830101156598205 0.4488172121875479 0.0205075550729120	0.107036
H	0.2225548987128557 0.3918286259275136 0.0202221541276489	0.115138
H	0.0569496965081170 0.2309879075885766 0.0110489713550773	0.105575
H	0.1168188759525707 0.2887996683959143 0.0212404686610890	0.124885
H	0.0563314891924547 0.8858404116588630 0.5111248474850221	0.106711
H	0.1127098225568583 0.9473995422902508 0.5214137899249577	0.119852
H	0.2169899163401822 0.0511828048124571 0.5205075870729144	0.107036
H	0.2774451172871456 0.1081713990724920 0.5202221501276486	0.115138
H	0.4430503114918837 0.2690120754114256 0.5110489713550773	0.105575
H	0.3831811400474234 0.2112002826040851 0.5212404996610883	0.124885
H	0.5563315491924596 0.3858404116588628 0.5111248474850221	0.106713
H	0.6127097745568615 0.4473995752902568 0.5214137899249577	0.119852
H	0.7169898843401793 0.5511827878124522 0.5205075870729144	0.107036
H	0.7774451172871457 0.6081714730724906 0.5202221501276486	0.115138
H	0.9430503114918836 0.7690121414114239 0.5110489713550773	0.105575
H	0.8831811400474233 0.7112002656040876 0.5212404996610883	0.124885
H	0.0563314891924547 0.1141595723411358 0.4888751835149769	0.106711
H	0.1127098225568583 0.0526004287097435 0.4785862100750351	0.119852
H	0.2169899163401822 0.9488172121875478 0.4794924449270882	0.107036
H	0.2774451172871456 0.8918285269275094 0.4797778498723514	0.115138
H	0.4430503114918837 0.7309878585885761 0.4889510606449253	0.105575
H	0.3831811400474234 0.7887997343959124 0.4787595313389110	0.124886
H	0.5563315491924596 0.6141595883411370 0.4888751835149769	0.106713
H	0.6127097745568615 0.5526004577097492 0.4785862100750351	0.119851
H	0.7169898843401793 0.4488172121875479 0.4794924449270882	0.107036
H	0.7774451172871457 0.3918286259275136 0.4797778498723514	0.115138
H	0.9430503114918836 0.2309879075885766 0.4889510606449253	0.105575
H	0.8831811400474233 0.2887996683959143 0.4787595313389110	0.124885
H	0.9436684508075404 0.8858404116588630 0.9888751835149769	0.106713
H	0.8872902254431385 0.9473995422902508 0.9785861790750362	0.119852
H	0.7830101156598207 0.0511828048124571 0.9794924449270882	0.107036
H	0.7225548827128543 0.1081713990724920 0.9797778188723453	0.115138
H	0.5569496885081164 0.2690120754114256 0.9889510286449227	0.105575
H	0.6168188599525767 0.2112002826040851 0.9787595313389107	0.124885
H	0.4436685468075411 0.3858404116588628 0.9888751835149769	0.106711
H	0.3872901614431402 0.4473995752902568 0.9785861790750362	0.119852
H	0.2830101156598205 0.5511827878124522 0.9794924449270882	0.107036
H	0.2225548987128557 0.6081714730724906 0.9797778188723453	0.115138
H	0.0569496965081170 0.7690121414114239 0.9889510286449227	0.105575
H	0.1168188759525707 0.7112002656040876 0.9787595313389107	0.124885
H	0.0563314891924547 0.8858404116588630 0.9888751835149769	0.106711
H	0.1127098225568583 0.9473995422902508 0.9785861790750362	0.119852
H	0.2169899163401822 0.0511828048124571 0.9794924449270882	0.107036
H	0.2774451172871456 0.1081713990724920 0.9797778188723453	0.115139
H	0.4430503114918837 0.2690120754114256 0.9889510286449227	0.105575
H	0.3831811400474234 0.2112002826040851 0.9787595313389107	0.124885
H	0.5563315491924596 0.3858404116588628 0.9888751835149769	0.106713
H	0.6127097745568615 0.4473995752902568 0.9785861790750362	0.119851
H	0.7169898843401793 0.5511827878124522 0.9794924449270882	0.107036
H	0.7774451172871457 0.6081714730724906 0.9797778188723453	0.115139
H	0.9430503114918836 0.7690121414114239 0.9889510286449227	0.105575
H	0.8831811400474233 0.7112002656040876 0.9787595313389107	0.124885
H	0.9436684508075404 0.1141595723411358 0.4888751835149769	0.106713
H	0.8872902254431385 0.0526004287097435 0.4785862100750351	0.119851
H	0.7830101156598207 0.9488172121875478 0.4794924449270882	0.107036
H	0.7225548827128543 0.8918285269275094 0.4797778498723514	0.115139
H	0.5569496885081164 0.7309878585885761 0.4889510606449253	0.105575
H	0.6168188599525767 0.7887997343959124 0.4787595313389110	0.124886
H	0.4436685468075411 0.6141595883411370 0.4888751835149769	0.106711
H	0.3872901614431402 0.5526004577097492 0.4785862100750351	0.119851
H	0.2830101156598205 0.4488172121875479 0.4794924449270882	0.107036
H	0.2225548987128557 0.3918286259275136 0.4797778498723514	0.115139
H	0.0569496965081170 0.2309879075885766 0.4889510606449253	0.105575
H	0.1168188759525707 0.2887996683959143 0.4787595313389110	0.124886
H	0.9436684508075404 0.8858404116588630 0.5111248474850221	0.106713
H	0.8872902254431385 0.9473995422902508 0.5214137899249577	0.119851
H	0.7830101156598207 0.0511828048124571 0.5205075870729144	0.107036
H	0.7225548827128543 0.1081713990724920 0.5202221501276486	0.115139
H	0.5569496885081164 0.2690120754114256 0.5110489713550773	0.105575
H	0.6168188599525767 0.2112002826040851 0.5212404996610883	0.124885
H	0.4436685468075411 0.3858404116588628 0.5111248474850221	0.106711
H	0.3872901614431402 0.4473995752902568 0.5214137899249577	0.119852
H	0.2830101156598205 0.5511827878124522 0.5205075870729144	0.107036
H	0.2225548987128557 0.6081714730724906 0.5202221501276486	0.115139
H	0.0569496965081170 0.7690121414114239 0.5110489713550773	0.105575
H	0.1168188759525707 0.7112002656040876 0.5212404996610883	0.124885
H	0.0563314891924547 0.1141595723411358 0.0111248184850233	0.106711
H	0.1127098225568583 0.0526004287097435 0.0214137549249584	0.119851
H	0.2169899163401822 0.9488172121875478 0.0205075550729120	0.107036
H	0.2774451172871456 0.8918285269275094 0.0202221541276489	0.115139
H	0.4430503114918837 0.7309878585885761 0.0110489713550773	0.105575
H	0.3831811400474234 0.7887997343959124 0.0212404686610890	0.124885
H	0.5563315491924596 0.6141595883411370 0.0111248184850233	0.106713
H	0.6127097745568615 0.5526004577097492 0.0214137549249584	0.119851
H	0.7169898843401793 0.4488172121875479 0.0205075550729120	0.107036
H	0.7774451172871457 0.3918286259275136 0.0202221541276489	0.115139
H	0.9430503114918836 0.2309879075885766 0.0110489713550773	0.105575
H	0.8831811400474233 0.2887996683959143 0.0212404686610890	0.124885
Cd	0.5000000000000000 0.6729742347089201 0.7500000160000013	0.831012
Cd	-0.0000000000000000 0.1729742517089182 0.7500000160000013	0.831012
Cd	0.5000000000000000 0.3270257652910798 0.2500000000000000	0.831012
Cd	-0.0000000000000000 0.8270257652910799 0.2500000000000000	0.831012
Si	0.5000000000000000 0.6728492054732438 0.2500000000000000	1.741791
Si	-0.0000000000000000 0.1728492054732438 0.2500000000000000	1.741791
Si	0.5000000000000000 0.3271508265267589 0.7500000160000013	1.741791
Si	-0.0000000000000000 0.8271507945267562 0.7500000160000013	1.741791
F	0.5000000000000000 0.7304041023744859 0.2500000000000000	-0.557460
F	0.5000000000000000 0.6153278905069994 0.2500000000000000	-0.555793
F	-0.0000000000000000 0.2304040533744856 0.2500000000000000	-0.557460
F	-0.0000000000000000 0.1153278745069979 0.2500000000000000	-0.555793
F	0.5000000000000000 0.2695959466255145 0.7500000160000013	-0.557459
F	0.5000000000000000 0.3846720764930015 0.7500000160000013	-0.555794
F	-0.0000000000000000 0.7695958976255141 0.7500000160000013	-0.557459
F	-0.0000000000000000 0.8846721094930006 0.7500000160000013	-0.555794
F	0.5563508538058209 0.6729021904899791 0.2500000000000000	-0.558469
F	0.0563508738058226 0.1729022234899782 0.2500000000000000	-0.558471
F	0.4436491141941766 0.3270977435100227 0.7500000160000013	-0.558470
F	0.9436491461941791 0.8270978095100209 0.7500000160000013	-0.558469
F	0.4436491141941766 0.6729021904899791 0.2500000000000000	-0.558471
F	0.9436491461941791 0.1729022234899782 0.2500000000000000	-0.558469
F	0.5563508538058209 0.3270977435100227 0.7500000160000013	-0.558469
F	0.0563508738058226 0.8270978095100209 0.7500000160000013	-0.558470
F	0.5000000000000000 0.6727505448383810 0.4681799980158699	-0.508065
F	-0.0000000000000000 0.1727505618383789 0.4681799980158699	-0.508065
F	0.5000000000000000 0.3272494881616180 0.9681799980158697	-0.508065
F	-0.0000000000000000 0.8272494551616190 0.9681799980158697	-0.508065
F	0.5000000000000000 0.6727505448383810 0.0318199979841298	-0.508065
F	-0.0000000000000000 0.1727505618383789 0.0318199979841298	-0.508065
F	0.5000000000000000 0.3272494881616180 0.5318199699841347	-0.508065
F	-0.0000000000000000 0.8272494551616190 0.5318199699841347	-0.508065
N	0.5547775920870376 0.7288275496405542 0.7500000160000013	-0.240026
N	0.9456374031366723 0.1164681556692878 0.7500000160000013	-0.241770
N	0.0547775560870347 0.2288275336405528 0.7500000160000013	-0.240026
N	0.4456374031366720 0.6164681396692863 0.7500000160000013	-0.241772
N	0.4452224719129605 0.2711724503594458 0.2500000000000000	-0.240026
N	0.0543626048633285 0.8835318603307137 0.2500000000000000	-0.241772
N	0.9452224079129624 0.7711724503594458 0.2500000000000000	-0.240026
N	0.5543625968633277 0.3835318603307135 0.2500000000000000	-0.241770
N	0.4452224719129605 0.7288275496405542 0.7500000160000013	-0.240026
N	0.0543626048633285 0.1164681556692878 0.7500000160000013	-0.241772
N	0.9452224079129624 0.2288275336405528 0.7500000160000013	-0.240026
N	0.5543625968633277 0.6164681396692863 0.7500000160000013	-0.241770
N	0.5547775920870376 0.2711724503594458 0.2500000000000000	-0.240026
N	0.9456374031366723 0.8835318603307137 0.2500000000000000	-0.241770
N	0.0547775560870347 0.7711724503594458 0.2500000000000000	-0.240026
N	0.4456374031366720 0.3835318603307135 0.2500000000000000	-0.241772
	  	
