#======================================================================

# CRYSTAL DATA

#----------------------------------------------------------------------

data_VESTA_phase_1


_pd_phase_name                         SIFSIX_5_Fe_i
_cell_length_a                         19.84895
_cell_length_b                         19.84895
_cell_length_c                         15.22013
_cell_angle_alpha                      90
_cell_angle_beta                       90
_cell_angle_gamma                      90
_symmetry_space_group_name_H-M         P 1
_symmetry_Int_Tables_number            1

loop_
_symmetry_equiv_pos_as_xyz
   x, y, z

loop_
   _atom_site_label
   _atom_site_fract_x
   _atom_site_fract_y
   _atom_site_fract_z
   _atom_site_charge
F	0.3173564944932579 0.1964783973336752 0.3513997397274221	-0.550306
F	0.1826434935067412 0.3035216026663247 0.3513997397274221	-0.550300
F	0.3035216026663247 0.3173564944932579 0.3513997397274221	-0.550311
F	0.1964783973336752 0.1826434935067412 0.3513997397274221	-0.550294
F	0.6826435295067371 0.6964784213336771 0.1486002602725780	-0.550313
F	0.8173564704932629 0.8035215786663229 0.1486002602725780	-0.550315
F	0.6964784213336771 0.8173564704932629 0.1486002602725780	-0.550315
F	0.8035215786663229 0.6826435295067371 0.1486002602725780	-0.550312
F	0.6826435295067371 0.8035215786663229 0.6486002922725805	-0.550316
F	0.8173564704932629 0.6964784213336771 0.6486002922725805	-0.550312
F	0.6964784213336771 0.6826435295067371 0.6486002922725805	-0.550313
F	0.8035215786663229 0.8173564704932629 0.6486002922725805	-0.550315
F	0.3173564944932579 0.3035216026663247 0.8513997077274195	-0.550312
F	0.1826434935067412 0.1964783973336752 0.8513997077274195	-0.550295
F	0.3035216026663247 0.1826434935067412 0.8513997077274195	-0.550297
F	0.1964783973336752 0.3173564944932579 0.8513997077274195	-0.550310
F	0.2500000000000000 0.2500000000000000 0.4649708444283041	-0.479331
F	0.2500000000000000 0.2500000000000000 0.2376331774741294	-0.483149
F	0.7500000000000000 0.7500000000000000 0.0350291825716946	-0.479334
F	0.7500000000000000 0.7500000000000000 0.2623668065258692	-0.483149
F	0.7500000000000000 0.7500000000000000 0.5350291865716946	-0.479332
F	0.7500000000000000 0.7500000000000000 0.7623668065258689	-0.483150
F	0.2500000000000000 0.2500000000000000 0.9649708134283054	-0.479329
F	0.2500000000000000 0.2500000000000000 0.7376331934741311	-0.483151
N	0.3553005249216145 0.2477593237435009 0.6012739464605187	-0.260026
N	0.1446994750783856 0.2522406762564987 0.6012739464605187	-0.260026
N	0.2522406762564987 0.3553005249216145 0.6012739464605187	-0.260026
N	0.2477593237435009 0.1446994750783856 0.6012739464605187	-0.260025
N	0.6446994990783877 0.7477592997434990 0.8987260535394813	-0.260026
N	0.8553005009216123 0.7522407002565010 0.8987260535394813	-0.260026
N	0.7477592997434990 0.8553005009216123 0.8987260535394813	-0.260026
N	0.7522407002565010 0.6446994990783877 0.8987260535394813	-0.260025
N	0.6446994990783877 0.7522407002565010 0.3987260845394806	-0.260025
N	0.8553005009216123 0.7477592997434990 0.3987260845394806	-0.260025
N	0.7477592997434990 0.6446994990783877 0.3987260845394806	-0.260025
N	0.7522407002565010 0.8553005009216123 0.3987260845394806	-0.260026
N	0.3553005249216145 0.2522406762564987 0.1012739464605184	-0.260025
N	0.1446994750783856 0.2477593237435009 0.1012739464605184	-0.260025
N	0.2522406762564987 0.1446994750783856 0.1012739464605184	-0.260025
N	0.2477593237435009 0.3553005249216145 0.1012739464605184	-0.260026
C	0.3886686497909451 0.2176232390810648 0.6677961808203152	0.104409
C	0.4585495548766230 0.2158363643944640 0.6712779395883773	-0.178062
C	0.4965571370018879 0.2471367827642190 0.6050828289122331	0.103029
C	0.4609574939371106 0.2783145619891106 0.5364925274812254	-0.179213
C	0.3909773365715609 0.2772051872348609 0.5362711473525742	0.104376
C	0.5706305025812054 0.2478171054053011 0.6082388259311305	0.054085
C	0.6068419223523689 0.1913062651737310 0.6378337716429479	-0.133136
C	0.6768237848927076 0.1921131961173206 0.6403732889032578	-0.122561
C	0.7129825443098549 0.2498258063099768 0.6153671429082760	0.066494
C	0.6767962258155915 0.3066369910993761 0.5870922295746061	-0.118043
C	0.6068594376038773 0.3053846988694508 0.5825519853633246	-0.125774
C	0.1113313262090599 0.2823767849189373 0.6677961808203152	0.104411
C	0.0414503851233792 0.2841636596055381 0.6712779395883773	-0.178064
C	0.0034428419981141 0.2528632172357809 0.6050828289122331	0.103027
C	0.0390425330628881 0.2216854380108892 0.5364925274812254	-0.179209
C	0.1090226274284362 0.2227948367651411 0.5362711473525742	0.104374
C	0.9293694494187977 0.2521828705946967 0.6082388259311305	0.054085
C	0.8931581256476280 0.3086937698262683 0.6378337716429479	-0.133134
C	0.8231762151072924 0.3078868158826732 0.6403732889032578	-0.122559
C	0.7870174556901451 0.2501741696900213 0.6153671429082760	0.066486
C	0.8232038211844088 0.1933630089006239 0.5870922295746061	-0.118039
C	0.8931406583961236 0.1946153361305484 0.5825519853633246	-0.125774
C	0.2823767849189373 0.3886686497909451 0.6677961808203152	0.104412
C	0.2841636596055381 0.4585495548766230 0.6712779395883773	-0.178064
C	0.2528632172357809 0.4965571370018879 0.6050828289122331	0.103028
C	0.2216854380108892 0.4609574939371106 0.5364925274812254	-0.179211
C	0.2227948367651411 0.3909773365715609 0.5362711473525742	0.104377
C	0.2521828705946967 0.5706305025812054 0.6082388259311305	0.054084
C	0.3086937698262683 0.6068419223523689 0.6378337716429479	-0.133136
C	0.3078868158826732 0.6768237848927076 0.6403732889032578	-0.122562
C	0.2501741696900213 0.7129825443098549 0.6153671429082760	0.066492
C	0.1933630089006239 0.6767962258155915 0.5870922295746061	-0.118042
C	0.1946153361305484 0.6068594376038773 0.5825519853633246	-0.125775
C	0.2176232390810648 0.1113313262090599 0.6677961808203152	0.104410
C	0.2158363643944640 0.0414503851233792 0.6712779395883773	-0.178061
C	0.2471367827642190 0.0034428419981141 0.6050828289122331	0.103028
C	0.2783145619891106 0.0390425330628881 0.5364925274812254	-0.179211
C	0.2772051872348609 0.1090226274284362 0.5362711473525742	0.104374
C	0.2478171054053011 0.9293694494187977 0.6082388259311305	0.054085
C	0.1913062651737310 0.8931581256476280 0.6378337716429479	-0.133134
C	0.1921131961173206 0.8231762151072924 0.6403732889032578	-0.122558
C	0.2498258063099768 0.7870174556901451 0.6153671429082760	0.066488
C	0.3066369910993761 0.8232038211844088 0.5870922295746061	-0.118040
C	0.3053846988694508 0.8931406583961236 0.5825519853633246	-0.125773
C	0.6113313262090599 0.7176232870810614 0.8322038191796848	0.104409
C	0.5414503971233804 0.7158363883944594 0.8287220604116227	-0.178060
C	0.5034428629981123 0.7471368307642158 0.8949171710877669	0.103027
C	0.5390426020628899 0.7783145139891068 0.9635074725187746	-0.179213
C	0.6090226874284342 0.7772052112348560 0.9637288526474258	0.104374
C	0.4293694974187945 0.7478171774053000 0.8917611740688695	0.054087
C	0.3931580776476309 0.6913062301737318 0.8621662283570521	-0.133142
C	0.3231761431072867 0.6921131601173249 0.8596267110967422	-0.122502
C	0.2870175036901488 0.7498258303099791 0.8846328570917240	0.066431
C	0.3232037261844041 0.8066369910993761 0.9129077704253939	-0.118003
C	0.3931405863961175 0.8053846278694485 0.9174480146366754	-0.125781
C	0.8886686737909401 0.7823767129189386 0.8322038191796848	0.104411
C	0.9585496028766196 0.7841636116055406 0.8287220604116227	-0.178065
C	0.9965571850018846 0.7528631692357842 0.8949171710877669	0.103028
C	0.9609574459371141 0.7216854860108932 0.9635074725187746	-0.179210
C	0.8909773125715658 0.7227947887651440 0.9637288526474258	0.104375
C	0.0706305385812014 0.7521828225947000 0.8917611740688695	0.054086
C	0.1068419103523680 0.8086937698262682 0.8621662283570521	-0.133144
C	0.1768238328927114 0.8078867918826782 0.8596267110967422	-0.122502
C	0.2129824963098511 0.7501741696900209 0.8846328570917240	0.066425
C	0.1767962498155937 0.6933630089006239 0.9129077704253939	-0.118002
C	0.1068594136038824 0.6946153251305511 0.9174480146366754	-0.125785
C	0.7176232870810614 0.8886686737909401 0.8322038191796848	0.104413
C	0.7158363883944594 0.9585496028766196 0.8287220604116227	-0.178062
C	0.7471368307642158 0.9965571850018846 0.8949171710877669	0.103027
C	0.7783145139891068 0.9609574459371141 0.9635074725187746	-0.179212
C	0.7772052112348560 0.8909773125715658 0.9637288526474258	0.104376
C	0.7478171774053000 0.0706305385812014 0.8917611740688695	0.054086
C	0.6913062301737318 0.1068419103523680 0.8621662283570521	-0.133145
C	0.6921131601173249 0.1768238328927114 0.8596267110967422	-0.122501
C	0.7498258303099791 0.2129824963098511 0.8846328570917240	0.066431
C	0.8066369910993761 0.1767962498155937 0.9129077704253939	-0.118003
C	0.8053846278694485 0.1068594136038824 0.9174480146366754	-0.125784
C	0.7823767129189386 0.6113313262090599 0.8322038191796848	0.104409
C	0.7841636116055406 0.5414503971233804 0.8287220604116227	-0.178063
C	0.7528631692357842 0.5034428629981123 0.8949171710877669	0.103028
C	0.7216854860108932 0.5390426020628899 0.9635074725187746	-0.179209
C	0.7227947887651440 0.6090226874284342 0.9637288526474258	0.104374
C	0.7521828225947000 0.4293694974187945 0.8917611740688695	0.054087
C	0.8086937698262682 0.3931580776476309 0.8621662283570521	-0.133142
C	0.8078867918826782 0.3231761431072867 0.8596267110967422	-0.122502
C	0.7501741696900209 0.2870175036901488 0.8846328570917240	0.066425
C	0.6933630089006239 0.3232037261844041 0.9129077704253939	-0.118002
C	0.6946153251305511 0.3931405863961175 0.9174480146366754	-0.125782
C	0.6113313262090599 0.7823767129189386 0.3322038501796840	0.104408
C	0.5414503971233803 0.7841636116055406 0.3287220604116231	-0.178063
C	0.5034428629981123 0.7528631692357842 0.3949171710877667	0.103004
C	0.5390426020628899 0.7216854860108932 0.4635075035187803	-0.179209
C	0.6090226874284342 0.7227947887651440 0.4637288526474257	0.104373
C	0.4293694974187945 0.7521828225947000 0.3917611740688695	0.054092
C	0.3931580776476309 0.8086937698262682 0.3621661973570529	-0.133142
C	0.3231761431072867 0.8078867918826782 0.3596267420967411	-0.122503
C	0.2870175036901488 0.7501741696900209 0.3846327630917235	0.066432
C	0.3232037261844041 0.6933630089006239 0.4129078014253929	-0.118001
C	0.3931405863961175 0.6946153251305511 0.4174480146366750	-0.125782
C	0.8886686737909401 0.7176232870810614 0.3322038501796840	0.104408
C	0.9585496028766196 0.7158363883944594 0.3287220604116231	-0.178062
C	0.9965571850018846 0.7471368307642158 0.3949171710877667	0.103007
C	0.9609574459371141 0.7783145139891068 0.4635075035187803	-0.179213
C	0.8909773125715658 0.7772052112348560 0.4637288526474257	0.104376
C	0.0706305385812014 0.7478171774053000 0.3917611740688695	0.054091
C	0.1068419103523680 0.6913062301737318 0.3621661973570529	-0.133145
C	0.1768238328927114 0.6921131601173249 0.3596267420967411	-0.122503
C	0.2129824963098511 0.7498258303099791 0.3846327630917235	0.066426
C	0.1767962498155937 0.8066369910993761 0.4129078014253929	-0.118003
C	0.1068594136038824 0.8053846278694485 0.4174480146366750	-0.125783
C	0.7176232870810614 0.6113313262090599 0.3322038501796840	0.104408
C	0.7158363883944594 0.5414503971233804 0.3287220604116231	-0.178061
C	0.7471368307642158 0.5034428629981123 0.3949171710877667	0.103006
C	0.7783145139891068 0.5390426020628899 0.4635075035187803	-0.179210
C	0.7772052112348560 0.6090226874284342 0.4637288526474257	0.104374
C	0.7478171774053000 0.4293694974187945 0.3917611740688695	0.054092
C	0.6913062301737318 0.3931580776476309 0.3621661973570529	-0.133142
C	0.6921131601173249 0.3231761431072867 0.3596267420967411	-0.122502
C	0.7498258303099791 0.2870175036901488 0.3846327630917235	0.066434
C	0.8066369910993761 0.3232037261844041 0.4129078014253929	-0.118001
C	0.8053846278694485 0.3931405863961175 0.4174480146366750	-0.125781
C	0.7823767129189386 0.8886686737909401 0.3322038501796840	0.104410
C	0.7841636116055406 0.9585496028766197 0.3287220604116231	-0.178064
C	0.7528631692357842 0.9965571850018846 0.3949171710877667	0.103006
C	0.7216854860108932 0.9609574459371141 0.4635075035187803	-0.179210
C	0.7227947887651440 0.8909773125715658 0.4637288526474257	0.104377
C	0.7521828225947000 0.0706305385812014 0.3917611740688695	0.054091
C	0.8086937698262682 0.1068419103523680 0.3621661973570529	-0.133145
C	0.8078867918826782 0.1768238328927114 0.3596267420967411	-0.122503
C	0.7501741696900209 0.2129824963098511 0.3846327630917235	0.066424
C	0.6933630089006239 0.1767962498155937 0.4129078014253929	-0.118002
C	0.6946153251305511 0.1068594136038824 0.4174480146366750	-0.125784
C	0.3886686497909451 0.2823767849189373 0.1677961658203172	0.104409
C	0.4585495548766230 0.2841636596055381 0.1712779085883780	-0.178065
C	0.4965571370018879 0.2528632172357809 0.1050828289122331	0.103007
C	0.4609574939371106 0.2216854380108892 0.0364924924812263	-0.179209
C	0.3909773365715609 0.2227948367651411 0.0362711393525735	0.104375
C	0.5706305025812054 0.2521828705946967 0.1082388179311301	0.054089
C	0.6068419223523689 0.3086937698262683 0.1378337716429479	-0.133135
C	0.6768237848927076 0.3078868158826732 0.1403732419032576	-0.122563
C	0.7129825443098549 0.2501741696900213 0.1153672139082782	0.066494
C	0.6767962258155915 0.1933630089006239 0.0870922135746048	-0.118044
C	0.6068594376038773 0.1946153361305484 0.0825520003633225	-0.125777
C	0.1113313262090599 0.2176232390810648 0.1677961658203172	0.104407
C	0.0414503851233792 0.2158363643944640 0.1712779085883780	-0.178059
C	0.0034428419981141 0.2471367827642190 0.1050828289122331	0.103005
C	0.0390425330628881 0.2783145619891106 0.0364924924812263	-0.179213
C	0.1090226274284362 0.2772051872348609 0.0362711393525735	0.104375
C	0.9293694494187977 0.2478171054053011 0.1082388179311301	0.054090
C	0.8931581256476280 0.1913062651737310 0.1378337716429479	-0.133134
C	0.8231762151072924 0.1921131961173206 0.1403732419032576	-0.122560
C	0.7870174556901451 0.2498258063099768 0.1153672139082782	0.066486
C	0.8232038211844088 0.3066369910993761 0.0870922135746048	-0.118041
C	0.8931406583961236 0.3053846988694508 0.0825520003633225	-0.125774
C	0.2823767849189373 0.1113313262090599 0.1677961658203172	0.104407
C	0.2841636596055381 0.0414503851233792 0.1712779085883780	-0.178062
C	0.2528632172357809 0.0034428419981141 0.1050828289122331	0.103006
C	0.2216854380108892 0.0390425330628881 0.0364924924812263	-0.179209
C	0.2227948367651411 0.1090226274284362 0.0362711393525735	0.104375
C	0.2521828705946967 0.9293694494187977 0.1082388179311301	0.054090
C	0.3086937698262683 0.8931581256476280 0.1378337716429479	-0.133133
C	0.3078868158826732 0.8231762151072924 0.1403732419032576	-0.122563
C	0.2501741696900213 0.7870174556901451 0.1153672139082782	0.066494
C	0.1933630089006239 0.8232038211844088 0.0870922135746048	-0.118043
C	0.1946153361305484 0.8931406583961236 0.0825520003633225	-0.125775
C	0.2176232390810648 0.3886686497909451 0.1677961658203172	0.104411
C	0.2158363643944640 0.4585495548766230 0.1712779085883780	-0.178061
C	0.2471367827642190 0.4965571370018879 0.1050828289122331	0.103006
C	0.2783145619891106 0.4609574939371106 0.0364924924812263	-0.179212
C	0.2772051872348609 0.3909773365715609 0.0362711393525735	0.104376
C	0.2478171054053011 0.5706305025812054 0.1082388179311301	0.054089
C	0.1913062651737310 0.6068419223523689 0.1378337716429479	-0.133136
C	0.1921131961173206 0.6768237848927076 0.1403732419032576	-0.122560
C	0.2498258063099768 0.7129825443098549 0.1153672139082782	0.066486
C	0.3066369910993761 0.6767962258155915 0.0870922135746048	-0.118042
C	0.3053846988694508 0.6068594376038773 0.0825520003633225	-0.125777
H	0.3579679459614056 0.1960004695254122 0.7201182227022238	0.102828
H	0.4829043375394849 0.1917501712969434 0.7273062705657188	0.112824
H	0.4873267814769737 0.3023081068681505 0.4819526201568096	0.112679
H	0.3619513773522584 0.2993341609978065 0.4826851506647178	0.102670
H	0.5796302150749141 0.1459293271130163 0.6574916873790337	0.099600
H	0.7042435688752582 0.1478691528265102 0.6632763121772309	0.100591
H	0.7040769228151308 0.3513951038142771 0.5655921097823944	0.101470
H	0.5797327506371587 0.3499138962354415 0.5598024751815143	0.102332
H	0.1420320180385912 0.3039995544745897 0.7201182227022238	0.102825
H	0.0170956684605083 0.3082498527030585 0.7273062705657188	0.112827
H	0.0126732075230289 0.1976919051318506 0.4819526201568096	0.112677
H	0.1380486466477437 0.2006658270021924 0.4826851506647178	0.102670
H	0.9203698319250863 0.3540706728869837 0.6574916873790337	0.099600
H	0.7957564311247418 0.3521308351734891 0.6632763121772309	0.100588
H	0.7959230771848692 0.1486049081857240 0.5655921097823944	0.101473
H	0.9202672493628413 0.1500860917645648 0.5598024751815143	0.102334
H	0.3039995544745897 0.3579679459614056 0.7201182227022238	0.102826
H	0.3082498527030585 0.4829043375394849 0.7273062705657188	0.112827
H	0.1976919051318506 0.4873267814769737 0.4819526201568096	0.112678
H	0.2006658270021924 0.3619513773522584 0.4826851506647178	0.102669
H	0.3540706728869837 0.5796302150749141 0.6574916873790337	0.099600
H	0.3521308351734891 0.7042435688752582 0.6632763121772309	0.100589
H	0.1486049081857240 0.7040769228151308 0.5655921097823944	0.101472
H	0.1500860917645648 0.5797327506371587 0.5598024751815143	0.102335
H	0.1960004695254122 0.1420320180385912 0.7201182227022238	0.102826
H	0.1917501712969434 0.0170956684605083 0.7273062705657188	0.112824
H	0.3023081068681505 0.0126732075230289 0.4819526201568096	0.112678
H	0.2993341609978065 0.1380486466477437 0.4826851506647178	0.102671
H	0.1459293271130163 0.9203698319250863 0.6574916873790337	0.099602
H	0.1478691528265102 0.7957564311247418 0.6632763121772309	0.100589
H	0.3513951038142771 0.7959230771848692 0.5655921097823944	0.101470
H	0.3499138962354415 0.9202672493628413 0.5598024751815143	0.102332
H	0.6420320060385903 0.6960004695254123 0.7798817772977762	0.102825
H	0.5170956144605108 0.6917501472969417 0.7726937294342812	0.112823
H	0.5126732185230265 0.8023081068681505 0.0180473648431855	0.112678
H	0.6380486226477420 0.7993341369978045 0.0173148773352843	0.102669
H	0.4203697849250857 0.6459293271130165 0.8425083126209663	0.099601
H	0.2957564551247440 0.6478691648265110 0.8367236878227691	0.100580
H	0.2959230771848694 0.8513951038142773 0.9344078902176056	0.101463
H	0.4202672973628382 0.8499139202354360 0.9401975248184857	0.102334
H	0.8579680419614065 0.8039995784745917 0.7798817772977762	0.102826
H	0.9829042895394884 0.8082498527030583 0.7726937294342812	0.112825
H	0.9873267334769766 0.6976918931318495 0.0180473648431855	0.112679
H	0.8619512813522572 0.7006658630021955 0.0173148773352843	0.102671
H	0.0796302150749142 0.8540706728869835 0.8425083126209663	0.099598
H	0.2042435448752560 0.8521308351734890 0.8367236878227691	0.100576
H	0.2040769228151309 0.6486049441857196 0.9344078902176056	0.101461
H	0.0797327446371583 0.6500860797645640 0.9401975248184857	0.102333
H	0.6960004695254123 0.8579680419614065 0.7798817772977762	0.102825
H	0.6917501472969417 0.9829042895394884 0.7726937294342812	0.112824
H	0.8023081068681505 0.9873267334769766 0.0180473648431855	0.112680
H	0.7993341369978045 0.8619512813522572 0.0173148773352843	0.102671
H	0.6459293271130165 0.0796302150749142 0.8425083126209663	0.099601
H	0.6478691648265110 0.2042435448752560 0.8367236878227691	0.100579
H	0.8513951038142773 0.2040769228151309 0.9344078902176056	0.101462
H	0.8499139202354360 0.0797327446371583 0.9401975248184857	0.102333
H	0.8039995784745917 0.6420320060385903 0.7798817772977762	0.102825
H	0.8082498527030583 0.5170956144605108 0.7726937294342812	0.112824
H	0.6976918931318495 0.5126732185230265 0.0180473648431855	0.112676
H	0.7006658630021955 0.6380486226477420 0.0173148773352843	0.102669
H	0.8540706728869835 0.4203697849250857 0.8425083126209663	0.099599
H	0.8521308351734890 0.2957564551247440 0.8367236878227691	0.100577
H	0.6486049441857196 0.2959230771848694 0.9344078902176056	0.101462
H	0.6500860797645640 0.4202672973628382 0.9401975248184857	0.102335
H	0.6420320060385903 0.8039995784745917 0.2798818092977717	0.102825
H	0.5170956144605108 0.8082498527030583 0.2726937604342800	0.112825
H	0.5126732185230265 0.6976918931318495 0.5180473488431905	0.112694
H	0.6380486226477420 0.7006658630021955 0.5173148493352822	0.102672
H	0.4203697849250857 0.8540706728869835 0.3425082816209672	0.099600
H	0.2957564551247440 0.8521308351734890 0.3367236558227667	0.100579
H	0.2959230771848694 0.6486049441857196 0.4344079212176049	0.101465
H	0.4202672973628382 0.6500860797645640 0.4401975868184838	0.102333
H	0.8579680419614065 0.6960004695254123 0.2798818092977717	0.102826
H	0.9829042895394884 0.6917501472969417 0.2726937604342800	0.112823
H	0.9873267334769766 0.8023081068681505 0.5180473488431905	0.112696
H	0.8619512813522572 0.7993341369978045 0.5173148493352822	0.102672
H	0.0796302150749142 0.6459293271130165 0.3425082816209672	0.099599
H	0.2042435448752560 0.6478691648265110 0.3367236558227667	0.100577
H	0.2040769228151309 0.8513951038142773 0.4344079212176049	0.101458
H	0.0797327446371583 0.8499139202354360 0.4401975868184838	0.102330
H	0.6960004695254123 0.6420320060385903 0.2798818092977717	0.102825
H	0.6917501472969417 0.5170956144605108 0.2726937604342800	0.112823
H	0.8023081068681505 0.5126732185230265 0.5180473488431905	0.112695
H	0.7993341369978045 0.6380486226477420 0.5173148493352822	0.102672
H	0.6459293271130165 0.4203697849250857 0.3425082816209672	0.099601
H	0.6478691648265110 0.2957564551247440 0.3367236558227667	0.100580
H	0.8513951038142773 0.2959230771848694 0.4344079212176049	0.101462
H	0.8499139202354360 0.4202672973628382 0.4401975868184838	0.102331
H	0.8039995784745917 0.8579680419614065 0.2798818092977717	0.102826
H	0.8082498527030583 0.9829042895394884 0.2726937604342800	0.112825
H	0.6976918931318495 0.9873267334769766 0.5180473488431905	0.112695
H	0.7006658630021955 0.8619512813522572 0.5173148493352822	0.102671
H	0.8540706728869835 0.0796302150749142 0.3425082816209672	0.099599
H	0.8521308351734890 0.2042435448752560 0.3367236558227667	0.100576
H	0.6486049441857196 0.2040769228151309 0.4344079212176049	0.101460
H	0.6500860797645640 0.0797327446371583 0.4401975868184838	0.102334
H	0.3579679459614056 0.3039995544745897 0.2201182227022239	0.102826
H	0.4829043375394849 0.3082498527030585 0.2273062855657236	0.112824
H	0.4873267814769737 0.1976919051318506 0.9819526821568156	0.112695
H	0.3619513773522584 0.2006658270021924 0.9826851196647188	0.102673
H	0.5796302150749141 0.3540706728869837 0.1574917023790313	0.099598
H	0.7042435688752582 0.3521308351734891 0.1632763591772311	0.100587
H	0.7040769228151308 0.1486049081857240 0.0655920707823946	0.101472
H	0.5797327506371587 0.1500860917645648 0.0598024361815145	0.102331
H	0.1420320180385912 0.1960004695254122 0.2201182227022239	0.102827
H	0.0170956684605083 0.1917501712969434 0.2273062855657236	0.112822
H	0.0126732075230289 0.3023081068681505 0.9819526821568156	0.112694
H	0.1380486466477437 0.2993341609978065 0.9826851196647188	0.102671
H	0.9203698319250863 0.1459293271130163 0.1574917023790313	0.099600
H	0.7957564311247418 0.1478691528265102 0.1632763591772311	0.100587
H	0.7959230771848692 0.3513951038142771 0.0655920707823946	0.101469
H	0.9202672493628413 0.3499138962354415 0.0598024361815145	0.102332
H	0.3039995544745897 0.1420320180385912 0.2201182227022239	0.102826
H	0.3082498527030585 0.0170956684605083 0.2273062855657236	0.112823
H	0.1976919051318506 0.0126732075230289 0.9819526821568156	0.112693
H	0.2006658270021924 0.1380486466477437 0.9826851196647188	0.102671
H	0.3540706728869837 0.9203698319250863 0.1574917023790313	0.099598
H	0.3521308351734891 0.7957564311247418 0.1632763591772311	0.100588
H	0.1486049081857240 0.7959230771848692 0.0655920707823946	0.101473
H	0.1500860917645648 0.9202672493628413 0.0598024361815145	0.102333
H	0.1960004695254122 0.3579679459614056 0.2201182227022239	0.102827
H	0.1917501712969434 0.4829043375394849 0.2273062855657236	0.112823
H	0.3023081068681505 0.4873267814769737 0.9819526821568156	0.112696
H	0.2993341609978065 0.3619513773522584 0.9826851196647188	0.102673
H	0.1459293271130163 0.5796302150749141 0.1574917023790313	0.099601
H	0.1478691528265102 0.7042435688752582 0.1632763591772311	0.100586
H	0.3513951038142771 0.7040769228151308 0.0655920707823946	0.101468
H	0.3499138962354415 0.5797327506371587 0.0598024361815145	0.102331
Fe	0.2500000000000000 0.2500000000000000 0.6004611275831119	0.823275
Fe	0.7500000000000000 0.7500000000000000 0.8995388724168881	0.823274
Fe	0.7500000000000000 0.7500000000000000 0.3995388104168900	0.823272
Fe	0.2500000000000000 0.2500000000000000 0.1004611505831101	0.823272
Si	0.2500000000000000 0.2500000000000000 0.3512720503476038	1.738145
Si	0.7500000000000000 0.7500000000000000 0.1487279646523939	1.738195
Si	0.7500000000000000 0.7500000000000000 0.6487280426523928	1.738195
Si	0.2500000000000000 0.2500000000000000 0.8512719573476072	1.738145
	  	
