#======================================================================

# CRYSTAL DATA

#----------------------------------------------------------------------

data_VESTA_phase_1


_pd_phase_name                         SIFSIX_7_Cu
_cell_length_a                         18.84710
_cell_length_b                         18.84710
_cell_length_c                         7.99750
_cell_angle_alpha                      90
_cell_angle_beta                       90
_cell_angle_gamma                      90
_symmetry_space_group_name_H-M         P 1
_symmetry_Int_Tables_number            1

loop_
_symmetry_equiv_pos_as_xyz
   x, y, z

loop_
   _atom_site_label
   _atom_site_fract_x
   _atom_site_fract_y
   _atom_site_fract_z
   _atom_site_charge
C	0.6674376510000002 0.8697622820000035 0.6991101170000036	0.099457
C	0.6158864289999997 0.9223231380000030 0.7028504040000030	-0.171634
C	0.5803389590000023 0.8867043719999970 0.4271755030000008	-0.168075
C	0.6327969940000031 0.8351731879999988 0.4317491150000023	0.096311
C	0.8325623489999998 0.6302377179999965 0.6991101170000036	0.099457
C	0.8841136209999974 0.5776769129999977 0.7028504040000030	-0.171634
C	0.9196609400000000 0.6132956789999966 0.4271755030000008	-0.168075
C	0.8672030059999969 0.6648268120000012 0.4317491150000023	0.096311
C	0.6302377179999965 0.6674376510000002 0.6991101170000036	0.099457
C	0.5776769129999977 0.6158864289999997 0.7028504040000030	-0.171634
C	0.6132956789999966 0.5803389590000023 0.4271755030000008	-0.168075
C	0.6648268120000012 0.6327969940000031 0.4317491150000023	0.096311
C	0.8697622820000035 0.8325623489999998 0.6991101170000036	0.099457
C	0.9223231380000030 0.8841136209999974 0.7028504040000030	-0.171634
C	0.8867043719999970 0.9196609400000000 0.4271755030000008	-0.168075
C	0.8351731879999988 0.8672030059999969 0.4317491150000023	0.096311
C	0.3325623240000013 0.3697622319999994 0.3008899129999989	0.099450
C	0.3841135710000003 0.4223231380000030 0.2971496259999995	-0.171601
C	0.4196610409999977 0.3867043210000034 0.5728244969999992	-0.168074
C	0.3672029550000033 0.3351731879999988 0.5682509150000001	0.096310
C	0.1674376759999987 0.1302377550000031 0.3008899129999989	0.099449
C	0.1158864289999997 0.0776768619999970 0.2971496259999995	-0.171600
C	0.0803389399999972 0.1132956789999966 0.5728244969999992	-0.168074
C	0.1327970449999967 0.1648268000000002 0.5682509150000001	0.096311
C	0.3697622319999994 0.1674376759999987 0.3008899129999989	0.099448
C	0.4223231380000030 0.1158864289999997 0.2971496259999995	-0.171601
C	0.3867043210000034 0.0803389399999972 0.5728244969999992	-0.168074
C	0.3351731879999988 0.1327970449999967 0.5682509150000001	0.096311
C	0.1302377550000031 0.3325623240000013 0.3008899129999989	0.099450
C	0.0776768619999970 0.3841135710000003 0.2971496259999995	-0.171600
C	0.1132956789999966 0.4196610409999977 0.5728244969999992	-0.168073
C	0.1648268000000002 0.3672029550000033 0.5682509150000001	0.096310
C	0.4321792719999991 0.0709822459999998 0.4352228569999994	0.139461
C	0.4872029089999970 0.0168647070000034 0.4316167510000000	-0.121191
C	0.0678207280000009 0.4290177470000032 0.4352228569999994	0.139456
C	0.0127970590000004 0.4831352289999984 0.4316167510000000	-0.121176
C	0.4290177470000032 0.4321792719999991 0.4352228569999994	0.139460
C	0.4831352289999984 0.4872029089999970 0.4316167510000000	-0.121191
C	0.0709822459999998 0.0678207280000009 0.4352228569999994	0.139456
C	0.0168647070000034 0.0127970590000004 0.4316167510000000	-0.121176
C	0.5678207280000009 0.5709822529999968 0.5647771430000006	0.139470
C	0.5127971419999966 0.5168647209999975 0.5683832779999989	-0.121173
C	0.9321792220000020 0.9290176969999990 0.5647771430000006	0.139470
C	0.9872029089999970 0.9831353300000032 0.5683832779999989	-0.121179
C	0.5709822529999968 0.9321792220000020 0.5647771430000006	0.139470
C	0.5168647209999975 0.9872029089999970 0.5683832779999989	-0.121173
C	0.9290176969999990 0.5678207280000009 0.5647771430000006	0.139470
C	0.9831353300000032 0.5127971419999966 0.5683832779999989	-0.121179
H	0.7017793600000033 0.8598166359999979 0.8061575700000034	0.112392
H	0.6108974639999971 0.9555850300000017 0.8136244319999975	0.117707
H	0.5460972879999986 0.8898711590000019 0.3176477510000026	0.118485
H	0.6422340040000023 0.8001933039999969 0.3257461119999974	0.112524
H	0.7982206399999967 0.6401833640000021 0.8061575700000034	0.112392
H	0.8891025360000029 0.5444150209999989 0.8136244319999975	0.117707
H	0.9539027630000021 0.6101288919999988 0.3176477510000026	0.118485
H	0.8577659959999977 0.6998066960000031 0.3257461119999974	0.112525
H	0.6401833640000021 0.7017793600000033 0.8061575700000034	0.112392
H	0.5444150209999989 0.6108974639999971 0.8136244319999975	0.117707
H	0.6101288919999988 0.5460972879999986 0.3176477510000026	0.118485
H	0.6998066960000031 0.6422340040000023 0.3257461119999974	0.112525
H	0.8598166359999979 0.7982206399999967 0.8061575700000034	0.112392
H	0.9555850300000017 0.8891025360000029 0.8136244319999975	0.117707
H	0.8898711590000019 0.9539027630000021 0.3176477510000026	0.118485
H	0.8001933039999969 0.8577659959999977 0.3257461119999974	0.112525
H	0.2982206659999989 0.3598165599999987 0.1938424149999989	0.112391
H	0.3891024599999966 0.4555849790000011 0.1863755239999989	0.117689
H	0.4539027630000021 0.3898711590000019 0.6823522190000020	0.118485
H	0.3577660210000033 0.3001933299999990 0.6742538880000026	0.112528
H	0.2017793469999987 0.1401834660000034 0.1938424149999989	0.112394
H	0.1108975149999978 0.0444150370000003 0.1863755239999989	0.117689
H	0.0460972309999974 0.1101288670000002 0.6823522190000020	0.118485
H	0.1422340040000023 0.1998066580000000 0.6742538880000026	0.112525
H	0.3598165599999987 0.2017793469999987 0.1938424149999989	0.112394
H	0.4555849790000011 0.1108975149999978 0.1863755239999989	0.117689
H	0.3898711590000019 0.0460972309999974 0.6823522190000020	0.118485
H	0.3001933299999990 0.1422340040000023 0.6742538880000026	0.112525
H	0.1401834660000034 0.2982206659999989 0.1938424149999989	0.112391
H	0.0444150370000003 0.3891024599999966 0.1863755239999989	0.117689
H	0.1101288670000002 0.4539027630000021 0.6823522190000020	0.118485
H	0.1998066580000000 0.3577660210000033 0.6742538880000026	0.112528
H	0.5064255160000002 0.0017361789999981 0.3074911639999982	0.103135
H	0.9935745350000005 0.4982637929999996 0.3074911639999982	0.103127
H	0.4982637929999996 0.5064255160000002 0.3074911639999982	0.103135
H	0.0017361789999981 0.9935745350000005 0.3074911639999982	0.103127
H	0.4935744839999998 0.5017361570000034 0.6925088659999972	0.103135
H	0.0064255070000030 0.9982637929999996 0.6925088659999972	0.103135
H	0.5017361570000034 0.0064255070000030 0.6925088659999972	0.103135
H	0.9982637929999996 0.4935744839999998 0.6925088659999972	0.103135
Cu	0.2500000000000000 0.2500000000000000 0.4339398830000007	0.706813
Cu	0.7500000000000000 0.7500000000000000 0.5660601169999993	0.706813
Si	0.2500000000000000 0.2500000000000000 0.9350193920000009	1.732409
Si	0.7500000000000000 0.7500000000000000 0.0649805930000014	1.732485
F	0.2500000000000000 0.2500000000000000 0.1521583359999994	-0.534174
F	0.2500000000000000 0.2500000000000000 0.7175303109999973	-0.534046
F	0.7500000000000000 0.7500000000000000 0.8478416940000031	-0.534179
F	0.7500000000000000 0.7500000000000000 0.2824696890000027	-0.534052
F	0.3148005050000009 0.3136162739999975 0.9350127140000026	-0.555031
F	0.1851995199999976 0.1863837510000010 0.9350127140000026	-0.555049
F	0.1863837510000010 0.3148005050000009 0.9350127140000026	-0.555035
F	0.3136162739999975 0.1851995199999976 0.9350127140000026	-0.555044
F	0.6851995199999976 0.8136162739999975 0.0649872859999974	-0.555054
F	0.8148004800000024 0.6863837260000025 0.0649872859999974	-0.555054
F	0.8136162739999975 0.8148004800000024 0.0649872859999974	-0.555054
F	0.6863837260000025 0.6851995199999976 0.0649872859999974	-0.555054
N	0.3270514390000017 0.1756109869999989 0.4345128630000019	-0.226303
N	0.1729485859999969 0.3243890379999996 0.4345128630000019	-0.226302
N	0.3243890379999996 0.3270514390000017 0.4345128630000019	-0.226303
N	0.1756109869999989 0.1729485859999969 0.4345128630000019	-0.226302
N	0.6729485609999983 0.6756109620000004 0.5654871369999981	-0.226303
N	0.8270514390000017 0.8243890379999996 0.5654871369999981	-0.226303
N	0.6756109620000004 0.8270514390000017 0.5654871369999981	-0.226303
N	0.8243890379999996 0.6729485609999983 0.5654871369999981	-0.226303
	  	
