#======================================================================

# CRYSTAL DATA

#----------------------------------------------------------------------

data_VESTA_phase_1


_pd_phase_name                         SIFSIX_14_Cu_i
_cell_length_a                         13.07281
_cell_length_b                         13.06340
_cell_length_c                         8.05189
_cell_angle_alpha                      88.49049
_cell_angle_beta                       88.38956
_cell_angle_gamma                      88.68291
_symmetry_space_group_name_H-M         P 1
_symmetry_Int_Tables_number            1

loop_
_symmetry_equiv_pos_as_xyz
   x, y, z

loop_
   _atom_site_label
   _atom_site_fract_x
   _atom_site_fract_y
   _atom_site_fract_z
   _atom_site_charge
C	0.5661739354289148 0.2670954079003813 0.3651857426383482	-0.176270
C	0.4599185617353577 0.2707091835162267 0.3701847257286280	0.106926
C	0.9407982374913558 0.2866308550553177 0.4184366008553933	-0.164842
C	0.0468665721963148 0.2796108558331581 0.4049358649912655	0.110053
C	0.2657029940007904 0.5663892136001261 0.3668727900269482	-0.177312
C	0.2688911352981488 0.4600313052161846 0.3721726464436952	0.107115
C	0.2935250370567157 0.9411759780992115 0.4143695271421613	-0.166262
C	0.2853790537898778 0.0472728392853637 0.4018374685614163	0.110266
C	0.9336775493032941 0.2350000645491944 0.1331894690037184	-0.175168
C	0.0399504428779086 0.2320316015038472 0.1277613639788225	0.105062
C	0.5590867395929265 0.2090145916803113 0.0834732204850394	-0.161857
C	0.4530085376727906 0.2168238066497951 0.0963510466276004	0.108446
C	0.2103994539376915 0.5590908762948360 0.0838642962072928	-0.165399
C	0.2180043512842446 0.4530146378233958 0.0968492807105986	0.109177
C	0.2319239832601775 0.9338694087904758 0.1350226725135971	-0.176338
C	0.2283352544826504 0.0402173441631734 0.1300208167092206	0.106722
C	0.4334257584475532 0.7360113641340833 0.6340595826158174	-0.175398
C	0.5395156695137510 0.7338731122833159 0.6279971424296061	0.105942
C	0.0593328748829330 0.7284413001882947 0.5738479411185367	-0.157433
C	0.9533271577259588 0.7317364510344867 0.5897663840367457	0.111243
C	0.7365152880059284 0.4329943633251032 0.6335397942684684	-0.174647
C	0.7348005449256767 0.5391609664265531 0.6275867677986855	0.105936
C	0.7165170390446534 0.0588105392926611 0.5784658830090353	-0.160164
C	0.7218832399243648 0.9527331515189392 0.5931490528000783	0.109862
C	0.0670572986978760 0.7613991421746458 0.8671335678594916	-0.173692
C	0.9609623130924664 0.7625984015364107 0.8734268054252968	0.104480
C	0.4412204039748158 0.7773181560151204 0.9242215240558215	-0.157181
C	0.5472386706815296 0.7729891044360282 0.9085624332668001	0.108659
C	0.7779809293870170 0.4407426991316890 0.9235142506700823	-0.160182
C	0.7736831586121642 0.5468020630479802 0.9082454515836512	0.109131
C	0.7657518967547997 0.0664927685073453 0.8648752339752943	-0.175827
C	0.7684213777690772 0.9603217909898656 0.8703491940619896	0.107220
C	0.6171815609847928 0.2360014660058059 0.2183896831162020	0.190380
C	0.8827023187719821 0.2625080009320831 0.2819353163406311	0.189629
C	0.2360904272130167 0.6172760498395049 0.2194961664399614	0.191472
C	0.2648746604551577 0.8829836674338006 0.2804852583285244	0.190133
C	0.3829563109244393 0.7580625829379354 0.7858693592184792	0.189419
C	0.1175370228707630 0.7439777572750049 0.7136999220889738	0.187301
C	0.7584006732770190 0.3824946171294317 0.7851164108306903	0.190131
C	0.7395685692130168 0.1170474798054893 0.7152533441161911	0.190276
H	0.6085443980421895 0.2837609367182560 0.4753411495035411	0.109925
H	0.4169819366249466 0.2912879279105460 0.4829141729328847	0.109227
H	0.9039899611975817 0.3102302638588089 0.5344695331303908	0.126704
H	0.0943904766522225 0.2958236446396110 0.5097966612511979	0.112574
H	0.2814196180858637 0.6091056724546144 0.4772438648012961	0.112803
H	0.2880794229631738 0.4171705942768083 0.4854606663041062	0.109314
H	0.3215410455235450 0.9044406620417643 0.5276057211300215	0.126607
H	0.3046250597164285 0.0948423419887427 0.5052779157608600	0.112206
H	0.8911686078856764 0.2206197873718423 0.0221569468761586	0.109865
H	0.0828713344908170 0.2141581429174660 0.0137189842047427	0.109808
H	0.5959164100415206 0.1823704556425769 0.9692370937295686	0.125465
H	0.4055310736361022 0.1984831517565144 0.9924629148900751	0.113144
H	0.1852509134753365 0.5957353856376494 0.9687232224882460	0.126467
H	0.2008180449569371 0.4054925001807387 0.9923372559003731	0.112537
H	0.2138831243609466 0.8912552249958782 0.0257046201380684	0.112275
H	0.2065712929795011 0.0830822797036323 0.0180032138233405	0.109881
H	0.3911223741839239 0.7240418181061220 0.5219153575539673	0.104774
H	0.5824300382598873 0.7190318899742909 0.5128179346206514	0.110624
H	0.0959210412120376 0.7140203940996268 0.4535281462532224	0.124874
H	0.9057257608501869 0.7204760118219264 0.4833612564581347	0.111133
H	0.7249076080896752 0.3905139913928442 0.5213059466341639	0.105003
H	0.7203272125986322 0.5820495253716531 0.5124151342109090	0.111680
H	0.6946525107962344 0.0955680071127958 0.4616833434051175	0.126402
H	0.7054582546936073 0.9051211956408444 0.4885457498221736	0.111413
H	0.1093878367944552 0.7705921547842898 0.9801919539413649	0.103995
H	0.9180681702271659 0.7738657428405697 0.9897134043873731	0.111661
H	0.4046967639822094 0.7954770367010322 0.0431018010083309	0.125031
H	0.5948976544261783 0.7870083621296378 0.0139614719512448	0.111896
H	0.7960881271197529 0.4040984176490001 0.0421810314918712	0.125822
H	0.7875897826112768 0.5944303028215074 0.0138714932822213	0.111263
H	0.7799905448470480 0.1088843605582493 0.9761715919625346	0.106454
H	0.7862211583394910 0.9173919548450443 0.9841826886068326	0.111308
N	0.7752098311370050 0.2740246924771979 0.3008248347315314	-0.100285
N	0.2779380491407210 0.7753701446837503 0.2972802854010650	-0.103072
N	0.7247260053357869 0.2238727996099599 0.1998016831884949	-0.104503
N	0.2234600666806473 0.7248468460422589 0.2025501196415586	-0.103153
N	0.2247745103191243 0.7371828871612388 0.6890355223111569	-0.099306
N	0.7305420903169642 0.2243893026365606 0.6925329429848546	-0.101421
N	0.2756938255515498 0.7656071463315884 0.8103535925826360	-0.100896
N	0.7667432670585743 0.2751945560659566 0.8081309924566963	-0.101288
N	0.4049026895732007 0.2469219965566606 0.2377031116627169	-0.214799
N	0.0949846204565043 0.2530607599167405 0.2616457937646091	-0.215052
N	0.2463287665815186 0.4049216585221239 0.2390580813435863	-0.216117
N	0.2536695732805130 0.0953185350046158 0.2616060538911142	-0.214698
N	0.5951558592463277 0.7516153362010292 0.7628658290756605	-0.211856
N	0.9053381094248510 0.7484064669555822 0.7371774629635213	-0.213982
N	0.7526514633764602 0.5947961121330856 0.7625746889708437	-0.212352
N	0.7473920030726204 0.9047298076060780 0.7367531931148519	-0.213766
F	0.3430296253453651 0.1544191076663644 0.7508679922424993	-0.543160
F	0.1579698477295627 0.3451043490283429 0.7498676386093190	-0.544437
F	0.3431559165297511 0.3398420019092656 0.7476349087786465	-0.551960
F	0.1576456951662378 0.1599203892244393 0.7532205090270125	-0.551744
F	0.6544362506647146 0.8422283619561105 0.2509545916917574	-0.542062
F	0.8452817594877579 0.6578275071734974 0.2488320126408698	-0.543242
F	0.6604843156865703 0.6571222858368208 0.2469074603334450	-0.549793
F	0.8395595517891586 0.8427665927074545 0.2524902881467941	-0.549943
F	0.2537495700801491 0.2524403427629143 0.5340236898947908	-0.535877
F	0.2472201165654194 0.2469803067450590 0.9667228382691999	-0.535996
F	0.7448307260199037 0.7444511830576183 0.4664129986597098	-0.534537
F	0.7548717856383180 0.7557997780770346 0.0332163326564933	-0.534424
Si	0.2505775851068461 0.2496972016909192 0.7503695024969146	1.726678
Si	0.7498606078262509 0.7500610508424733 0.2498360522022756	1.725435
Cu	0.2499369423795187 0.2501256348845523 0.2500035146661054	0.696863
Cu	0.7502247362076435 0.7497700002252391 0.7498288570654942	0.695603
	  	
