#======================================================================

# CRYSTAL DATA

#----------------------------------------------------------------------

data_VESTA_phase_1


_pd_phase_name                         SIFSIX_4_Zn_i
_cell_length_a                         23.83698
_cell_length_b                         20.62281
_cell_length_c                         9.22733
_cell_angle_alpha                      90
_cell_angle_beta                       90
_cell_angle_gamma                      90
_symmetry_space_group_name_H-M         P 1
_symmetry_Int_Tables_number            1

loop_
_symmetry_equiv_pos_as_xyz
   x, y, z

loop_
   _atom_site_label
   _atom_site_fract_x
   _atom_site_fract_y
   _atom_site_fract_z
   _atom_site_charge
C	0.4148853077335609 0.5970222097604146 0.6256199218355860	0.102899
C	0.3713629665008852 0.5522390095641272 0.6235971288466847	-0.170192
C	0.2762098582510651 0.4490802109552244 0.6233672474949449	-0.116800
C	0.2310955472597599 0.4065483566205225 0.6219772415669864	-0.113651
C	0.1312405876832261 0.3206440794417621 0.6203282989957514	-0.166531
C	0.0850678072212657 0.2796495210711424 0.6237964311023796	0.097412
C	0.9148853907335570 0.0970222207604190 0.6256199218355860	0.102896
C	0.8713629245008888 0.0522389515641293 0.6235971288466847	-0.170179
C	0.7762098792510708 0.9490802579552247 0.6233672474949449	-0.116790
C	0.7310955272597579 0.9065484026205187 0.6219772415669864	-0.113651
C	0.6312405876832260 0.8206441264417622 0.6203282989957514	-0.166531
C	0.5850677922212610 0.7796496140711392 0.6237964311023796	0.097412
C	0.5851146922664392 0.4029777442395815 0.1256199298355864	0.102900
C	0.6286370754991112 0.4477610364358768 0.1235971438466827	-0.170193
C	0.7237901207489292 0.5509197420447753 0.1233672554949453	-0.116799
C	0.7689044727402421 0.5934516433794780 0.1219772495669871	-0.113641
C	0.8687594123167740 0.6793559205582381 0.1203283059957559	-0.166515
C	0.9149322077787390 0.7203504329288611 0.1237964461023771	0.097408
C	0.0851147032664437 0.9029778372395857 0.1256199298355864	0.102899
C	0.1286370334991147 0.9477609444358761 0.1235971438466827	-0.170193
C	0.2237901627489330 0.0509197890447756 0.1233672554949453	-0.116800
C	0.2689044317402420 0.0934516203794793 0.1219772495669871	-0.113651
C	0.3687594543167776 0.1793559315582353 0.1203283059957559	-0.166560
C	0.4149322077787390 0.2203505029288597 0.1237964461023771	0.097418
C	0.5851146922664392 0.5970222097604146 0.8743800471644150	0.102900
C	0.6286370754991112 0.5522390095641272 0.8764028401533163	-0.170193
C	0.7237901207489292 0.4490802109552244 0.8766327835050541	-0.116800
C	0.7689044727402421 0.4065483566205225 0.8780227894330126	-0.113641
C	0.8687594123167740 0.3206440794417621 0.8796717320042475	-0.166515
C	0.9149322077787390 0.2796495210711424 0.8762035998976194	0.097408
C	0.0851147032664437 0.0970222207604190 0.8743800471644150	0.102896
C	0.1286370334991147 0.0522389515641293 0.8764028401533163	-0.170179
C	0.2237901627489330 0.9490802579552247 0.8766327835050541	-0.116790
C	0.2689044317402420 0.9065484026205187 0.8780227894330126	-0.113651
C	0.3687594543167776 0.8206441264417622 0.8796717320042475	-0.166531
C	0.4149322077787390 0.7796496140711392 0.8762035998976194	0.097412
C	0.4148853077335609 0.4029777442395815 0.3743800781644143	0.102900
C	0.3713629665008852 0.4477610364358768 0.3764028401533159	-0.170195
C	0.2762098582510651 0.5509197420447753 0.3766327525050552	-0.116800
C	0.2310955472597599 0.5934516433794780 0.3780227274330143	-0.113651
C	0.1312405876832260 0.6793559205582381 0.3796716700042421	-0.166531
C	0.0850678072212657 0.7203504329288611 0.3762035378976213	0.097412
C	0.9148853907335570 0.9029778372395857 0.3743800781644143	0.102899
C	0.8713629245008888 0.9477609444358761 0.3764028401533159	-0.170195
C	0.7762098792510708 0.0509197890447756 0.3766327525050552	-0.116800
C	0.7310955272597579 0.0934516203794793 0.3780227274330143	-0.113651
C	0.6312405876832260 0.1793559315582353 0.3796716700042421	-0.166561
C	0.5850677922212610 0.2203505029288597 0.3762035378976213	0.097418
C	0.5851146922664392 0.4029777442395815 0.3743800781644143	0.102901
C	0.6286370754991112 0.4477610364358768 0.3764028401533159	-0.170195
C	0.7237901207489292 0.5509197420447753 0.3766327525050552	-0.116800
C	0.7689044727402421 0.5934516433794780 0.3780227274330143	-0.113641
C	0.8687594123167740 0.6793559205582381 0.3796716700042421	-0.166515
C	0.9149322077787390 0.7203504329288611 0.3762035378976213	0.097410
C	0.0851147032664437 0.9029778372395857 0.3743800781644143	0.102900
C	0.1286370334991147 0.9477609444358761 0.3764028401533159	-0.170195
C	0.2237901627489330 0.0509197890447756 0.3766327525050552	-0.116800
C	0.2689044317402420 0.0934516203794793 0.3780227274330143	-0.113651
C	0.3687594543167776 0.1793559315582353 0.3796716700042421	-0.166561
C	0.4149322077787390 0.2203505029288597 0.3762035378976213	0.097420
C	0.4148853077335609 0.5970222097604146 0.8743800471644150	0.102901
C	0.3713629665008852 0.5522390095641272 0.8764028401533163	-0.170193
C	0.2762098582510651 0.4490802109552244 0.8766327835050541	-0.116800
C	0.2310955472597599 0.4065483566205225 0.8780227894330126	-0.113651
C	0.1312405876832261 0.3206440794417621 0.8796717320042476	-0.166531
C	0.0850678072212657 0.2796495210711424 0.8762035998976194	0.097414
C	0.9148853907335570 0.0970222207604190 0.8743800471644150	0.102898
C	0.8713629245008888 0.0522389515641293 0.8764028401533163	-0.170179
C	0.7762098792510708 0.9490802579552247 0.8766327835050541	-0.116790
C	0.7310955272597579 0.9065484026205187 0.8780227894330126	-0.113651
C	0.6312405876832260 0.8206441264417622 0.8796717320042476	-0.166532
C	0.5850677922212610 0.7796496140711392 0.8762035998976194	0.097414
C	0.4148853077335609 0.4029777442395815 0.1256199298355864	0.102902
C	0.3713629665008852 0.4477610364358768 0.1235971438466827	-0.170193
C	0.2762098582510651 0.5509197420447753 0.1233672554949453	-0.116799
C	0.2310955472597599 0.5934516433794780 0.1219772495669871	-0.113651
C	0.1312405876832261 0.6793559205582381 0.1203283059957559	-0.166531
C	0.0850678072212657 0.7203504329288611 0.1237964461023771	0.097414
C	0.9148853907335570 0.9029778372395857 0.1256199298355864	0.102901
C	0.8713629245008888 0.9477609444358761 0.1235971438466827	-0.170193
C	0.7762098792510708 0.0509197890447756 0.1233672554949453	-0.116799
C	0.7310955272597579 0.0934516203794793 0.1219772495669871	-0.113651
C	0.6312405876832260 0.1793559315582353 0.1203283059957559	-0.166561
C	0.5850677922212610 0.2203505029288597 0.1237964461023771	0.097420
C	0.5851146922664392 0.5970222097604146 0.6256199218355860	0.102901
C	0.6286370754991112 0.5522390095641272 0.6235971288466847	-0.170192
C	0.7237901207489292 0.4490802109552244 0.6233672474949449	-0.116800
C	0.7689044727402421 0.4065483566205225 0.6219772415669864	-0.113641
C	0.8687594123167740 0.3206440794417621 0.6203282989957514	-0.166515
C	0.9149322077787390 0.2796495210711424 0.6237964311023796	0.097410
C	0.0851147032664437 0.0970222207604190 0.6256199218355860	0.102898
C	0.1286370334991147 0.0522389515641293 0.6235971288466847	-0.170179
C	0.2237901627489330 0.9490802579552247 0.6233672474949449	-0.116791
C	0.2689044317402420 0.9065484026205187 0.6219772415669864	-0.113651
C	0.3687594543167776 0.8206441264417622 0.6203282989957514	-0.166532
C	0.4149322077787390 0.7796496140711392 0.6237964311023796	0.097414
C	0.3471241353854801 0.5254500156447137 0.7500000149999977	0.113577
C	0.3005955918185828 0.4752825442786712 0.7500000149999977	0.065854
C	0.2057307474381581 0.3848878603362008 0.7500000149999977	0.067068
C	0.1561775084179997 0.3420053239727574 0.7500000149999977	0.102721
C	0.8471240933854834 0.0254499986447162 0.7500000149999977	0.113505
C	0.8005956538185803 0.9752824972786716 0.7500000149999977	0.065888
C	0.7057307474381581 0.8848878833361994 0.7500000149999977	0.067068
C	0.6561775084179997 0.8420052549727551 0.7500000149999977	0.102721
C	0.6528758646145202 0.4745500303552826 0.2500000000000000	0.113576
C	0.6994043461814197 0.5247174557213281 0.2500000000000000	0.065853
C	0.7942692525618419 0.6151121636638009 0.2500000000000000	0.067023
C	0.8438225325820072 0.6579946530272442 0.2500000000000000	0.102730
C	0.1528758756145176 0.9745500773552833 0.2500000000000000	0.113577
C	0.1994044291814154 0.0247174587213253 0.2500000000000000	0.065853
C	0.2942692525618421 0.1151121166638009 0.2500000000000000	0.067068
C	0.3438224915820003 0.1579946870272471 0.2500000000000000	0.102734
C	0.6528758646145202 0.5254500156447137 0.7500000149999977	0.113577
C	0.6994043461814197 0.4752825442786712 0.7500000149999977	0.065854
C	0.7942692525618419 0.3848878603362008 0.7500000149999977	0.067023
C	0.8438225325820072 0.3420053239727574 0.7500000149999977	0.102730
C	0.1528758756145176 0.0254499986447162 0.7500000149999977	0.113505
C	0.1994044291814154 0.9752824972786716 0.7500000149999977	0.065888
C	0.2942692525618421 0.8848878833361994 0.7500000149999977	0.067069
C	0.3438224915820003 0.8420052549727552 0.7500000149999977	0.102721
C	0.3471241353854801 0.4745500303552826 0.2500000000000000	0.113576
C	0.3005955918185828 0.5247174557213281 0.2500000000000000	0.065853
C	0.2057307474381581 0.6151121636638009 0.2500000000000000	0.067068
C	0.1561775084179997 0.6579946530272442 0.2500000000000000	0.102720
C	0.8471240933854834 0.9745500773552833 0.2500000000000000	0.113576
C	0.8005956538185803 0.0247174587213253 0.2500000000000000	0.065853
C	0.7057307474381581 0.1151121166638009 0.2500000000000000	0.067068
C	0.6561775084179997 0.1579946870272471 0.2500000000000000	0.102734
H	0.4324565810705364 0.6155549920594400 0.5240175474862795	0.114532
H	0.3583969509946726 0.5400369919685487 0.5156395167370178	0.106877
H	0.2915799527969946 0.4606844502746913 0.5174028001300810	0.087637
H	0.2159384354784044 0.3905556165744613 0.5165151225259804	0.103565
H	0.1471406305975168 0.3351678405912896 0.5146072041248509	0.120226
H	0.0655661081143724 0.2619766682152346 0.5238522664134934	0.112501
H	0.9324565390705329 0.1155550270594393 0.5240175474862795	0.114532
H	0.8583969099946727 0.0400369279685436 0.5156395167370178	0.106875
H	0.7915799317969966 0.9606844502746912 0.5174028001300810	0.087636
H	0.7159383934784002 0.8905555475744665 0.5165151225259804	0.103565
H	0.6471406205975159 0.8351678405912893 0.5146072041248509	0.120226
H	0.5655661391143714 0.7619766452152361 0.5238522664134934	0.112501
H	0.5675434189294636 0.3844450079405601 0.0240176094862777	0.114532
H	0.6416030490053275 0.4599630550314516 0.0156395167370175	0.106877
H	0.7084200682030034 0.5393155037253050 0.0174028621300792	0.087636
H	0.7840616065215998 0.6094443604255330 0.0165150615259787	0.103564
H	0.8528593794024841 0.6648321134087068 0.0146072041248511	0.120222
H	0.9344338198856288 0.7380233547847639 0.0238522354134947	0.112501
H	0.0675434249294640 0.8844450079405600 0.0240176094862778	0.114532
H	0.1416030900053274 0.9599630550314516 0.0156395167370175	0.106877
H	0.2084200682030037 0.0393155467253048 0.0174028621300792	0.087636
H	0.2840615645215955 0.1094443944255361 0.0165150615259787	0.103565
H	0.3528593794024837 0.1648321364087051 0.0146072041248511	0.120230
H	0.4344338608856285 0.2380233317847654 0.0238522354134947	0.112508
H	0.5675434189294636 0.6155549920594400 -0.0240175664862777	0.114532
H	0.6416030490053275 0.5400369919685487 -0.0156395437370236	0.106877
H	0.7084200682030034 0.4606844502746913 -0.0174028181300754	0.087636
H	0.7840616065215998 0.3905556165744613 -0.0165151155259762	0.103564
H	0.8528593794024841 0.3351678405912896 -0.0146072041248512	0.120222
H	0.9344338198856288 0.2619766682152346 -0.0238522734134979	0.112501
H	0.0675434249294640 0.1155550270594393 -0.0240175664862777	0.114532
H	0.1416030900053274 0.0400369279685436 -0.0156395437370236	0.106874
H	0.2084200682030037 0.9606844502746912 -0.0174028181300754	0.087635
H	0.2840615645215955 0.8905555475744665 -0.0165151155259762	0.103564
H	0.3528593794024837 0.8351678405912893 -0.0146072041248512	0.120226
H	0.4344338608856285 0.7619766452152361 -0.0238522734134979	0.112501
H	0.4324565810705364 0.3844450079405601 0.4759824215137212	0.114532
H	0.3583969509946726 0.4599630550314516 0.4843605142629814	0.106879
H	0.2915799527969946 0.5393155037253050 0.4825971688699197	0.087636
H	0.2159384354784044 0.6094443604255330 0.4834848464740206	0.103564
H	0.1471406305975168 0.6648321134087068 0.4853927648751499	0.120225
H	0.0655661081143724 0.7380233547847639 0.4761477335865064	0.112501
H	0.9324565390705329 0.8844450079405600 0.4759824215137212	0.114532
H	0.8583969099946727 0.9599630550314516 0.4843605142629814	0.106879
H	0.7915799317969966 0.0393155467253048 0.4825971688699197	0.087635
H	0.7159383934784002 0.1094443944255361 0.4834848464740206	0.103565
H	0.6471406205975159 0.1648321364087051 0.4853927648751499	0.120229
H	0.5655661391143714 0.2380233317847654 0.4761477335865063	0.112508
H	0.5675434189294636 0.3844450079405601 0.4759824215137212	0.114532
H	0.6416030490053275 0.4599630550314516 0.4843605142629814	0.106879
H	0.7084200682030034 0.5393155037253050 0.4825971688699197	0.087636
H	0.7840616065215998 0.6094443604255330 0.4834848464740206	0.103564
H	0.8528593794024841 0.6648321134087068 0.4853927648751499	0.120222
H	0.9344338198856288 0.7380233547847639 0.4761477335865064	0.112501
H	0.0675434249294640 0.8844450079405600 0.4759824215137212	0.114532
H	0.1416030900053274 0.9599630550314516 0.4843605142629814	0.106880
H	0.2084200682030037 0.0393155467253048 0.4825971688699197	0.087636
H	0.2840615645215955 0.1094443944255361 0.4834848464740206	0.103565
H	0.3528593794024837 0.1648321364087051 0.4853927648751499	0.120230
H	0.4344338608856285 0.2380233317847654 0.4761477335865064	0.112508
H	0.4324565810705364 0.6155549920594400 -0.0240175664862777	0.114532
H	0.3583969509946726 0.5400369919685487 -0.0156395437370236	0.106877
H	0.2915799527969946 0.4606844502746913 -0.0174028181300754	0.087636
H	0.2159384354784044 0.3905556165744613 -0.0165151155259762	0.103564
H	0.1471406305975168 0.3351678405912896 -0.0146072041248512	0.120226
H	0.0655661081143724 0.2619766682152346 -0.0238522734134979	0.112502
H	0.9324565390705329 0.1155550270594393 -0.0240175664862777	0.114532
H	0.8583969099946727 0.0400369279685436 -0.0156395437370236	0.106874
H	0.7915799317969966 0.9606844502746912 -0.0174028181300754	0.087635
H	0.7159383934784002 0.8905555475744665 -0.0165151155259762	0.103564
H	0.6471406205975159 0.8351678405912893 -0.0146072041248512	0.120226
H	0.5655661391143714 0.7619766452152361 -0.0238522734134979	0.112502
H	0.4324565810705364 0.3844450079405601 0.0240176094862778	0.114532
H	0.3583969509946726 0.4599630550314516 0.0156395167370175	0.106877
H	0.2915799527969946 0.5393155037253050 0.0174028621300792	0.087636
H	0.2159384354784044 0.6094443604255330 0.0165150615259787	0.103565
H	0.1471406305975168 0.6648321134087068 0.0146072041248511	0.120226
H	0.0655661081143724 0.7380233547847639 0.0238522354134947	0.112502
H	0.9324565390705329 0.8844450079405600 0.0240176094862778	0.114532
H	0.8583969099946727 0.9599630550314516 0.0156395167370175	0.106877
H	0.7915799317969966 0.0393155467253048 0.0174028621300792	0.087636
H	0.7159383934784002 0.1094443944255361 0.0165150615259787	0.103565
H	0.6471406205975159 0.1648321364087051 0.0146072041248511	0.120230
H	0.5655661391143714 0.2380233317847654 0.0238522354134947	0.112508
H	0.5675434189294636 0.6155549920594400 0.5240175474862795	0.114532
H	0.6416030490053275 0.5400369919685487 0.5156395167370178	0.106877
H	0.7084200682030034 0.4606844502746913 0.5174028001300810	0.087636
H	0.7840616065215998 0.3905556165744613 0.5165151225259804	0.103564
H	0.8528593794024841 0.3351678405912896 0.5146072041248509	0.120223
H	0.9344338198856288 0.2619766682152346 0.5238522664134934	0.112502
H	0.0675434249294640 0.1155550270594393 0.5240175474862795	0.114533
H	0.1416030900053274 0.0400369279685436 0.5156395167370178	0.106875
H	0.2084200682030037 0.9606844502746912 0.5174028001300810	0.087636
H	0.2840615645215955 0.8905555475744665 0.5165151225259804	0.103565
H	0.3528593794024837 0.8351678405912893 0.5146072041248509	0.120226
H	0.4344338608856285 0.7619766452152361 0.5238522664134934	0.112502
Zn	0.5000000000000000 0.6888082647945987 0.7500000149999977	0.752343
Zn	-0.0000000000000000 0.1888083227945958 0.7500000149999977	0.752343
Zn	0.5000000000000000 0.3111916652054033 0.2500000000000000	0.752337
Zn	-0.0000000000000000 0.8111917352054013 0.2500000000000000	0.752343
F	0.5000000000000000 0.6858453534748832 0.4478131063456993	-0.558318
F	-0.0000000000000000 0.1858453884748824 0.4478131063456993	-0.558318
F	0.5000000000000000 0.3141546235251115 0.9478131063456993	-0.558318
F	-0.0000000000000000 0.8141546465251168 0.9478131063456993	-0.558318
F	0.5000000000000000 0.6858453534748832 0.0521868796542997	-0.558318
F	-0.0000000000000000 0.1858453884748824 0.0521868796542997	-0.558318
F	0.5000000000000000 0.3141546235251115 0.5521868636542984	-0.558318
F	-0.0000000000000000 0.8141546465251168 0.5521868636542983	-0.558318
F	0.4495871266464613 0.7440806302084181 0.2500000000000000	-0.564963
F	0.5505232327145209 0.6273807828132844 0.2500000000000000	-0.558778
F	0.9495871266464614 0.2440806302084180 0.2500000000000000	-0.564963
F	0.0505232537145265 0.1273807828132846 0.2500000000000000	-0.558778
F	0.5504128323535388 0.2559193467915836 0.7500000149999977	-0.564963
F	0.4494767672854789 0.3726192171867153 0.7500000149999977	-0.558777
F	0.0504128843535432 0.7559193697915819 0.7500000149999977	-0.564962
F	0.9494767672854791 0.8726192171867156 0.7500000149999977	-0.558777
F	0.5504128323535388 0.7440806302084181 0.2500000000000000	-0.564963
F	0.4494767672854789 0.6273807828132844 0.2500000000000000	-0.558778
F	0.0504128843535432 0.2440806302084180 0.2500000000000000	-0.564963
F	0.9494767672854791 0.1273807828132846 0.2500000000000000	-0.558777
F	0.4495871266464613 0.2559193467915837 0.7500000149999977	-0.564963
F	0.5505232327145209 0.3726192171867153 0.7500000149999977	-0.558777
F	0.9495871266464614 0.7559193697915819 0.7500000149999977	-0.564962
F	0.0505232537145265 0.8726192171867156 0.7500000149999977	-0.558777
N	0.4371580641409983 0.6190552536197639 0.7500000149999977	-0.228186
N	0.5626133774689955 0.7592206800550536 0.7500000149999977	-0.239230
N	0.9371580231409917 0.1190552416197625 0.7500000149999977	-0.228185
N	0.0626133514689935 0.2592206570550481 0.7500000149999977	-0.239231
N	0.5628419358590013 0.3809447463802363 0.2500000000000000	-0.228185
N	0.4373866225310044 0.2407793429449518 0.2500000000000000	-0.239215
N	0.0628419358590014 0.8809447463802362 0.2500000000000000	-0.228186
N	0.9373866635310043 0.7407793199449464 0.2500000000000000	-0.239229
N	0.5628419358590013 0.6190552536197638 0.7500000149999977	-0.228186
N	0.4373866225310044 0.7592206800550536 0.7500000149999977	-0.239230
N	0.0628419358590014 0.1190552416197626 0.7500000149999977	-0.228185
N	0.9373866635310043 0.2592206570550481 0.7500000149999977	-0.239230
N	0.4371580641409983 0.3809447463802363 0.2500000000000000	-0.228185
N	0.5626133774689955 0.2407793429449518 0.2500000000000000	-0.239215
N	0.9371580231409917 0.8809447463802362 0.2500000000000000	-0.228186
N	0.0626133514689935 0.7407793199449464 0.2500000000000000	-0.239230
Si	0.5000000000000000 0.6856921747256332 0.2500000000000000	1.734266
Si	-0.0000000000000000 0.1856921987256350 0.2500000000000000	1.734266
Si	0.5000000000000000 0.3143077782743667 0.7500000149999977	1.734266
Si	-0.0000000000000000 0.8143078252743668 0.7500000149999977	1.734266
	  	
