#======================================================================

# CRYSTAL DATA

#----------------------------------------------------------------------

data_VESTA_phase_1


_pd_phase_name                         SIFSIX_3_Zn
_cell_length_a                         14.26974
_cell_length_b                         14.26974
_cell_length_c                         7.60869
_cell_angle_alpha                      90
_cell_angle_beta                       90
_cell_angle_gamma                      90
_symmetry_space_group_name_H-M         P 1
_symmetry_Int_Tables_number            1

loop_
_symmetry_equiv_pos_as_xyz
   x, y, z

loop_
   _atom_site_label
   _atom_site_fract_x
   _atom_site_fract_y
   _atom_site_fract_z
   _atom_site_charge
C	0.2714318623208950 0.4511934991448449 0.6461935340394797	0.062913
C	0.2285681376791050 0.0488065048551555 0.6461935340394797	0.062913
C	0.2285681376791050 0.4511934991448449 0.3538064339605178	0.062916
C	0.2714318623208950 0.0488065048551555 0.3538064339605178	0.062917
C	0.0488065048551555 0.2714318623208950 0.3538064339605178	0.062919
C	0.4511934991448449 0.2285681376791050 0.3538064339605178	0.062919
C	0.4511934991448449 0.2714318623208950 0.6461935340394797	0.062922
C	0.0488065048551555 0.2285681376791050 0.6461935340394797	0.062922
C	0.9511934311448463 0.2285681376791050 0.6461935340394797	0.062932
C	0.5488065688551537 0.2714318623208950 0.6461935340394797	0.062933
C	0.5488065688551537 0.2285681376791050 0.3538064339605178	0.062935
C	0.9511934311448463 0.2714318623208950 0.3538064339605178	0.062934
C	0.7285681546791029 0.0488065048551555 0.3538064339605178	0.062919
C	0.7714318453208971 0.4511934991448449 0.3538064339605178	0.062919
C	0.7714318453208971 0.0488065048551555 0.6461935340394797	0.062923
C	0.7285681546791029 0.4511934991448449 0.6461935340394797	0.062922
C	0.4511934991448449 0.7285681546791029 0.6461935340394797	0.062914
C	0.0488065048551555 0.7714318453208971 0.6461935340394797	0.062915
C	0.0488065048551555 0.7285681546791029 0.3538064339605178	0.062918
C	0.4511934991448449 0.7714318453208971 0.3538064339605178	0.062917
C	0.2285681376791050 0.5488065688551537 0.3538064339605178	0.062938
C	0.2714318623208950 0.9511934311448463 0.3538064339605178	0.062937
C	0.2714318623208950 0.5488065688551537 0.6461935340394797	0.062940
C	0.2285681376791050 0.9511934311448463 0.6461935340394797	0.062939
C	0.7714318453208971 0.9511934311448463 0.6461935340394797	0.062932
C	0.7285681546791029 0.5488065688551537 0.6461935340394797	0.062933
C	0.7285681546791029 0.9511934311448463 0.3538064339605178	0.062934
C	0.7714318453208971 0.5488065688551537 0.3538064339605178	0.062935
C	0.5488065688551537 0.7714318453208971 0.3538064339605178	0.062937
C	0.9511934311448463 0.7285681546791029 0.3538064339605178	0.062937
C	0.9511934311448463 0.7714318453208971 0.6461935340394797	0.062939
C	0.5488065688551537 0.7285681546791029 0.6461935340394797	0.062940
H	0.2881936389974784 0.4120532810535620 0.7652849142745221	0.115320
H	0.2118063270025189 0.0879467189464380 0.7652849142745221	0.115320
H	0.2118063270025189 0.4120532810535620 0.2347150547254788	0.115319
H	0.2881936389974784 0.0879467189464380 0.2347150547254788	0.115319
H	0.0879467189464380 0.2881936389974784 0.2347150547254788	0.115318
H	0.4120532810535620 0.2118063270025189 0.2347150547254788	0.115318
H	0.4120532810535620 0.2881936389974784 0.7652849142745221	0.115317
H	0.0879467189464380 0.2118063270025189 0.7652849142745221	0.115317
H	0.9120533490535675 0.2118063270025189 0.7652849142745221	0.115315
H	0.5879466509464325 0.2881936389974784 0.7652849142745221	0.115315
H	0.5879466509464325 0.2118063270025189 0.2347150547254788	0.115315
H	0.9120533490535675 0.2881936389974784 0.2347150547254788	0.115314
H	0.7118062930025233 0.0879467189464380 0.2347150547254788	0.115318
H	0.7881937069974767 0.4120532810535620 0.2347150547254788	0.115318
H	0.7881937069974767 0.0879467189464380 0.7652849142745221	0.115317
H	0.7118062930025233 0.4120532810535620 0.7652849142745221	0.115317
H	0.4120532810535620 0.7118062930025233 0.7652849142745221	0.115320
H	0.0879467189464380 0.7881937069974767 0.7652849142745221	0.115320
H	0.0879467189464380 0.7118062930025233 0.2347150547254788	0.115319
H	0.4120532810535620 0.7881937069974767 0.2347150547254788	0.115319
H	0.2118063270025189 0.5879466509464325 0.2347150547254788	0.115313
H	0.2881936389974784 0.9120533490535675 0.2347150547254788	0.115313
H	0.2881936389974784 0.5879466509464325 0.7652849142745221	0.115312
H	0.2118063270025189 0.9120533490535675 0.7652849142745221	0.115312
H	0.7881937069974767 0.9120533490535675 0.7652849142745221	0.115314
H	0.7118062930025233 0.5879466509464325 0.7652849142745221	0.115315
H	0.7118062930025233 0.9120533490535675 0.2347150547254788	0.115314
H	0.7881937069974767 0.5879466509464325 0.2347150547254788	0.115314
H	0.5879466509464325 0.7881937069974767 0.2347150547254788	0.115313
H	0.9120533490535675 0.7118062930025233 0.2347150547254788	0.115313
H	0.9120533490535675 0.7881937069974767 0.7652849142745221	0.115312
H	0.5879466509464325 0.7118062930025233 0.7652849142745221	0.115312
Zn	0.2500000000000000 0.2500000000000000 0.5000000000000000	0.733945
Zn	0.7500000340000028 0.2500000000000000 0.5000000000000000	0.733946
Zn	0.2500000000000000 0.7500000340000028 0.5000000000000000	0.733947
Zn	0.7500000340000028 0.7500000340000028 0.5000000000000000	0.733947
Si	0.2500000000000000 0.2500000000000000 0.0000000000000000	1.715990
Si	0.7500000340000028 0.2500000000000000 0.0000000000000000	1.715990
Si	0.2500000000000000 0.7500000340000028 0.0000000000000000	1.715990
Si	0.7500000340000028 0.7500000340000028 0.0000000000000000	1.715990
F	0.2500000000000000 0.2500000000000000 0.7693265992353432	-0.497891
F	0.2500000000000000 0.2500000000000000 0.2306734007646569	-0.497891
F	0.3341336009002644 0.3341336009002644 -0.0010305848145013	-0.528682
F	0.1658663990997355 0.1658663990997355 -0.0010305848145013	-0.528680
F	0.1658663990997355 0.3341336009002644 0.0010306058144995	-0.528681
F	0.3341336009002644 0.1658663990997355 0.0010306058144995	-0.528681
F	0.7500000340000028 0.2500000000000000 0.7693265992353432	-0.497891
F	0.7500000340000028 0.2500000000000000 0.2306734007646569	-0.497891
F	0.8341336349002675 0.3341336009002644 0.0010306058144995	-0.528680
F	0.6658663650997325 0.1658663990997355 0.0010306058144995	-0.528678
F	0.6658663650997325 0.3341336009002644 -0.0010305848145013	-0.528679
F	0.8341336349002675 0.1658663990997355 -0.0010305848145013	-0.528680
F	0.2500000000000000 0.7500000340000028 0.7693265992353432	-0.497891
F	0.2500000000000000 0.7500000340000028 0.2306734007646569	-0.497891
F	0.3341336009002644 0.8341336349002675 0.0010306058144995	-0.528680
F	0.1658663990997355 0.6658663650997325 0.0010306058144995	-0.528678
F	0.1658663990997355 0.8341336349002675 -0.0010305848145013	-0.528680
F	0.3341336009002644 0.6658663650997325 -0.0010305848145013	-0.528679
F	0.7500000340000028 0.7500000340000028 0.7693265992353432	-0.497891
F	0.7500000340000028 0.7500000340000028 0.2306734007646569	-0.497891
F	0.8341336349002675 0.8341336349002675 -0.0010305848145013	-0.528680
F	0.6658663650997325 0.6658663650997325 -0.0010305848145013	-0.528677
F	0.6658663650997325 0.8341336349002675 0.0010306058144995	-0.528678
F	0.8341336349002675 0.6658663650997325 0.0010306058144995	-0.528678
N	0.4026190152426604 0.2500000000000000 0.5000000000000000	-0.191343
N	0.0973809847573396 0.2500000000000000 0.5000000000000000	-0.191342
N	0.2500000000000000 0.4026190152426604 0.5000000000000000	-0.191343
N	0.2500000000000000 0.0973809847573396 0.5000000000000000	-0.191343
N	0.9026190152426604 0.2500000000000000 0.5000000000000000	-0.191346
N	0.5973809847573396 0.2500000000000000 0.5000000000000000	-0.191345
N	0.7500000340000028 0.4026190152426604 0.5000000000000000	-0.191345
N	0.7500000340000028 0.0973809847573396 0.5000000000000000	-0.191344
N	0.4026190152426604 0.7500000340000028 0.5000000000000000	-0.191342
N	0.0973809847573396 0.7500000340000028 0.5000000000000000	-0.191341
N	0.2500000000000000 0.9026190152426604 0.5000000000000000	-0.191349
N	0.2500000000000000 0.5973809847573396 0.5000000000000000	-0.191349
N	0.9026190152426604 0.7500000340000028 0.5000000000000000	-0.191347
N	0.5973809847573396 0.7500000340000028 0.5000000000000000	-0.191346
N	0.7500000340000028 0.9026190152426604 0.5000000000000000	-0.191348
N	0.7500000340000028 0.5973809847573396 0.5000000000000000	-0.191347
	  	
