#======================================================================

# CRYSTAL DATA

#----------------------------------------------------------------------

data_VESTA_phase_1


_pd_phase_name                         SIFSIX_18_Cu
_cell_length_a                         13.75251
_cell_length_b                         13.58640
_cell_length_c                         8.35338
_cell_angle_alpha                      90
_cell_angle_beta                       94.85636
_cell_angle_gamma                      90
_symmetry_space_group_name_H-M         P 1
_symmetry_Int_Tables_number            1

loop_
_symmetry_equiv_pos_as_xyz
   x, y, z

loop_
   _atom_site_label
   _atom_site_fract_x
   _atom_site_fract_y
   _atom_site_fract_z
   _atom_site_charge
F	0.4142484917944979 0.3687035406364422 0.5148062724673470	-0.542936
F	0.5228799349320700 0.4615574584120226 0.7068270808975093	-0.526433
F	0.4122087874194839 0.5472078408201047 0.5152294311618183	-0.508947
F	0.9142485257944941 0.8687034716364398 0.5148062724673470	-0.542943
F	0.0228799609320652 0.9615574234120231 0.7068270808975093	-0.526435
F	0.9122088214194872 0.0472078068201091 0.5152294311618183	-0.508951
F	0.5857514712055021 0.3687035406364422 0.4851937275326534	-0.542947
F	0.4771200620679328 0.4615574584120226 0.2931729191024905	-0.526431
F	0.5877912085805153 0.5472078408201047 0.4847705698381849	-0.508947
F	0.0857514922055004 0.8687034716364398 0.4851937275326534	-0.542944
F	0.9771199270679328 0.9615574234120231 0.2931729191024905	-0.526435
F	0.0877911835805172 0.0472078068201091 0.4847705698381849	-0.508951
C	0.6909867053297647 0.1671561157327319 0.6540687668005432	-0.428305
C	0.7632213382298444 0.1576765981027181 0.7964582417448853	0.213224
C	0.7642834443346425 0.1988830657162795 0.9505809574951788	-0.149074
C	0.6917070620643211 0.2639686021455637 0.0117409290058487	-0.144805
C	0.6733821397950094 0.3634078838963712 0.9676418268904841	0.225622
C	0.7281475269858445 0.4252488204532823 0.8586607632899730	-0.435872
C	0.8892730832283137 0.1900209717928981 0.2027349705896692	-0.441458
C	0.8515670983500121 0.1653846750686784 0.0352812248385273	0.213428
C	0.6270391069252869 0.2421360890156546 0.1281433845323420	0.218947
C	0.6107025106912527 0.1507372974616987 0.2204732022711002	-0.429170
C	0.1909867553297614 0.6671561677327290 0.6540687668005433	-0.428319
C	0.2632213722298470 0.6576765811027139 0.7964582417448853	0.213231
C	0.2642834103346399 0.6988830317162773 0.9505809574951788	-0.149082
C	0.1917070620643207 0.7639686191455619 0.0117409290058487	-0.144804
C	0.1733821227950043 0.8634079178963742 0.9676418268904841	0.225621
C	0.2281475429858383 0.9252487854532833 0.8586607632899730	-0.435872
C	0.3892729822283091 0.6900208857928984 0.2027349705896692	-0.441473
C	0.3515671663500109 0.6653846750686786 0.0352812248385273	0.213480
C	0.1270390819252882 0.7421360030156549 0.1281433845323420	0.218947
C	0.1107025946912518 0.6507373664617007 0.2204732022711002	-0.429170
C	0.3090132916702389 0.1671561157327318 0.3459312341994599	-0.428302
C	0.2367786547701517 0.1576765981027181 0.2035416782551150	0.213224
C	0.2357165846653560 0.1988830657162795 0.0494190185048264	-0.149075
C	0.3082929339356795 0.2639686021455637 0.9882590619941538	-0.144805
C	0.3266179262049964 0.3634078838963712 0.0323582241095166	0.225621
C	0.2718524880141607 0.4252488204532823 0.1413392527100276	-0.435871
C	0.1107269997716894 0.1900209717928981 0.7972650774103345	-0.441460
C	0.1484328806499896 0.1653846750686784 0.9647187631614721	0.213428
C	0.3729609240747125 0.2421360890156546 0.8718566394676528	0.218946
C	0.3892974153087491 0.1507372974616987 0.7795267187289050	-0.429167
C	0.8090132916702386 0.6671561677327290 0.3459312341994599	-0.428316
C	0.7367786547701515 0.6576765811027139 0.2035416782551149	0.213231
C	0.7357165506653607 0.6988830317162773 0.0494190185048264	-0.149083
C	0.8082929339356786 0.7639686191455619 0.9882590619941538	-0.144804
C	0.8266178592049941 0.8634079178963742 0.0323582241095167	0.225621
C	0.7718524710141553 0.9252487854532833 0.1413392527100276	-0.435872
C	0.6107269157716898 0.6900208857928984 0.7972650774103345	-0.441503
C	0.6484328976499876 0.6653846750686786 0.9647187631614721	0.213488
C	0.8729608900747093 0.7421360030156549 0.8718566394676528	0.218946
C	0.8892974823087503 0.6507373664617007 0.7795267187289050	-0.429168
H	0.7272888550213400 0.1789406425657066 0.5436053897964364	0.151134
H	0.6420465291928599 0.2296827609678216 0.6680065382577998	0.153731
H	0.6465027669281891 0.0999915425344367 0.6371382449369282	0.133796
H	0.6796959744305274 0.4589409788261595 0.7632220166000639	0.155164
H	0.7819081206326787 0.3798126770765557 0.8029436835003219	0.137805
H	0.7672665610626743 0.4841969421353733 0.9275860151149607	0.128411
H	0.8720044203408357 0.0690671805210510 0.6967805817852436	0.287967
H	0.8910195192973078 0.1261935205716035 0.2834242092598272	0.152690
H	0.8427162716923997 0.2466938340043584 0.2503636501986966	0.137363
H	0.9641729894211370 0.2184495022993493 0.2059772107799382	0.144309
H	0.5789392319414676 0.1682608377271367 0.3332539916784452	0.149400
H	0.6793944728955772 0.1110578187751260 0.2488542615581256	0.150521
H	0.5604745571025714 0.1005188558041833 0.1509445833138331	0.135112
H	0.5296480635253854 0.3423736146541638 0.2325583126021719	0.284742
H	0.2272889060213411 0.6789405395657087 0.5436053897964364	0.151137
H	0.1420466131928594 0.7296826919678193 0.6680065382577998	0.153733
H	0.1465028169281865 0.5999914825344318 0.6371382449369282	0.133802
H	0.1796959914305251 0.9589409108261538 0.7632220166000639	0.155163
H	0.2819081546326822 0.8798127110765581 0.8029436835003219	0.137805
H	0.2672665940626741 0.9841969421353731 0.9275860151149607	0.128411
H	0.3720043863408409 0.5690672235210511 0.6967805817852436	0.287967
H	0.3910195862973100 0.6261934865716006 0.2834242092598272	0.152693
H	0.3427162036924015 0.7466938690043577 0.2503636501986966	0.137364
H	0.4641730564211323 0.7184495532993428 0.2059772107799382	0.144313
H	0.0789392239414672 0.6682608547271344 0.3332539916784452	0.149400
H	0.1793944388955755 0.6110577757751260 0.2488542615581256	0.150521
H	0.0604745931025745 0.6005188038041863 0.1509445833138331	0.135113
H	0.0296480485253881 0.8423736146541632 0.2325583126021719	0.284743
H	0.2727110759786643 0.1789406425657066 0.4563946422035594	0.151134
H	0.3579533698071355 0.2296827609678216 0.3319935267422028	0.153726
H	0.3534971620718149 0.0999915425344367 0.3628617550630713	0.133798
H	0.3203040205694755 0.4589409788261595 0.2367779513999406	0.155163
H	0.2180918743673170 0.3798126770765557 0.1970562844996758	0.137808
H	0.2327334349373319 0.4841969421353733 0.0724139578850401	0.128409
H	0.1279955806591604 0.0690671805210510 0.3032193232147518	0.287967
H	0.1089804037026891 0.1261935205716035 0.7165758227401748	0.152691
H	0.1572837923075985 0.2466938340043584 0.7496363498013039	0.137365
H	0.0358269395788672 0.2184495022993493 0.7940228212200573	0.144313
H	0.4210607980585345 0.1682608377271367 0.6667460083215546	0.149396
H	0.3206055891044268 0.1110578187751260 0.7511456904418701	0.150520
H	0.4395254078974288 0.1005188558041833 0.8490554566861699	0.135108
H	0.4703518974746145 0.3423736146541638 0.7674416403978276	0.284741
H	0.7727111429786598 0.6789405395657087 0.4563946422035594	0.151137
H	0.8579534708071401 0.7296826919678193 0.3319935267422028	0.153729
H	0.8534971620718157 0.5999914825344318 0.3628617550630713	0.133804
H	0.8203040205694757 0.9589409108261538 0.2367779513999406	0.155163
H	0.7180918743673174 0.8798127110765581 0.1970562844996758	0.137808
H	0.7327334349373325 0.9841969421353731 0.0724139578850401	0.128409
H	0.6279955716591636 0.5690672235210511 0.3032193232147518	0.287967
H	0.6089805127026877 0.6261934865716006 0.7165758227401748	0.152708
H	0.6572837253075965 0.7466938690043577 0.7496363498013039	0.137371
H	0.5358269755788637 0.7184495532993428 0.7940228212200573	0.144321
H	0.9210607310585329 0.6682608547271344 0.6667460083215546	0.149397
H	0.8206055221044259 0.6110577757751260 0.7511456904418701	0.150520
H	0.9395254078974292 0.6005188038041863 0.8490554566861699	0.135108
H	0.9703518634746192 0.8423736146541632 0.7674416403978276	0.284742
N	0.8447825409048432 0.1023458975082938 0.7955832381504826	-0.146199
N	0.6005578894362257 0.3985016878169259 0.0497847287816793	-0.239563
N	0.8994055653614336 0.1066424684878228 0.9384570167560731	-0.241324
N	0.5740649819711671 0.3241672783518948 0.1448359354569169	-0.148385
N	0.3447825409048423 0.6023458205082979 0.7955832381504826	-0.146201
N	0.1005579564362279 0.8985016878169259 0.0497847287816793	-0.239561
N	0.3994055993614360 0.6066425194878232 0.9384570167560731	-0.241363
N	0.0740649739711657 0.8241672433518951 0.1448359354569169	-0.148384
N	0.1552174410951557 0.1023458975082938 0.2044168098495138	-0.146199
N	0.3994420045637724 0.3985016878169259 0.9502152472183186	-0.239563
N	0.1005944046385641 0.1066424684878229 0.0615429632439250	-0.241323
N	0.4259350150288371 0.3241672783518948 0.8551640805430847	-0.148383
N	0.6552174580951532 0.6023458205082979 0.2044168098495137	-0.146201
N	0.8994421055637775 0.8985016878169259 0.9502152472183186	-0.239560
N	0.6005944296385696 0.6066425194878232 0.0615429632439249	-0.241363
N	0.9259350490288319 0.8241672433518951 0.8551640805430847	-0.148384
Si	0.4999999979999998 0.4574715012829064 0.5000000000000000	1.699597
Si	0.0000000000000000 0.9574715012829063 0.5000000000000000	1.699612
Cu	0.5000000000000000 0.5053946719522810 -0.0000000000000000	0.718617
Cu	0.0000000000000000 0.0053946789522850 -0.0000000000000000	0.718619
	  	
