#======================================================================

# CRYSTAL DATA

#----------------------------------------------------------------------

data_VESTA_phase_1


_pd_phase_name                         SIFSIX_7_Zn
_cell_length_a                         19.23995
_cell_length_b                         19.23995
_cell_length_c                         7.84115
_cell_angle_alpha                      90
_cell_angle_beta                       90
_cell_angle_gamma                      90
_symmetry_space_group_name_H-M         P 1
_symmetry_Int_Tables_number            1

loop_
_symmetry_equiv_pos_as_xyz
   x, y, z

loop_
   _atom_site_label
   _atom_site_fract_x
   _atom_site_fract_y
   _atom_site_fract_z
   _atom_site_charge
C	0.6649288026432906 0.8724585940266165 0.7004083190741137	0.103470
C	0.6141532857115313 0.9237646882293761 0.7050437563135261	-0.178763
C	0.5786833300679096 0.8883367306527652 0.4249012711091852	-0.173502
C	0.6301342117885158 0.8378614776743836 0.4298493914677410	0.098216
C	0.8350711973567094 0.6275414059733835 0.7004083190741137	0.103471
C	0.8858467642884658 0.5762353627706246 0.7050437563135261	-0.178779
C	0.9213165689320927 0.6116633203472284 0.4249012711091852	-0.173529
C	0.8698657882114842 0.6621385223256164 0.4298493914677410	0.098222
C	0.6275414059733835 0.6649288026432906 0.7004083190741137	0.103470
C	0.5762353627706246 0.6141532857115313 0.7050437563135261	-0.178779
C	0.6116633203472284 0.5786833300679096 0.4249012711091852	-0.173519
C	0.6621385223256164 0.6301342117885158 0.4298493914677410	0.098217
C	0.8724585940266165 0.8350711973567094 0.7004083190741137	0.103470
C	0.9237646882293761 0.8858467642884658 0.7050437563135261	-0.178764
C	0.8883367306527652 0.9213165689320927 0.4249012711091852	-0.173512
C	0.8378614776743836 0.8698657882114842 0.4298493914677410	0.098221
C	0.3350711723567109 0.3724585440266124 0.2995917109258889	0.103471
C	0.3858467142884686 0.4237646882293760 0.2949562736864765	-0.178764
C	0.4213166699320901 0.3883366796527715 0.5750987288908144	-0.173512
C	0.3698657372114904 0.3378614776743838 0.5701506385322619	0.098220
C	0.1649288276432892 0.1275414429733901 0.2995917109258889	0.103470
C	0.1141532857115313 0.0762353117706240 0.2949562736864765	-0.178763
C	0.0786833110679047 0.1116633203472285 0.5750987288908144	-0.173511
C	0.1301342627885094 0.1621385103256153 0.5701506385322619	0.098221
C	0.3724585440266124 0.1649288276432892 0.2995917109258889	0.103470
C	0.4237646882293760 0.1141532857115313 0.2949562736864765	-0.178763
C	0.3883366796527715 0.0786833110679047 0.5750987288908144	-0.173511
C	0.3378614776743838 0.1301342627885094 0.5701506385322619	0.098221
C	0.1275414429733901 0.3350711723567109 0.2995917109258889	0.103471
C	0.0762353117706240 0.3858467142884686 0.2949562736864765	-0.178763
C	0.1116633203472285 0.4213166699320901 0.5750987288908144	-0.173512
C	0.1621385103256153 0.3698657372114904 0.5701506385322619	0.098220
C	0.4332131545094181 0.0696939436840685 0.4351400244488307	0.139656
C	0.4871495174889645 0.0165332992095938 0.4306638018363474	-0.121515
C	0.0667868454905818 0.4303060493159343 0.4351400244488307	0.139659
C	0.0128504505110331 0.4834666367904081 0.4306638018363474	-0.121534
C	0.4303060493159343 0.4332131545094181 0.4351400244488307	0.139660
C	0.4834666367904081 0.4871495174889645 0.4306638018363474	-0.121543
C	0.0696939436840685 0.0667868454905818 0.4351400244488307	0.139656
C	0.0165332992095938 0.0128504505110331 0.4306638018363474	-0.121507
C	0.5667868454905816 0.5696939506840656 0.5648599755511694	0.139712
C	0.5128505335110293 0.5165333132095877 0.5693362271636514	-0.121487
C	0.9332131045094214 0.9303059993159303 0.5648599755511694	0.139654
C	0.9871495174889643 0.9834667377904129 0.5693362271636514	-0.121499
C	0.5696939506840656 0.9332131045094214 0.5648599755511694	0.139649
C	0.5165333132095877 0.9871495174889643 0.5693362271636514	-0.121495
C	0.9303059993159303 0.5667868454905816 0.5648599755511694	0.139717
C	0.9834667377904129 0.5128505335110293 0.5693362271636514	-0.121492
H	0.6990562921937589 0.8633292915217459 0.8087535052891638	0.107528
H	0.6092855813664271 0.9566283229752032 0.8177002087731197	0.115716
H	0.5450235262906581 0.8914395615313119 0.3133458673529640	0.116237
H	0.6388536197598477 0.8031044441056494 0.3223495337802985	0.107806
H	0.8009437078062411 0.6366707084782540 0.8087535052891638	0.107528
H	0.8907144186335729 0.5433717280247975 0.8177002087731197	0.115718
H	0.9549765247093426 0.6085604894686888 0.3133458673529640	0.116239
H	0.8611463802401523 0.6968955558943506 0.3223495337802985	0.107805
H	0.6366707084782541 0.6990562921937589 0.8087535052891638	0.107528
H	0.5433717280247975 0.6092855813664271 0.8177002087731197	0.115717
H	0.6085604894686888 0.5450235262906581 0.3133458673529640	0.116238
H	0.6968955558943506 0.6388536197598477 0.3223495337802985	0.107806
H	0.8633292915217460 0.8009437078062411 0.8087535052891638	0.107528
H	0.9566283229752032 0.8907144186335729 0.8177002087731197	0.115716
H	0.8914395615313119 0.9549765247093426 0.3133458673529640	0.116237
H	0.8031044441056494 0.8611463802401523 0.3223495337802985	0.107805
H	0.3009437338062436 0.3633292155217469 0.1912464797108384	0.107529
H	0.3907143426335665 0.4566282719752027 0.1822997472268768	0.115716
H	0.4549765247093426 0.3914395615313117 0.6866541026470405	0.116238
H	0.3611464052401573 0.3031044701056514 0.6776504662197018	0.107807
H	0.1990562791937539 0.1366708104782554 0.1912464797108384	0.107529
H	0.1092856323664277 0.0433717440247986 0.1822997472268768	0.115716
H	0.0450234692906567 0.1085604644686905 0.6866541026470405	0.116238
H	0.1388536197598483 0.1968955178943475 0.6776504662197018	0.107805
H	0.3633292155217469 0.1990562791937539 0.1912464797108384	0.107528
H	0.4566282719752027 0.1092856323664277 0.1822997472268768	0.115716
H	0.3914395615313117 0.0450234692906567 0.6866541026470405	0.116238
H	0.3031044701056514 0.1388536197598483 0.6776504662197018	0.107805
H	0.1366708104782554 0.3009437338062436 0.1912464797108384	0.107529
H	0.0433717440247986 0.3907143426335665 0.1822997472268768	0.115716
H	0.1085604644686905 0.4549765247093426 0.6866541026470405	0.116238
H	0.1968955178943475 0.3611464052401573 0.6776504662197018	0.107807
H	0.5058725133829296 0.0019563655872960 0.3037521378548128	0.101995
H	0.9941275376170711 0.4980436064127017 0.3037521378548128	0.101996
H	0.4980436064127017 0.5058725133829296 0.3037521378548128	0.102000
H	0.0019563655872960 0.9941275376170711 0.3037521378548128	0.101991
H	0.4941274866170706 0.5019563435873011 0.6962478921451826	0.101971
H	0.0058725043829323 0.9980436064127018 0.6962478921451826	0.101995
H	0.5019563435873011 0.0058725043829323 0.6962478921451826	0.101994
H	0.9980436064127018 0.4941274866170706 0.6962478921451826	0.101972
Zn	0.2500000000000000 0.2500000000000000 0.4343570624323900	0.732355
Zn	0.7500000000000000 0.7500000000000000 0.5656429375676100	0.732354
Si	0.2500000000000000 0.2500000000000000 0.9359508305961886	1.728952
Si	0.7500000000000000 0.7500000000000000 0.0640491544038137	1.729016
F	0.2500000000000000 0.2500000000000000 0.1614934004502704	-0.503531
F	0.2500000000000000 0.2500000000000000 0.7103734735320729	-0.503971
F	0.7500000000000000 0.7500000000000000 0.8385066295497319	-0.503531
F	0.7500000000000000 0.7500000000000000 0.2896265264679270	-0.503975
F	0.3132245045390732 0.3117690219190480 0.9360911413520064	-0.548358
F	0.1867755204609254 0.1882310030809506 0.9360911413520064	-0.548375
F	0.1882310030809506 0.3132245045390732 0.9360911413520064	-0.548364
F	0.3117690219190480 0.1867755204609254 0.9360911413520064	-0.548369
F	0.6867755204609255 0.8117690219190475 0.0639088586479938	-0.548380
F	0.8132244795390745 0.6882309780809525 0.0639088586479938	-0.548380
F	0.8117690219190475 0.8132244795390745 0.0639088586479938	-0.548380
F	0.6882309780809525 0.6867755204609255 0.0639088586479938	-0.548380
N	0.3300787480635360 0.1727140432269688 0.4348500782267601	-0.231934
N	0.1699212769364624 0.3272859817730298 0.4348500782267601	-0.231934
N	0.3272859817730298 0.3300787480635360 0.4348500782267601	-0.231934
N	0.1727140432269688 0.1699212769364624 0.4348500782267601	-0.231934
N	0.6699212519364638 0.6727140182269705 0.5651499217732399	-0.231933
N	0.8300787480635362 0.8272859817730295 0.5651499217732399	-0.231934
N	0.6727140182269705 0.8300787480635362 0.5651499217732399	-0.231933
N	0.8272859817730295 0.6699212519364638 0.5651499217732399	-0.231934
	  	
