#======================================================================

# CRYSTAL DATA

#----------------------------------------------------------------------

data_VESTA_phase_1


_pd_phase_name                         SIFSIX_3_Cu
_cell_length_a                         13.79032
_cell_length_b                         13.79032
_cell_length_c                         7.77505
_cell_angle_alpha                      90
_cell_angle_beta                       90
_cell_angle_gamma                      90
_symmetry_space_group_name_H-M         P 1
_symmetry_Int_Tables_number            1

loop_
_symmetry_equiv_pos_as_xyz
   x, y, z

loop_
   _atom_site_label
   _atom_site_fract_x
   _atom_site_fract_y
   _atom_site_fract_z
   _atom_site_charge
C	0.2708344551008490 0.4495019371359724 0.6437302513717421	0.066408
C	0.2291655448991510 0.0504980668640279 0.6437302513717421	0.066409
C	0.2291655448991510 0.4495019371359724 0.3562697166282553	0.066411
C	0.2708344551008490 0.0504980668640279 0.3562697166282553	0.066412
C	0.0504980668640279 0.2708344551008490 0.3562697166282553	0.066415
C	0.4495019371359724 0.2291655448991510 0.3562697166282553	0.066415
C	0.4495019371359724 0.2708344551008490 0.6437302513717421	0.066418
C	0.0504980668640279 0.2291655448991510 0.6437302513717421	0.066418
C	0.9495018691359738 0.2291655448991510 0.6437302513717421	0.066427
C	0.5504981308640262 0.2708344551008490 0.6437302513717421	0.066427
C	0.5504981308640262 0.2291655448991510 0.3562697166282553	0.066430
C	0.9495018691359738 0.2708344551008490 0.3562697166282553	0.066429
C	0.7291655618991487 0.0504980668640279 0.3562697166282553	0.066415
C	0.7708344381008513 0.4495019371359724 0.3562697166282553	0.066415
C	0.7708344381008513 0.0504980668640279 0.6437302513717421	0.066418
C	0.7291655618991487 0.4495019371359724 0.6437302513717421	0.066418
C	0.4495019371359724 0.7291655618991487 0.6437302513717421	0.066409
C	0.0504980668640279 0.7708344381008513 0.6437302513717421	0.066410
C	0.0504980668640279 0.7291655618991487 0.3562697166282553	0.066412
C	0.4495019371359724 0.7708344381008513 0.3562697166282553	0.066412
C	0.2291655448991510 0.5504981308640262 0.3562697166282553	0.066433
C	0.2708344551008490 0.9495018691359738 0.3562697166282553	0.066433
C	0.2708344551008490 0.5504981308640262 0.6437302513717421	0.066436
C	0.2291655448991510 0.9495018691359738 0.6437302513717421	0.066435
C	0.7708344381008513 0.9495018691359738 0.6437302513717421	0.066427
C	0.7291655618991487 0.5504981308640262 0.6437302513717421	0.066427
C	0.7291655618991487 0.9495018691359738 0.3562697166282553	0.066429
C	0.7708344381008513 0.5504981308640262 0.3562697166282553	0.066430
C	0.5504981308640262 0.7708344381008513 0.3562697166282553	0.066433
C	0.9495018691359738 0.7291655618991487 0.3562697166282553	0.066432
C	0.9495018691359738 0.7708344381008513 0.6437302513717421	0.066435
C	0.5504981308640262 0.7291655618991487 0.6437302513717421	0.066436
H	0.2869686828399217 0.4095727145333584 0.7613041545154603	0.123187
H	0.2130312831600756 0.0904272854666417 0.7613041545154603	0.123188
H	0.2130312831600756 0.4095727145333584 0.2386958144845408	0.123188
H	0.2869686828399217 0.0904272854666417 0.2386958144845408	0.123188
H	0.0904272854666417 0.2869686828399217 0.2386958144845408	0.123187
H	0.4095727145333584 0.2130312831600756 0.2386958144845408	0.123188
H	0.4095727145333584 0.2869686828399217 0.7613041545154603	0.123186
H	0.0904272854666417 0.2130312831600756 0.7613041545154603	0.123187
H	0.9095727825333637 0.2130312831600756 0.7613041545154603	0.123185
H	0.5904272174666363 0.2869686828399217 0.7613041545154603	0.123185
H	0.5904272174666363 0.2130312831600756 0.2386958144845408	0.123185
H	0.9095727825333637 0.2869686828399217 0.2386958144845408	0.123185
H	0.7130312491600798 0.0904272854666417 0.2386958144845408	0.123188
H	0.7869687508399202 0.4095727145333584 0.2386958144845408	0.123187
H	0.7869687508399202 0.0904272854666417 0.7613041545154603	0.123187
H	0.7130312491600798 0.4095727145333584 0.7613041545154603	0.123187
H	0.4095727145333584 0.7130312491600798 0.7613041545154603	0.123188
H	0.0904272854666417 0.7869687508399202 0.7613041545154603	0.123187
H	0.0904272854666417 0.7130312491600798 0.2386958144845408	0.123188
H	0.4095727145333584 0.7869687508399202 0.2386958144845408	0.123188
H	0.2130312831600756 0.5904272174666363 0.2386958144845408	0.123185
H	0.2869686828399217 0.9095727825333637 0.2386958144845408	0.123184
H	0.2869686828399217 0.5904272174666363 0.7613041545154603	0.123184
H	0.2130312831600756 0.9095727825333637 0.7613041545154603	0.123184
H	0.7869687508399202 0.9095727825333637 0.7613041545154603	0.123185
H	0.7130312491600798 0.5904272174666363 0.7613041545154603	0.123185
H	0.7130312491600798 0.9095727825333637 0.2386958144845408	0.123185
H	0.7869687508399202 0.5904272174666363 0.2386958144845408	0.123185
H	0.5904272174666363 0.7869687508399202 0.2386958144845408	0.123184
H	0.9095727825333637 0.7130312491600798 0.2386958144845408	0.123185
H	0.9095727825333637 0.7869687508399202 0.7613041545154603	0.123184
H	0.5904272174666363 0.7130312491600798 0.7613041545154603	0.123184
Cu	0.2500000000000000 0.2500000000000000 0.5000000000000000	0.712432
Cu	0.7500000340000028 0.2500000000000000 0.5000000000000000	0.712433
Cu	0.2500000000000000 0.7500000340000028 0.5000000000000000	0.712433
Cu	0.7500000340000028 0.7500000340000028 0.5000000000000000	0.712434
Si	0.2500000000000000 0.2500000000000000 -0.0000000000000000	1.722448
Si	0.7500000340000028 0.2500000000000000 -0.0000000000000000	1.722449
Si	0.2500000000000000 0.7500000340000028 -0.0000000000000000	1.722449
Si	0.7500000340000028 0.7500000340000028 -0.0000000000000000	1.722449
F	0.2500000000000000 0.2500000000000000 0.7769412043509452	-0.539091
F	0.2500000000000000 0.2500000000000000 0.2230587956490547	-0.539091
F	0.3374380074771061 0.3374380074771061 -0.0030147152911057	-0.532414
F	0.1625619925228938 0.1625619925228938 -0.0030147152911057	-0.532412
F	0.1625619925228938 0.3374380074771061 0.0030147362911039	-0.532413
F	0.3374380074771061 0.1625619925228938 0.0030147362911039	-0.532413
F	0.7500000340000028 0.2500000000000000 0.7769412043509452	-0.539091
F	0.7500000340000028 0.2500000000000000 0.2230587956490547	-0.539091
F	0.8374380414771091 0.3374380074771061 0.0030147362911039	-0.532415
F	0.6625619585228909 0.1625619925228938 0.0030147362911039	-0.532413
F	0.6625619585228909 0.3374380074771061 -0.0030147152911057	-0.532414
F	0.8374380414771091 0.1625619925228938 -0.0030147152911057	-0.532414
F	0.2500000000000000 0.7500000340000028 0.7769412043509452	-0.539091
F	0.2500000000000000 0.7500000340000028 0.2230587956490547	-0.539091
F	0.3374380074771061 0.8374380414771091 0.0030147362911039	-0.532415
F	0.1625619925228938 0.6625619585228909 0.0030147362911039	-0.532413
F	0.1625619925228938 0.8374380414771091 -0.0030147152911057	-0.532414
F	0.3374380074771061 0.6625619585228909 -0.0030147152911057	-0.532414
F	0.7500000340000028 0.7500000340000028 0.7769412043509452	-0.539091
F	0.7500000340000028 0.7500000340000028 0.2230587956490547	-0.539092
F	0.8374380414771091 0.8374380414771091 -0.0030147152911057	-0.532416
F	0.6625619585228909 0.6625619585228909 -0.0030147152911057	-0.532413
F	0.6625619585228909 0.8374380414771091 0.0030147362911039	-0.532414
F	0.8374380414771091 0.6625619585228909 0.0030147362911039	-0.532414
N	0.3994007871044155 0.2500000000000000 0.5000000000000000	-0.185977
N	0.1005992128955845 0.2500000000000000 0.5000000000000000	-0.185977
N	0.2500000000000000 0.3994007871044155 0.5000000000000000	-0.185974
N	0.2500000000000000 0.1005992128955845 0.5000000000000000	-0.185973
N	0.8994007871044154 0.2500000000000000 0.5000000000000000	-0.185980
N	0.6005992128955846 0.2500000000000000 0.5000000000000000	-0.185979
N	0.7500000340000028 0.3994007871044155 0.5000000000000000	-0.185975
N	0.7500000340000028 0.1005992128955845 0.5000000000000000	-0.185975
N	0.3994007871044155 0.7500000340000028 0.5000000000000000	-0.185976
N	0.1005992128955845 0.7500000340000028 0.5000000000000000	-0.185975
N	0.2500000000000000 0.8994007871044154 0.5000000000000000	-0.185980
N	0.2500000000000000 0.6005992128955846 0.5000000000000000	-0.185979
N	0.8994007871044154 0.7500000340000028 0.5000000000000000	-0.185981
N	0.6005992128955846 0.7500000340000028 0.5000000000000000	-0.185981
N	0.7500000340000028 0.8994007871044154 0.5000000000000000	-0.185978
N	0.7500000340000028 0.6005992128955846 0.5000000000000000	-0.185978
	  	
