#======================================================================

# CRYSTAL DATA

#----------------------------------------------------------------------

data_VESTA_phase_1


_pd_phase_name                         SIFSIX_2_Ni_i
_cell_length_a                         13.86146
_cell_length_b                         13.86146
_cell_length_c                         7.74885
_cell_angle_alpha                      90
_cell_angle_beta                       90
_cell_angle_gamma                      90
_symmetry_space_group_name_H-M         P 1
_symmetry_Int_Tables_number            1

loop_
_symmetry_equiv_pos_as_xyz
   x, y, z

loop_
   _atom_site_label
   _atom_site_fract_x
   _atom_site_fract_y
   _atom_site_fract_z
   _atom_site_charge
C	0.0000000000000000 0.3019259793808949 0.3444968282867346	-0.160773
C	0.0000000000000000 0.2018884787508903 0.3502254939273750	0.104745
C	0.5000000000000000 0.8019259793808948 0.8444968572867330	-0.160771
C	0.5000000000000000 0.7018884967508917 0.8502254939273751	0.104745
C	0.0000000000000000 0.6980740206191052 0.3444968282867346	-0.160775
C	0.0000000000000000 0.7981115032491083 0.3502254939273750	0.104748
C	0.5000000000000000 0.1980740376191028 0.8444968572867330	-0.160773
C	0.5000000000000000 0.2981115032491082 0.8502254939273751	0.104747
C	0.6980740206191052 0.0000000000000000 0.3444968282867346	-0.160772
C	0.7981115032491083 0.0000000000000000 0.3502254939273750	0.104747
C	0.1980740376191028 0.5000000000000000 0.8444968572867330	-0.160771
C	0.2981115032491082 0.5000000000000000 0.8502254939273751	0.104747
C	0.3019259793808949 0.0000000000000000 0.3444968282867346	-0.160774
C	0.2018884787508903 0.0000000000000000 0.3502254939273750	0.104750
C	0.8019259793808948 0.5000000000000000 0.8444968572867330	-0.160773
C	0.7018884967508917 0.5000000000000000 0.8502254939273751	0.104749
C	0.0000000000000000 0.3019259793808949 0.6555031427132670	-0.160769
C	0.0000000000000000 0.2018884787508903 0.6497745060726249	0.104746
C	0.5000000000000000 0.8019259793808948 0.1555031717132657	-0.160750
C	0.5000000000000000 0.7018884967508917 0.1497744910726273	0.104725
C	0.0000000000000000 0.6980740206191052 0.6555031427132670	-0.160771
C	0.0000000000000000 0.7981115032491083 0.6497745060726249	0.104748
C	0.5000000000000000 0.1980740376191028 0.1555031717132657	-0.160752
C	0.5000000000000000 0.2981115032491082 0.1497744910726273	0.104727
C	0.3019259793808949 0.0000000000000000 0.6555031427132670	-0.160771
C	0.2018884787508903 0.0000000000000000 0.6497745060726249	0.104750
C	0.8019259793808948 0.5000000000000000 0.1555031717132657	-0.160751
C	0.7018884967508917 0.5000000000000000 0.1497744910726273	0.104729
C	0.6980740206191052 0.0000000000000000 0.6555031427132670	-0.160768
C	0.7981115032491083 0.0000000000000000 0.6497745060726249	0.104748
C	0.1980740376191028 0.5000000000000000 0.1555031717132657	-0.160749
C	0.2981115032491082 0.5000000000000000 0.1497744910726273	0.104727
C	0.0000000000000000 0.4560141711193429 0.5000000000000000	-0.095973
C	0.0000000000000000 0.3541119015684423 0.5000000000000000	0.159734
C	0.5000000000000000 0.9560142051193461 -0.0000000000000000	-0.095973
C	0.5000000000000000 0.8541118665684431 -0.0000000000000000	0.159731
C	0.0000000000000000 0.5439858288806567 0.5000000000000000	-0.095714
C	0.0000000000000000 0.6458881334315569 0.5000000000000000	0.159703
C	0.5000000000000000 0.0439858078806517 -0.0000000000000000	-0.095714
C	0.5000000000000000 0.1458881334315570 -0.0000000000000000	0.159699
C	0.5439858288806567 0.0000000000000000 0.5000000000000000	-0.095973
C	0.6458881334315569 0.0000000000000000 0.5000000000000000	0.159734
C	0.0439858078806517 0.5000000000000000 -0.0000000000000000	-0.095973
C	0.1458881334315570 0.5000000000000000 -0.0000000000000000	0.159731
C	0.4560141711193429 0.0000000000000000 0.5000000000000000	-0.095714
C	0.3541119015684423 0.0000000000000000 0.5000000000000000	0.159703
C	0.9560142051193461 0.5000000000000000 -0.0000000000000000	-0.095714
C	0.8541118665684431 0.5000000000000000 -0.0000000000000000	0.159699
H	0.0000000000000000 0.3394626308442107 0.2212042310145927	0.118974
H	0.0000000000000000 0.1602411965530913 0.2312622413672090	0.103361
H	0.5000000000000000 0.8394626308442109 0.7212042310145926	0.118974
H	0.5000000000000000 0.6602411435530905 0.7312622713672117	0.103359
H	0.0000000000000000 0.6605373691557891 0.2212042310145927	0.118973
H	0.0000000000000000 0.8397588564469095 0.2312622413672090	0.103361
H	0.5000000000000000 0.1605373691557892 0.7212042310145926	0.118973
H	0.5000000000000000 0.3397588214469033 0.7312622713672117	0.103359
H	0.6605373691557891 0.0000000000000000 0.2212042310145927	0.118974
H	0.8397588564469095 0.0000000000000000 0.2312622413672090	0.103361
H	0.1605373691557892 0.5000000000000000 0.7212042310145926	0.118974
H	0.3397588214469033 0.5000000000000000 0.7312622713672117	0.103358
H	0.3394626308442107 0.0000000000000000 0.2212042310145927	0.118973
H	0.1602411965530913 0.0000000000000000 0.2312622413672090	0.103361
H	0.8394626308442109 0.5000000000000000 0.7212042310145926	0.118973
H	0.6602411435530905 0.5000000000000000 0.7312622713672117	0.103359
H	0.0000000000000000 0.3394626308442107 0.7787957689854074	0.118971
H	0.0000000000000000 0.1602411965530913 0.7687376706327906	0.103361
H	0.5000000000000000 0.8394626308442109 0.2787957689854073	0.118967
H	0.5000000000000000 0.6602411435530905 0.2687377586327913	0.103360
H	0.0000000000000000 0.6605373691557891 0.7787957689854074	0.118970
H	0.0000000000000000 0.8397588564469095 0.7687376706327906	0.103361
H	0.5000000000000000 0.1605373691557892 0.2787957689854073	0.118966
H	0.5000000000000000 0.3397588214469033 0.2687377586327913	0.103360
H	0.3394626308442107 0.0000000000000000 0.7787957689854074	0.118970
H	0.1602411965530913 0.0000000000000000 0.7687376706327906	0.103360
H	0.8394626308442109 0.5000000000000000 0.2787957689854073	0.118966
H	0.6602411435530905 0.5000000000000000 0.2687377586327913	0.103359
H	0.6605373691557891 0.0000000000000000 0.7787957689854074	0.118971
H	0.8397588564469095 0.0000000000000000 0.7687376706327906	0.103360
H	0.1605373691557892 0.5000000000000000 0.2787957689854073	0.118967
H	0.3397588214469033 0.5000000000000000 0.2687377586327913	0.103359
Ni	0.0000000000000000 0.0000000000000000 0.5000000000000000	0.767426
Ni	0.5000000000000000 0.5000000000000000 -0.0000000000000000	0.767415
Si	0.0000000000000000 0.0000000000000000 -0.0000000000000000	1.723449
Si	0.5000000000000000 0.5000000000000000 0.5000000000000000	1.723621
N	0.0000000000000000 0.1520160970349734 0.5000000000000000	-0.235610
N	0.5000000000000000 0.6520160790349721 -0.0000000000000000	-0.235600
N	0.0000000000000000 0.8479839209650279 0.5000000000000000	-0.235610
N	0.5000000000000000 0.3479839209650281 -0.0000000000000000	-0.235600
N	0.8479839209650279 0.0000000000000000 0.5000000000000000	-0.235612
N	0.3479839209650281 0.5000000000000000 -0.0000000000000000	-0.235602
N	0.1520160970349734 0.0000000000000000 0.5000000000000000	-0.235612
N	0.6520160790349721 0.5000000000000000 -0.0000000000000000	-0.235602
F	0.0000000000000000 0.0000000000000000 0.7704684220748658	-0.504149
F	0.5000000000000000 0.5000000000000000 0.2704685110748695	-0.504202
F	0.0000000000000000 0.0000000000000000 0.2295315039251353	-0.504149
F	0.5000000000000000 0.5000000000000000 0.7295315779251342	-0.504173
F	0.5865145800817653 0.5865145800817653 0.5000000000000000	-0.531546
F	0.5865145800817653 0.4134854199182345 0.5000000000000000	-0.531546
F	0.4134854199182345 0.5865145800817653 0.5000000000000000	-0.531546
F	0.4134854199182345 0.4134854199182345 0.5000000000000000	-0.531546
F	0.0865145970817633 0.0865145970817633 -0.0000000000000000	-0.531526
F	0.9134854199182347 0.9134854199182347 -0.0000000000000000	-0.531526
F	0.9134854199182347 0.0865145970817633 -0.0000000000000000	-0.531526
F	0.0865145970817633 0.9134854199182347 -0.0000000000000000	-0.531526
	  	
