#======================================================================

# CRYSTAL DATA

#----------------------------------------------------------------------

data_VESTA_phase_1


_pd_phase_name                         SIFSIX_3_Co
_cell_length_a                         14.18126
_cell_length_b                         14.18126
_cell_length_c                         7.55071
_cell_angle_alpha                      90
_cell_angle_beta                       90
_cell_angle_gamma                      90
_symmetry_space_group_name_H-M         P 1
_symmetry_Int_Tables_number            1

loop_
_symmetry_equiv_pos_as_xyz
   x, y, z

loop_
   _atom_site_label
   _atom_site_fract_x
   _atom_site_fract_y
   _atom_site_fract_z
   _atom_site_charge
C	0.2717309092068423 0.4509229827299071 0.6468585158268583	0.064462
C	0.2282690907931577 0.0490770212700932 0.6468585158268583	0.064461
C	0.2282690907931577 0.4509229827299071 0.3531414521731391	0.064464
C	0.2717309092068423 0.0490770212700932 0.3531414521731391	0.064466
C	0.0490770212700932 0.2717309092068423 0.3531414521731391	0.064470
C	0.4509229827299071 0.2282690907931577 0.3531414521731391	0.064468
C	0.4509229827299071 0.2717309092068423 0.6468585158268583	0.064474
C	0.0490770212700932 0.2282690907931577 0.6468585158268583	0.064473
C	0.9509229147299086 0.2282690907931577 0.6468585158268583	0.064489
C	0.5490770852700914 0.2717309092068423 0.6468585158268583	0.064491
C	0.5490770852700914 0.2282690907931577 0.3531414521731391	0.064492
C	0.9509229147299086 0.2717309092068423 0.3531414521731391	0.064493
C	0.7282691077931557 0.0490770212700932 0.3531414521731391	0.064469
C	0.7717308922068443 0.4509229827299071 0.3531414521731391	0.064469
C	0.7717308922068443 0.0490770212700932 0.6468585158268583	0.064473
C	0.7282691077931557 0.4509229827299071 0.6468585158268583	0.064472
C	0.4509229827299071 0.7282691077931557 0.6468585158268583	0.064462
C	0.0490770212700932 0.7717308922068443 0.6468585158268583	0.064463
C	0.0490770212700932 0.7282691077931557 0.3531414521731391	0.064466
C	0.4509229827299071 0.7717308922068443 0.3531414521731391	0.064466
C	0.2282690907931577 0.5490770852700914 0.3531414521731391	0.064496
C	0.2717309092068423 0.9509229147299086 0.3531414521731391	0.064497
C	0.2717309092068423 0.5490770852700914 0.6468585158268583	0.064501
C	0.2282690907931577 0.9509229147299086 0.6468585158268583	0.064499
C	0.7717308922068443 0.9509229147299086 0.6468585158268583	0.064489
C	0.7282691077931557 0.5490770852700914 0.6468585158268583	0.064489
C	0.7282691077931557 0.9509229147299086 0.3531414521731391	0.064492
C	0.7717308922068443 0.5490770852700914 0.3531414521731391	0.064493
C	0.5490770852700914 0.7717308922068443 0.3531414521731391	0.064496
C	0.9509229147299086 0.7282691077931557 0.3531414521731391	0.064495
C	0.9509229147299086 0.7717308922068443 0.6468585158268583	0.064499
C	0.5490770852700914 0.7282691077931557 0.6468585158268583	0.064499
H	0.2887494694929911 0.4119072489490242 0.7671119831770735	0.111641
H	0.2112504965070060 0.0880927510509758 0.7671119831770735	0.111644
H	0.2112504965070060 0.4119072489490242 0.2328879858229273	0.111644
H	0.2887494694929911 0.0880927510509758 0.2328879858229273	0.111641
H	0.0880927510509758 0.2887494694929911 0.2328879858229273	0.111641
H	0.4119072489490242 0.2112504965070060 0.2328879858229273	0.111643
H	0.4119072489490242 0.2887494694929911 0.7671119831770735	0.111639
H	0.0880927510509758 0.2112504965070060 0.7671119831770735	0.111642
H	0.9119073169490297 0.2112504965070060 0.7671119831770735	0.111640
H	0.5880926830509703 0.2887494694929911 0.7671119831770735	0.111637
H	0.5880926830509703 0.2112504965070060 0.2328879858229273	0.111639
H	0.9119073169490297 0.2887494694929911 0.2328879858229273	0.111637
H	0.7112504625070103 0.0880927510509758 0.2328879858229273	0.111644
H	0.7887495374929897 0.4119072489490242 0.2328879858229273	0.111643
H	0.7887495374929897 0.0880927510509758 0.7671119831770735	0.111642
H	0.7112504625070103 0.4119072489490242 0.7671119831770735	0.111642
H	0.4119072489490242 0.7112504625070103 0.7671119831770735	0.111644
H	0.0880927510509758 0.7887495374929897 0.7671119831770735	0.111644
H	0.0880927510509758 0.7112504625070103 0.2328879858229273	0.111644
H	0.4119072489490242 0.7887495374929897 0.2328879858229273	0.111643
H	0.2112504965070060 0.5880926830509703 0.2328879858229273	0.111639
H	0.2887494694929911 0.9119073169490297 0.2328879858229273	0.111636
H	0.2887494694929911 0.5880926830509703 0.7671119831770735	0.111635
H	0.2112504965070060 0.9119073169490297 0.7671119831770735	0.111638
H	0.7887495374929897 0.9119073169490297 0.7671119831770735	0.111639
H	0.7112504625070103 0.5880926830509703 0.7671119831770735	0.111640
H	0.7112504625070103 0.9119073169490297 0.2328879858229273	0.111639
H	0.7887495374929897 0.5880926830509703 0.2328879858229273	0.111639
H	0.5880926830509703 0.7887495374929897 0.2328879858229273	0.111639
H	0.9119073169490297 0.7112504625070103 0.2328879858229273	0.111639
H	0.9119073169490297 0.7887495374929897 0.7671119831770735	0.111637
H	0.5880926830509703 0.7112504625070103 0.7671119831770735	0.111638
Co	0.2500000000000000 0.2500000000000000 0.5000000000000000	0.813397
Co	0.7500000340000028 0.2500000000000000 0.5000000000000000	0.813397
Co	0.2500000000000000 0.7500000340000028 0.5000000000000000	0.813397
Co	0.7500000340000028 0.7500000340000028 0.5000000000000000	0.813397
Si	0.2500000000000000 0.2500000000000000 -0.0000000000000000	1.715736
Si	0.7500000340000028 0.2500000000000000 -0.0000000000000000	1.715735
Si	0.2500000000000000 0.7500000340000028 -0.0000000000000000	1.715735
Si	0.7500000340000028 0.7500000340000028 -0.0000000000000000	1.715735
F	0.2500000000000000 0.2500000000000000 0.7659236362141353	-0.493217
F	0.2500000000000000 0.2500000000000000 0.2340763637858646	-0.493217
F	0.3344951560793689 0.3344951560793689 -0.0000114599887421	-0.519075
F	0.1655048439206311 0.1655048439206311 -0.0000114599887421	-0.519076
F	0.1655048439206311 0.3344951560793689 0.0000114809887404	-0.519075
F	0.3344951560793689 0.1655048439206311 0.0000114809887404	-0.519075
F	0.7500000340000028 0.2500000000000000 0.7659236362141353	-0.493219
F	0.7500000340000028 0.2500000000000000 0.2340763637858646	-0.493219
F	0.8344951900793717 0.3344951560793689 0.0000114809887404	-0.519076
F	0.6655048099206283 0.1655048439206311 0.0000114809887404	-0.519075
F	0.6655048099206283 0.3344951560793689 -0.0000114599887421	-0.519075
F	0.8344951900793717 0.1655048439206311 -0.0000114599887421	-0.519076
F	0.2500000000000000 0.7500000340000028 0.7659236362141353	-0.493219
F	0.2500000000000000 0.7500000340000028 0.2340763637858646	-0.493219
F	0.3344951560793689 0.8344951900793717 0.0000114809887404	-0.519076
F	0.1655048439206311 0.6655048099206283 0.0000114809887404	-0.519075
F	0.1655048439206311 0.8344951900793717 -0.0000114599887421	-0.519076
F	0.3344951560793689 0.6655048099206283 -0.0000114599887421	-0.519075
F	0.7500000340000028 0.7500000340000028 0.7659236362141353	-0.493220
F	0.7500000340000028 0.7500000340000028 0.2340763637858646	-0.493220
F	0.8344951900793717 0.8344951900793717 -0.0000114599887421	-0.519076
F	0.6655048099206283 0.6655048099206283 -0.0000114599887421	-0.519074
F	0.6655048099206283 0.8344951900793717 0.0000114809887404	-0.519075
F	0.8344951900793717 0.6655048099206283 0.0000114809887404	-0.519075
N	0.4015796039386756 0.2500000000000000 0.5000000000000000	-0.218839
N	0.0984203960613243 0.2500000000000000 0.5000000000000000	-0.218839
N	0.2500000000000000 0.4015796039386756 0.5000000000000000	-0.218838
N	0.2500000000000000 0.0984203960613243 0.5000000000000000	-0.218838
N	0.9015796039386758 0.2500000000000000 0.5000000000000000	-0.218844
N	0.5984203960613242 0.2500000000000000 0.5000000000000000	-0.218843
N	0.7500000340000028 0.4015796039386756 0.5000000000000000	-0.218839
N	0.7500000340000028 0.0984203960613243 0.5000000000000000	-0.218838
N	0.4015796039386756 0.7500000340000028 0.5000000000000000	-0.218837
N	0.0984203960613243 0.7500000340000028 0.5000000000000000	-0.218836
N	0.2500000000000000 0.9015796039386758 0.5000000000000000	-0.218847
N	0.2500000000000000 0.5984203960613242 0.5000000000000000	-0.218846
N	0.9015796039386758 0.7500000340000028 0.5000000000000000	-0.218845
N	0.5984203960613242 0.7500000340000028 0.5000000000000000	-0.218844
N	0.7500000340000028 0.9015796039386758 0.5000000000000000	-0.218844
N	0.7500000340000028 0.5984203960613242 0.5000000000000000	-0.218843
	  	
