#======================================================================

# CRYSTAL DATA

#----------------------------------------------------------------------

data_VESTA_phase_1


_pd_phase_name                         SIFSIX_2_Co_i
_cell_length_a                         13.57609
_cell_length_b                         13.57609
_cell_length_c                         8.04281
_cell_angle_alpha                      90
_cell_angle_beta                       90
_cell_angle_gamma                      90
_symmetry_space_group_name_H-M         P 1
_symmetry_Int_Tables_number            1

loop_
_symmetry_equiv_pos_as_xyz
   x, y, z

loop_
   _atom_site_label
   _atom_site_fract_x
   _atom_site_fract_y
   _atom_site_fract_z
   _atom_site_charge
C	-0.0000000000000000 0.2977205080450795 0.3502826648520116	-0.156981
C	-0.0000000000000000 0.1957611332989629 0.3551184782380707	0.093623
C	0.5000000000000000 0.7977205080450794 0.8502826938520106	-0.156981
C	0.5000000000000000 0.6957611512989644 0.8551184782380706	0.093623
C	-0.0000000000000000 0.7022794919549206 0.3502826648520116	-0.156984
C	-0.0000000000000000 0.8042388487010356 0.3551184782380707	0.093625
C	0.5000000000000000 0.2022795089549183 0.8502826938520106	-0.156977
C	0.5000000000000000 0.3042388487010356 0.8551184782380706	0.093654
C	0.7022794919549206 0.0000000000000000 0.3502826648520116	-0.156981
C	0.8042388487010356 0.0000000000000000 0.3551184782380707	0.093623
C	0.2022795089549183 0.5000000000000000 0.8502826938520106	-0.156974
C	0.3042388487010356 0.5000000000000000 0.8551184782380706	0.093651
C	0.2977205080450795 0.0000000000000000 0.3502826648520116	-0.156983
C	0.1957611332989629 0.0000000000000000 0.3551184782380707	0.093625
C	0.7977205080450794 0.5000000000000000 0.8502826938520106	-0.156983
C	0.6957611512989644 0.5000000000000000 0.8551184782380706	0.093625
C	-0.0000000000000000 0.2977205080450795 0.6497173061479894	-0.156980
C	-0.0000000000000000 0.1957611332989629 0.6448815217619294	0.093623
C	0.5000000000000000 0.7977205080450794 0.1497173351479885	-0.156980
C	0.5000000000000000 0.6957611512989644 0.1448815067619317	0.093623
C	-0.0000000000000000 0.7022794919549206 0.6497173061479894	-0.156982
C	-0.0000000000000000 0.8042388487010356 0.6448815217619294	0.093625
C	0.5000000000000000 0.2022795089549183 0.1497173351479885	-0.156976
C	0.5000000000000000 0.3042388487010356 0.1448815067619317	0.093654
C	0.2977205080450795 0.0000000000000000 0.6497173061479894	-0.156982
C	0.1957611332989629 0.0000000000000000 0.6448815217619294	0.093625
C	0.7977205080450794 0.5000000000000000 0.1497173351479885	-0.156982
C	0.6957611512989644 0.5000000000000000 0.1448815067619317	0.093625
C	0.7022794919549206 0.0000000000000000 0.6497173061479894	-0.156979
C	0.8042388487010356 0.0000000000000000 0.6448815217619294	0.093622
C	0.2022795089549183 0.5000000000000000 0.1497173351479885	-0.156973
C	0.3042388487010356 0.5000000000000000 0.1448815067619317	0.093651
C	-0.0000000000000000 0.4550656840673916 0.5000000000000000	-0.095757
C	-0.0000000000000000 0.3512144794940016 0.5000000000000000	0.160531
C	0.5000000000000000 0.9550657180673944 0.0000000000000000	-0.095760
C	0.5000000000000000 0.8512144444940021 0.0000000000000000	0.160532
C	-0.0000000000000000 0.5449343159326084 0.5000000000000000	-0.095495
C	-0.0000000000000000 0.6487855555059979 0.5000000000000000	0.160500
C	0.5000000000000000 0.0449342949326031 0.0000000000000000	-0.095498
C	0.5000000000000000 0.1487855555059978 0.0000000000000000	0.160479
C	0.5449343159326084 0.0000000000000000 0.5000000000000000	-0.095757
C	0.6487855555059979 0.0000000000000000 0.5000000000000000	0.160531
C	0.0449342949326031 0.5000000000000000 0.0000000000000000	-0.095760
C	0.1487855555059978 0.5000000000000000 0.0000000000000000	0.160510
C	0.4550656840673916 0.0000000000000000 0.5000000000000000	-0.095495
C	0.3512144794940016 0.0000000000000000 0.5000000000000000	0.160500
C	0.9550657180673944 0.5000000000000000 0.0000000000000000	-0.095497
C	0.8512144444940021 0.5000000000000000 0.0000000000000000	0.160501
H	-0.0000000000000000 0.3356358203890681 0.2310182447863550	0.122273
H	-0.0000000000000000 0.1530308249802425 0.2409650676359354	0.109639
H	0.5000000000000000 0.8356358203890679 0.7310182447863552	0.122272
H	0.5000000000000000 0.6530307719802418 0.7409650976359380	0.109639
H	-0.0000000000000000 0.6643641796109321 0.2310182447863550	0.122271
H	-0.0000000000000000 0.8469692280197582 0.2409650676359354	0.109639
H	0.5000000000000000 0.1643641796109319 0.7310182447863552	0.122259
H	0.5000000000000000 0.3469691930197519 0.7409650976359380	0.109634
H	0.6643641796109321 0.0000000000000000 0.2310182447863550	0.122273
H	0.8469692280197582 0.0000000000000000 0.2409650676359354	0.109638
H	0.1643641796109319 0.5000000000000000 0.7310182447863552	0.122260
H	0.3469691930197519 0.5000000000000000 0.7409650976359380	0.109633
H	0.3356358203890681 0.0000000000000000 0.2310182447863550	0.122271
H	0.1530308249802425 0.0000000000000000 0.2409650676359354	0.109638
H	0.8356358203890679 0.5000000000000000 0.7310182447863552	0.122271
H	0.6530307719802418 0.5000000000000000 0.7409650976359380	0.109638
H	-0.0000000000000000 0.3356358203890681 0.7689817552136448	0.122272
H	-0.0000000000000000 0.1530308249802425 0.7590348443640643	0.109639
H	0.5000000000000000 0.8356358203890679 0.2689817552136449	0.122272
H	0.5000000000000000 0.6530307719802418 0.2590349323640646	0.109639
H	-0.0000000000000000 0.6643641796109321 0.7689817552136448	0.122271
H	-0.0000000000000000 0.8469692280197582 0.7590348443640643	0.109639
H	0.5000000000000000 0.1643641796109319 0.2689817552136449	0.122258
H	0.5000000000000000 0.3469691930197519 0.2590349323640646	0.109634
H	0.3356358203890681 0.0000000000000000 0.7689817552136448	0.122271
H	0.1530308249802425 0.0000000000000000 0.7590348443640643	0.109638
H	0.8356358203890679 0.5000000000000000 0.2689817552136449	0.122270
H	0.6530307719802418 0.5000000000000000 0.2590349323640646	0.109638
H	0.6643641796109321 0.0000000000000000 0.7689817552136448	0.122272
H	0.8469692280197582 0.0000000000000000 0.7590348443640643	0.109638
H	0.1643641796109319 0.5000000000000000 0.2689817552136449	0.122259
H	0.3469691930197519 0.5000000000000000 0.2590349323640646	0.109633
Co	-0.0000000000000000 0.0000000000000000 0.5000000000000000	0.590160
Co	0.5000000000000000 0.5000000000000000 0.0000000000000000	0.590160
Si	-0.0000000000000000 0.0000000000000000 0.0000000000000000	1.709051
Si	0.5000000000000000 0.5000000000000000 0.5000000000000000	1.709051
N	-0.0000000000000000 0.1447592743005593 0.5000000000000000	-0.183776
N	0.5000000000000000 0.6447592563005580 0.0000000000000000	-0.183776
N	-0.0000000000000000 0.8552407436994420 0.5000000000000000	-0.183775
N	0.5000000000000000 0.3552407436994424 0.0000000000000000	-0.183788
N	0.8552407436994420 0.0000000000000000 0.5000000000000000	-0.183777
N	0.3552407436994424 0.5000000000000000 0.0000000000000000	-0.183789
N	0.1447592743005593 0.0000000000000000 0.5000000000000000	-0.183776
N	0.6447592563005580 0.5000000000000000 0.0000000000000000	-0.183776
F	-0.0000000000000000 0.0000000000000000 0.7822858977341920	-0.505232
F	0.5000000000000000 0.5000000000000000 0.2822859867341954	-0.505232
F	-0.0000000000000000 0.0000000000000000 0.2177140282658093	-0.505232
F	0.5000000000000000 0.5000000000000000 0.7177141022658080	-0.505232
F	0.5887838118133811 0.5887838118133811 0.5000000000000000	-0.540405
F	0.5887838118133811 0.4112161881866188 0.5000000000000000	-0.540405
F	0.4112161881866188 0.5887838118133811 0.5000000000000000	-0.540405
F	0.4112161881866188 0.4112161881866188 0.5000000000000000	-0.540405
F	0.0887838288133792 0.0887838288133792 0.0000000000000000	-0.540405
F	0.9112161881866189 0.9112161881866189 0.0000000000000000	-0.540405
F	0.9112161881866189 0.0887838288133792 0.0000000000000000	-0.540405
F	0.0887838288133792 0.9112161881866189 0.0000000000000000	-0.540405
	  	
