#======================================================================

# CRYSTAL DATA

#----------------------------------------------------------------------

data_VESTA_phase_1


_pd_phase_name                         SIFSIX_2_Cu_i
_cell_length_a                         13.69919
_cell_length_b                         13.69919
_cell_length_c                         8.08082
_cell_angle_alpha                      90
_cell_angle_beta                       90
_cell_angle_gamma                      90
_symmetry_space_group_name_H-M         P 1
_symmetry_Int_Tables_number            1

loop_
_symmetry_equiv_pos_as_xyz
   x, y, z

loop_
   _atom_site_label
   _atom_site_fract_x
   _atom_site_fract_y
   _atom_site_fract_z
   _atom_site_charge
C	-0.0000000000000000 0.2995313867565649 0.3506376871278041	-0.155200
C	-0.0000000000000000 0.1983095204776688 0.3556867691447444	0.100979
C	0.5000000000000000 0.7995313867565650 0.8506377161278029	-0.155200
C	0.5000000000000000 0.6983095384776702 0.8556867691447444	0.100979
C	-0.0000000000000000 0.7004686132434350 0.3506376871278041	-0.155202
C	-0.0000000000000000 0.8016904615223298 0.3556867691447444	0.100981
C	0.5000000000000000 0.2004686302434329 0.8506377161278029	-0.155202
C	0.5000000000000000 0.3016904615223298 0.8556867691447444	0.100981
C	0.7004686132434350 0.0000000000000000 0.3506376871278041	-0.155199
C	0.8016904615223298 0.0000000000000000 0.3556867691447444	0.100981
C	0.2004686302434329 0.5000000000000000 0.8506377161278029	-0.155199
C	0.3016904615223298 0.5000000000000000 0.8556867691447444	0.100982
C	0.2995313867565649 0.0000000000000000 0.3506376871278041	-0.155201
C	0.1983095204776688 0.0000000000000000 0.3556867691447444	0.100983
C	0.7995313867565650 0.5000000000000000 0.8506377161278029	-0.155202
C	0.6983095384776702 0.5000000000000000 0.8556867691447444	0.100984
C	-0.0000000000000000 0.2995313867565649 0.6493622838721971	-0.155196
C	-0.0000000000000000 0.1983095204776688 0.6443132308552556	0.100979
C	0.5000000000000000 0.7995313867565650 0.1493623128721959	-0.155196
C	0.5000000000000000 0.6983095384776702 0.1443132158552579	0.100979
C	-0.0000000000000000 0.7004686132434350 0.6493622838721971	-0.155198
C	-0.0000000000000000 0.8016904615223298 0.6443132308552556	0.100981
C	0.5000000000000000 0.2004686302434329 0.1493623128721959	-0.155198
C	0.5000000000000000 0.3016904615223298 0.1443132158552579	0.100982
C	0.2995313867565649 0.0000000000000000 0.6493622838721971	-0.155198
C	0.1983095204776688 0.0000000000000000 0.6443132308552556	0.100984
C	0.7995313867565650 0.5000000000000000 0.1493623128721959	-0.155198
C	0.6983095384776702 0.5000000000000000 0.1443132158552579	0.100984
C	0.7004686132434350 0.0000000000000000 0.6493622838721971	-0.155196
C	0.8016904615223298 0.0000000000000000 0.6443132308552556	0.100982
C	0.2004686302434329 0.5000000000000000 0.1493623128721959	-0.155195
C	0.3016904615223298 0.5000000000000000 0.1443132158552579	0.100982
C	-0.0000000000000000 0.4554804693573211 0.5000000000000000	-0.094669
C	-0.0000000000000000 0.3522688141750991 0.5000000000000000	0.162045
C	0.5000000000000000 0.9554805033573239 -0.0000000000000000	-0.094716
C	0.5000000000000000 0.8522687791750998 -0.0000000000000000	0.162043
C	-0.0000000000000000 0.5445195306426789 0.5000000000000000	-0.094425
C	-0.0000000000000000 0.6477312208249002 0.5000000000000000	0.162016
C	0.5000000000000000 0.0445195096426737 -0.0000000000000000	-0.094366
C	0.5000000000000000 0.1477312208249002 -0.0000000000000000	0.162005
C	0.5445195306426789 0.0000000000000000 0.5000000000000000	-0.094669
C	0.6477312208249002 0.0000000000000000 0.5000000000000000	0.162045
C	0.0445195096426737 0.5000000000000000 -0.0000000000000000	-0.094610
C	0.1477312208249002 0.5000000000000000 -0.0000000000000000	0.162034
C	0.4554804693573211 0.0000000000000000 0.5000000000000000	-0.094426
C	0.3522688141750991 0.0000000000000000 0.5000000000000000	0.162016
C	0.9554805033573239 0.5000000000000000 -0.0000000000000000	-0.094473
C	0.8522687791750998 0.5000000000000000 -0.0000000000000000	0.162014
H	-0.0000000000000000 0.3373399912732969 0.2322438424916991	0.121820
H	-0.0000000000000000 0.1550707438748099 0.2426811214151000	0.111130
H	0.5000000000000000 0.8373399912732969 0.7322438424916992	0.121820
H	0.5000000000000000 0.6550706908748090 0.7426811514151024	0.111130
H	-0.0000000000000000 0.6626600087267031 0.2322438424916991	0.121819
H	-0.0000000000000000 0.8449293091251910 0.2426811214151000	0.111130
H	0.5000000000000000 0.1626600087267031 0.7322438424916992	0.121818
H	0.5000000000000000 0.3449292741251845 0.7426811514151024	0.111130
H	0.6626600087267031 0.0000000000000000 0.2322438424916991	0.121820
H	0.8449293091251910 0.0000000000000000 0.2426811214151000	0.111129
H	0.1626600087267031 0.5000000000000000 0.7322438424916992	0.121819
H	0.3449292741251845 0.5000000000000000 0.7426811514151024	0.111129
H	0.3373399912732969 0.0000000000000000 0.2322438424916991	0.121819
H	0.1550707438748099 0.0000000000000000 0.2426811214151000	0.111129
H	0.8373399912732969 0.5000000000000000 0.7322438424916992	0.121819
H	0.6550706908748090 0.5000000000000000 0.7426811514151024	0.111129
H	-0.0000000000000000 0.3373399912732969 0.7677561575083008	0.121817
H	-0.0000000000000000 0.1550707438748099 0.7573187905848999	0.111130
H	0.5000000000000000 0.8373399912732969 0.2677561575083010	0.121817
H	0.5000000000000000 0.6550706908748090 0.2573188785849000	0.111129
H	-0.0000000000000000 0.6626600087267031 0.7677561575083008	0.121816
H	-0.0000000000000000 0.8449293091251910 0.7573187905848999	0.111130
H	0.5000000000000000 0.1626600087267031 0.2677561575083010	0.121815
H	0.5000000000000000 0.3449292741251845 0.2573188785849000	0.111130
H	0.3373399912732969 0.0000000000000000 0.7677561575083008	0.121816
H	0.1550707438748099 0.0000000000000000 0.7573187905848999	0.111129
H	0.8373399912732969 0.5000000000000000 0.2677561575083010	0.121816
H	0.6550706908748090 0.5000000000000000 0.2573188785849000	0.111129
H	0.6626600087267031 0.0000000000000000 0.7677561575083008	0.121817
H	0.8449293091251910 0.0000000000000000 0.7573187905848999	0.111129
H	0.1626600087267031 0.5000000000000000 0.2677561575083010	0.121817
H	0.3449292741251845 0.5000000000000000 0.2573188785849000	0.111129
Cu	-0.0000000000000000 0.0000000000000000 0.5000000000000000	0.698070
Cu	0.5000000000000000 0.5000000000000000 -0.0000000000000000	0.698070
Si	-0.0000000000000000 0.0000000000000000 -0.0000000000000000	1.722863
Si	0.5000000000000000 0.5000000000000000 0.5000000000000000	1.722863
N	-0.0000000000000000 0.1486722734967093 0.5000000000000000	-0.217616
N	0.5000000000000000 0.6486722554967078 -0.0000000000000000	-0.217616
N	-0.0000000000000000 0.8513277445032922 0.5000000000000000	-0.217615
N	0.5000000000000000 0.3513277445032921 -0.0000000000000000	-0.217615
N	0.8513277445032922 0.0000000000000000 0.5000000000000000	-0.217615
N	0.3513277445032921 0.5000000000000000 -0.0000000000000000	-0.217615
N	0.1486722734967093 0.0000000000000000 0.5000000000000000	-0.217615
N	0.6486722554967078 0.5000000000000000 -0.0000000000000000	-0.217615
F	-0.0000000000000000 0.0000000000000000 0.7843893488153543	-0.529317
F	0.5000000000000000 0.5000000000000000 0.2843894378153579	-0.529317
F	-0.0000000000000000 0.0000000000000000 0.2156105771846467	-0.529317
F	0.5000000000000000 0.5000000000000000 0.7156106511846457	-0.529317
F	0.5882117343049267 0.5882117343049267 0.5000000000000000	-0.547902
F	0.5882117343049267 0.4117882656950732 0.5000000000000000	-0.547902
F	0.4117882656950732 0.5882117343049267 0.5000000000000000	-0.547902
F	0.4117882656950732 0.4117882656950732 0.5000000000000000	-0.547902
F	0.0882117513049247 0.0882117513049247 -0.0000000000000000	-0.547902
F	0.9117882656950733 0.9117882656950733 -0.0000000000000000	-0.547902
F	0.9117882656950733 0.0882117513049247 -0.0000000000000000	-0.547902
F	0.0882117513049247 0.9117882656950733 -0.0000000000000000	-0.547902
	  	
