#======================================================================

# CRYSTAL DATA

#----------------------------------------------------------------------

data_VESTA_phase_1


_pd_phase_name                         SIFSIX_13_Fe_i
_cell_length_a                         15.27212
_cell_length_b                         15.33921
_cell_length_c                         7.67578
_cell_angle_alpha                      89.75877
_cell_angle_beta                       90.16490
_cell_angle_gamma                      89.73491
_symmetry_space_group_name_H-M         P 1
_symmetry_Int_Tables_number            1

loop_
_symmetry_equiv_pos_as_xyz
   x, y, z

loop_
   _atom_site_label
   _atom_site_fract_x
   _atom_site_fract_y
   _atom_site_fract_z
   _atom_site_charge
C	0.5410268782300296 0.6858858804924202 0.8678377043489867	0.107954
C	0.5444161577279830 0.7763949958105126 0.8658183472855209	-0.150051
C	0.4625145515508968 0.3170489680356282 0.8743408887128360	0.106553
C	0.4590329056544248 0.2266365578730403 0.8749208862340740	-0.142533
C	0.8203555809353944 0.9724993395968036 0.3612131070944692	0.103379
C	0.7293295885454227 0.9697478500144485 0.3580101205892580	-0.138672
C	0.3167459733389553 0.5423042479410037 0.8654187225560712	0.109124
C	0.2259351037429033 0.5464336754431144 0.8626135195055794	-0.150726
C	0.1812195779916493 0.9710017482327951 0.3537922739934416	0.096224
C	0.2723492957934283 0.9693844122545723 0.3511522217803010	-0.138847
C	0.6844979709304710 0.4621658571434188 0.8814283096840495	0.109197
C	0.7752083136915996 0.4591590082005471 0.8804970965156799	-0.142399
C	0.4541524176385056 0.6859603176664347 0.1166163796700565	0.110088
C	0.4508641740986224 0.7763666947759629 0.1188026531606083	-0.138679
C	0.5408712899194320 0.3183583213247825 0.1351734905176492	0.105822
C	0.5434804406137215 0.2278283675219248 0.1411465293306824	-0.150840
C	0.1797782971938342 0.0207467355690436 0.6389994100561046	0.104345
C	0.2707564039498240 0.0228455777512378 0.6451333937696908	-0.140778
C	0.6829423916735369 0.5443602896743673 0.1360779004633589	0.109992
C	0.7737983660642835 0.5478548122777859 0.1400414249691813	-0.151183
C	0.8205540176615059 0.0294844745419435 0.6409807769868249	0.095782
C	0.7294738382362181 0.0307985427223908 0.6461594008372850	-0.136818
C	0.3161759015288448 0.4574597825607837 0.1180206472865985	0.110186
C	0.2254329130237259 0.4548558960005109 0.1196462073556675	-0.141737
C	0.9656375841935290 0.8165182098282470 0.6381314896874911	0.104700
C	0.9640183273883995 0.7258006610197680 0.6440102698741716	-0.137807
C	0.9826521389336604 0.1800498355808985 0.6436025841609391	0.096073
C	0.9794325179707241 0.2705767916252808 0.6469037829796449	-0.139214
C	0.0218937682489247 0.8156654391122475 0.3570557336229817	0.096842
C	0.0244093944600762 0.7251097717260599 0.3544144599974896	-0.137845
C	0.0311238830515894 0.1798789403121902 0.3566690740126205	0.104255
C	0.0315717923421383 0.2705907409367355 0.3509311160867217	-0.137301
C	0.0040589097832914 0.3172509840935084 0.4978230103083857	0.045616
C	0.0012100129131151 0.4132411756452023 0.4976696609210847	0.255637
C	0.4979040201264964 0.8223636154474179 0.9925059486796365	0.054025
C	0.4989453689672560 0.9181724631860850 0.9971759660886992	0.246236
C	0.9950560580703962 0.6786826181053847 0.5004654570271182	0.039700
C	0.9970609315371433 0.5825552835859971 0.5005511809286231	0.250288
C	0.5010406074622076 0.1812836293226824 0.0099089875542177	0.054525
C	0.5004413871995946 0.0853732023916247 0.0108798477773275	0.249363
C	0.6822054353799417 0.9997307041614085 0.5026099409355070	0.041125
C	0.5855965208628839 0.9978692092822237 0.5038144207197438	0.250262
C	0.1797743525412567 0.5011982849515098 0.9908386046288870	0.055462
C	0.0837974021873102 0.5022258872943484 0.9932450705959143	0.246644
C	0.3187470789797545 0.9961137686914117 0.4992527027229505	0.046301
C	0.4153336540663294 0.9962069004187654 0.5020177726523356	0.254361
C	0.8204149054225887 0.5037255467617479 0.0110714771424288	0.053824
C	0.9164015122209171 0.5035307804065997 0.0084347851423587	0.248462
H	0.5724813873462883 0.6471224473426477 0.7665868239184778	0.106984
H	0.5816688602989102 0.8101116057568224 0.7655905078852299	0.122339
H	0.4343799727740609 0.3553561230937217 0.7675584278611420	0.107337
H	0.4268200092147506 0.1916105393871614 0.7699776716852849	0.116867
H	0.8580591415272151 0.9513358284659249 0.2486283545186230	0.111915
H	0.6961683547334749 0.9452793427733405 0.2424646397609420	0.122127
H	0.3558354524095622 0.5726415233909676 0.7631225947436049	0.107261
H	0.1922756079815061 0.5831937276223038 0.7607259906585202	0.123228
H	0.1444508842981192 0.9532595160159367 0.2374644308119106	0.105301
H	0.3057955002659663 0.9491748722321057 0.2326826835339492	0.118986
H	0.6461134666097560 0.4324179001205024 0.7775222705272408	0.105753
H	0.8103909822869906 0.4256351026880205 0.7772873753885678	0.116471
H	0.4226759342320187 0.6471268899455682 0.2179335215904498	0.106559
H	0.4157195264567016 0.8107937683827791 0.2207665288932570	0.114107
H	0.5692068121670278 0.3576319823996343 0.2393079482798569	0.107960
H	0.5767533801761504 0.1946119175972029 0.2481770373660933	0.123077
H	0.1414734577681623 0.0395198688806424 0.7523878466217522	0.110629
H	0.3030345210286455 0.0438627048812152 0.7643298301436775	0.121399
H	0.6435351815660564 0.5739641619371564 0.2386630175226092	0.107120
H	0.8070080132820892 0.5830927475065188 0.2436791951954326	0.123145
H	0.8580040474667440 0.0501212313831398 0.7544119536592072	0.104661
H	0.6966988385719163 0.0542336156707843 0.7629182803951540	0.123071
H	0.3549558923352724 0.4265817671092098 0.2209971941379518	0.105738
H	0.1905543596357004 0.4206408119799466 0.2224618344852139	0.115099
H	0.9443174042065557 0.8548768209286303 0.7497635459090028	0.112591
H	0.9403615820807461 0.6930227611920733 0.7607387873537116	0.121109
H	0.9662367841804257 0.1424992480035769 0.7597125921816883	0.104864
H	0.9589411318931039 0.3037101710865823 0.7652007455304625	0.122055
H	0.0416990819751273 0.8529518389049531 0.2426935279009123	0.105289
H	0.0482446210034337 0.6917677722778793 0.2389035159098772	0.120592
H	0.0500935783023611 0.1417775375810026 0.2430336168892360	0.112103
H	0.0513433681129199 0.3037545759160304 0.2317348682895356	0.119973
N	0.9428786670256960 0.5392856032794711 0.6095206690261495	-0.144427
N	0.4215924006204534 0.0458259936375407 0.0089318773002328	-0.153303
N	0.5428653238210180 0.0517953871263092 0.6140791533048490	-0.144932
N	0.9566076824485583 0.4250012273004598 0.0025928755704040	-0.150052
N	0.0529000915392597 0.5426330323883004 0.3895099328425342	-0.143079
N	0.5785294542417875 0.0437067962011056 0.0125164831500013	-0.150624
N	0.9572075969776238 0.5814004669532488 0.0059496138459737	-0.152221
N	0.5447259393812138 0.9412380629557101 0.3964413264989247	-0.143155
N	0.0553940064528103 0.4565422089961379 0.3891203978165074	-0.136373
N	0.5777824218405688 0.9577537415437208 0.0004011618362958	-0.149662
N	0.4581329367570840 0.9404714485707306 0.3958078540660931	-0.135803
N	0.0434441985241584 0.5807214161461812 0.9932863619057176	-0.148401
N	0.9445704356402780 0.4530924479389909 0.6067852549931729	-0.137662
N	0.4209213183129077 0.9597027812966589 0.0058665381874547	-0.148207
N	0.0430321154993521 0.4243278935802958 0.9986197966937619	-0.151273
N	0.4562787349011183 0.0509185638145559 0.6128790598734754	-0.139402
N	0.0064271918834273 0.1351018443820100 0.5002979640773142	-0.188919
N	0.4977053234562350 0.6417581617233605 0.9924955986252761	-0.247551
N	0.9944807263840997 0.8609909227217981 0.4972578498761681	-0.188710
N	0.5018663392068899 0.3618381356638249 0.0031108113705575	-0.248551
N	0.8660166960998628 0.0013814644553261 0.5007913667343515	-0.187596
N	0.3606680546601489 0.4996382799981852 0.9922933717538661	-0.249766
N	0.1349315936772294 0.9953976684145730 0.4956893887303768	-0.188076
N	0.6394813465868732 0.5031840763002746 0.0078196038325693	-0.248321
Fe	0.0004343169702213 0.9981422594167840 0.4981256911317273	0.625797
Fe	0.5000913770110141 0.5018885785376520 0.9989750986063450	0.811610
Si	0.9996920093980006 0.9973740591823254 0.9982927783307242	1.710141
Si	0.4995788378945331 0.5029596718689082 0.4987817341497490	1.733209
F	0.9977213660976908 0.0018289750512643 0.2241115162734733	-0.483959
F	0.5044092577455552 0.5002732881173144 0.7308370144523804	-0.486055
F	0.0018809354426207 0.9930087676428101 0.7722958551611899	-0.481461
F	0.4949004429371296 0.5054066100181529 0.2668206512522487	-0.486336
F	0.0788652546101112 0.0755649660398394 0.9950340000530322	-0.534394
F	0.5758550684548654 0.5830517575731421 0.4960602825228831	-0.542227
F	0.9205159531282044 0.9194095650128959 0.0018040076360226	-0.534165
F	0.4233735085083278 0.4230517981432312 0.5018217646416969	-0.544185
F	0.9212343732036582 0.0767402942862576 0.9882837496595227	-0.529209
F	0.4194282567344770 0.5796270614888208 0.5069509636866082	-0.542592
F	0.0783941143130214 0.9182113860640254 0.0084008568975666	-0.529788
F	0.5802473863794115 0.4267758644009964 0.4900876241329998	-0.542944
	  	
