#======================================================================

# CRYSTAL DATA

#----------------------------------------------------------------------

data_VESTA_phase_1


_pd_phase_name                         SIFSIX_6_Fe_i
_cell_length_a                         17.51444
_cell_length_b                         17.51444
_cell_length_c                         15.59164
_cell_angle_alpha                      90
_cell_angle_beta                       90
_cell_angle_gamma                      90
_symmetry_space_group_name_H-M         P 1
_symmetry_Int_Tables_number            1

loop_
_symmetry_equiv_pos_as_xyz
   x, y, z

loop_
   _atom_site_label
   _atom_site_fract_x
   _atom_site_fract_y
   _atom_site_fract_z
   _atom_site_charge
N	0.2431907387950036 0.1355838363315534 0.1278478366959120	-0.265483
N	0.2568092612049964 0.3644161776684473 0.1278478366959120	-0.265482
N	0.3644161776684473 0.2431907387950036 0.1278478366959120	-0.265482
N	0.1355838363315534 0.2568092612049964 0.1278478366959120	-0.265482
N	0.7568092342049971 0.6355838493315583 0.3721521483040902	-0.265482
N	0.7431907657950029 0.8644161506684418 0.3721521483040902	-0.265481
N	0.6355838493315582 0.7431907657950029 0.3721521483040902	-0.265481
N	0.8644161506684417 0.7568092342049971 0.3721521483040902	-0.265482
N	0.7568092342049971 0.8644161506684417 0.8721521483040904	-0.265482
N	0.7431907657950029 0.6355838493315582 0.8721521483040904	-0.265483
N	0.6355838493315583 0.7568092342049971 0.8721521483040904	-0.265482
N	0.8644161506684418 0.7431907657950029 0.8721521483040904	-0.265482
N	0.2431907387950036 0.3644161776684473 0.6278478516959096	-0.265483
N	0.2568092612049964 0.1355838363315534 0.6278478516959096	-0.265484
N	0.3644161776684473 0.2568092612049964 0.6278478516959096	-0.265483
N	0.1355838363315534 0.2431907387950036 0.6278478516959096	-0.265483
C	0.2029932327160953 0.0988083294057061 0.1892241975462192	0.102021
C	0.1942702284332922 0.0200763740028496 0.1882723046531490	-0.178629
C	0.2313549467965311 0.9766811950366541 0.1251835775769253	0.108803
C	0.2745714634893909 0.0157343608145184 0.0634867071414801	-0.177661
C	0.2777390049975302 0.0948869421376711 0.0652687353609704	0.105497
C	0.2256361809307494 0.8928194310442837 0.1241207099942719	0.062278
C	0.2910927668968830 0.8484943026579335 0.1208839462871538	-0.175182
C	0.2868511860786233 0.7679249775100978 0.1221952370067663	0.085843
C	0.1468245592474037 0.7786028214039975 0.1250698880911768	-0.123140
C	0.1528863841285608 0.8568875095965748 0.1274873287213460	-0.138387
C	0.2970067272839083 0.4011916835942912 0.1892241975462192	0.102019
C	0.3057297315667043 0.4799236069971526 0.1882723046531490	-0.178628
C	0.2686450532034690 0.5233188049633459 0.1251835775769253	0.108804
C	0.2254285495106068 0.4842656361854776 0.0634867071414801	-0.177661
C	0.2222610090024710 0.4051130648623329 0.0652687353609704	0.105495
C	0.2743638190692504 0.6071805689557163 0.1241207099942719	0.062278
C	0.2089072741031169 0.6515056973420665 0.1208839462871538	-0.175180
C	0.2131487869213781 0.7320750224899022 0.1221952370067663	0.085842
C	0.3531754267525957 0.7213971785960025 0.1250698880911768	-0.123142
C	0.3471136158714395 0.6431124904034252 0.1274873287213460	-0.138386
C	0.4011916835942912 0.2029932327160953 0.1892241975462192	0.102020
C	0.4799236069971526 0.1942702284332922 0.1882723046531490	-0.178628
C	0.5233188049633459 0.2313549467965311 0.1251835775769253	0.108803
C	0.4842656361854776 0.2745714634893909 0.0634867071414801	-0.177660
C	0.4051130648623329 0.2777390049975302 0.0652687353609704	0.105495
C	0.6071805689557163 0.2256361809307494 0.1241207099942719	0.062278
C	0.6515056973420665 0.2910927668968830 0.1208839462871538	-0.175180
C	0.7320750224899022 0.2868511860786233 0.1221952370067663	0.085843
C	0.7213971785960025 0.1468245592474037 0.1250698880911768	-0.123140
C	0.6431124904034252 0.1528863841285608 0.1274873287213460	-0.138386
C	0.0988083294057061 0.2970067272839083 0.1892241975462192	0.102020
C	0.0200763740028496 0.3057297315667043 0.1882723046531490	-0.178628
C	0.9766811950366541 0.2686450532034690 0.1251835775769253	0.108804
C	0.0157343608145184 0.2254285495106068 0.0634867071414801	-0.177662
C	0.0948869421376711 0.2222610090024710 0.0652687353609704	0.105496
C	0.8928194310442837 0.2743638190692504 0.1241207099942719	0.062277
C	0.8484943026579335 0.2089072741031169 0.1208839462871538	-0.175181
C	0.7679249775100978 0.2131487869213781 0.1221952370067663	0.085842
C	0.7786028214039975 0.3531754267525957 0.1250698880911768	-0.123142
C	0.8568875095965748 0.3471136158714395 0.1274873287213460	-0.138387
C	0.7970067802839019 0.5988083164057090 0.3107758184537819	0.102022
C	0.8057297845667052 0.5200763390028434 0.3117276643468517	-0.178629
C	0.7686450532034689 0.4766811950366540 0.3748163904230723	0.108806
C	0.7254285095106106 0.5157344178145193 0.4365132968585201	-0.177665
C	0.7222609690024681 0.5948869891376714 0.4347313046390253	0.105505
C	0.7743638990692502 0.3928194840442843 0.3758792820057272	0.062247
C	0.7089072601031156 0.3484942496579330 0.3791160457128457	-0.175167
C	0.7131488139213770 0.2679248975100990 0.3778047629932339	0.085844
C	0.8531754537526016 0.2786027944039985 0.3749300959088220	-0.123109
C	0.8471135628714384 0.3568874835965729 0.3725127032786568	-0.138362
C	0.7029932197160981 0.9011916835942910 0.3107758184537819	0.102019
C	0.6942702154332948 0.9799236069971521 0.3117276643468517	-0.178628
C	0.7313549467965311 0.0233188109633464 0.3748163904230723	0.108805
C	0.7745714904893894 0.9842656361854780 0.4365132968585201	-0.177664
C	0.7777390309975319 0.9051131178623339 0.4347313046390253	0.105505
C	0.7256361009307498 0.1071805429557144 0.3758792820057272	0.062277
C	0.7910927398968844 0.1515057373420625 0.3791160457128457	-0.175176
C	0.7868511860786230 0.2320750754899026 0.3778047629932339	0.085839
C	0.6468245462473984 0.2213971925960039 0.3749300959088220	-0.123141
C	0.6528864371285616 0.1431124904034252 0.3725127032786568	-0.138386
C	0.5988083164057090 0.7029932197160981 0.3107758184537819	0.102021
C	0.5200763390028434 0.6942702154332948 0.3117276643468517	-0.178631
C	0.4766811950366540 0.7313549467965311 0.3748163904230723	0.108808
C	0.5157344178145193 0.7745714904893894 0.4365132968585201	-0.177663
C	0.5948869891376714 0.7777390309975319 0.4347313046390253	0.105505
C	0.3928194840442843 0.7256361009307498 0.3758792820057272	0.062246
C	0.3484942496579330 0.7910927398968844 0.3791160457128457	-0.175168
C	0.2679248975100990 0.7868511860786230 0.3778047629932339	0.085844
C	0.2786027944039985 0.6468245462473984 0.3749300959088220	-0.123109
C	0.3568874835965729 0.6528864371285616 0.3725127032786568	-0.138362
C	0.9011916835942910 0.7970067802839019 0.3107758184537819	0.102019
C	0.9799236069971521 0.8057297845667052 0.3117276643468517	-0.178627
C	0.0233188109633464 0.7686450532034689 0.3748163904230723	0.108803
C	0.9842656361854780 0.7254285095106106 0.4365132968585201	-0.177665
C	0.9051131178623339 0.7222609690024681 0.4347313046390253	0.105505
C	0.1071805429557144 0.7743638990692502 0.3758792820057272	0.062278
C	0.1515057373420625 0.7089072601031156 0.3791160457128457	-0.175175
C	0.2320750754899026 0.7131488139213770 0.3778047629932339	0.085839
C	0.2213971925960039 0.8531754537526016 0.3749300959088220	-0.123141
C	0.1431124904034252 0.8471135628714384 0.3725127032786568	-0.138386
C	0.7970067802839019 0.9011916835942910 0.8107757864537798	0.102019
C	0.8057297845667052 0.9799236069971521 0.8117277273468537	-0.178627
C	0.7686450532034689 0.0233188109633464 0.8748164544230699	0.108804
C	0.7254285095106106 0.9842656361854780 0.9365132658585210	-0.177665
C	0.7222609690024681 0.9051131178623339 0.9347312726390233	0.105504
C	0.7743638990692502 0.1071805429557144 0.8758792820057275	0.062277
C	0.7089072601031156 0.1515057373420625 0.8791160777128481	-0.175174
C	0.7131488139213770 0.2320750754899026 0.8778047949932294	0.085840
C	0.8531754537526016 0.2213971925960039 0.8749301589088234	-0.123140
C	0.8471135628714384 0.1431124904034252 0.8725127352786520	-0.138387
C	0.7029932197160981 0.5988083164057090 0.8107757864537798	0.102021
C	0.6942702154332948 0.5200763390028434 0.8117277273468537	-0.178629
C	0.7313549467965311 0.4766811950366540 0.8748164544230699	0.108806
C	0.7745714904893894 0.5157344178145193 0.9365132658585210	-0.177664
C	0.7777390309975319 0.5948869891376714 0.9347312726390233	0.105506
C	0.7256361009307498 0.3928194840442843 0.8758792820057275	0.062247
C	0.7910927398968844 0.3484942496579330 0.8791160777128481	-0.175168
C	0.7868511860786230 0.2679248975100990 0.8778047949932294	0.085843
C	0.6468245462473984 0.2786027944039985 0.8749301589088234	-0.123110
C	0.6528864371285616 0.3568874835965729 0.8725127352786520	-0.138362
C	0.5988083164057090 0.7970067802839019 0.8107757864537798	0.102020
C	0.5200763390028434 0.8057297845667052 0.8117277273468537	-0.178628
C	0.4766811950366540 0.7686450532034689 0.8748164544230699	0.108807
C	0.5157344178145193 0.7254285095106106 0.9365132658585210	-0.177665
C	0.5948869891376714 0.7222609690024681 0.9347312726390233	0.105505
C	0.3928194840442843 0.7743638990692502 0.8758792820057275	0.062246
C	0.3484942496579330 0.7089072601031156 0.8791160777128481	-0.175168
C	0.2679248975100990 0.7131488139213770 0.8778047949932294	0.085844
C	0.2786027944039985 0.8531754537526016 0.8749301589088234	-0.123110
C	0.3568874835965729 0.8471135628714384 0.8725127352786520	-0.138362
C	0.9011916835942910 0.7029932197160981 0.8107757864537798	0.102020
C	0.9799236069971521 0.6942702154332948 0.8117277273468537	-0.178628
C	0.0233188109633464 0.7313549467965311 0.8748164544230699	0.108803
C	0.9842656361854780 0.7745714904893894 0.9365132658585210	-0.177664
C	0.9051131178623339 0.7777390309975319 0.9347312726390233	0.105504
C	0.1071805429557144 0.7256361009307498 0.8758792820057275	0.062278
C	0.1515057373420625 0.7910927398968844 0.8791160777128481	-0.175175
C	0.2320750754899026 0.7868511860786230 0.8778047949932294	0.085839
C	0.2213971925960039 0.6468245462473984 0.8749301589088234	-0.123140
C	0.1431124904034252 0.6528864371285616 0.8725127352786520	-0.138387
C	0.2029932327160953 0.4011916835942912 0.6892242135462202	0.102019
C	0.1942702284332922 0.4799236069971526 0.6882722726531463	-0.178628
C	0.2313549467965311 0.5233188049633459 0.6251835455769301	0.108804
C	0.2745714634893909 0.4842656361854776 0.5634867341414790	-0.177660
C	0.2777390049975302 0.4051130648623329 0.5652687273609767	0.105495
C	0.2256361809307494 0.6071805689557163 0.6241207179942725	0.062278
C	0.2910927668968830 0.6515056973420665 0.6208839222871519	-0.175181
C	0.2868511860786233 0.7320750224899022 0.6221952050067706	0.085843
C	0.1468245592474037 0.7213971785960025 0.6250698410911766	-0.123141
C	0.1528863841285608 0.6431124904034252 0.6274872647213480	-0.138386
C	0.2970067272839083 0.0988083294057061 0.6892242135462202	0.102021
C	0.3057297315667043 0.0200763740028496 0.6882722726531463	-0.178628
C	0.2686450532034690 0.9766811950366541 0.6251835455769301	0.108803
C	0.2254285495106068 0.0157343608145184 0.5634867341414790	-0.177662
C	0.2222610090024710 0.0948869421376711 0.5652687273609767	0.105496
C	0.2743638190692504 0.8928194310442837 0.6241207179942725	0.062278
C	0.2089072741031169 0.8484943026579335 0.6208839222871519	-0.175181
C	0.2131487869213781 0.7679249775100978 0.6221952050067706	0.085842
C	0.3531754267525957 0.7786028214039975 0.6250698410911766	-0.123141
C	0.3471136158714395 0.8568875095965748 0.6274872647213480	-0.138388
C	0.4011916835942912 0.2970067272839083 0.6892242135462202	0.102019
C	0.4799236069971526 0.3057297315667043 0.6882722726531463	-0.178627
C	0.5233188049633459 0.2686450532034690 0.6251835455769301	0.108803
C	0.4842656361854776 0.2254285495106068 0.5634867341414790	-0.177662
C	0.4051130648623329 0.2222610090024710 0.5652687273609767	0.105495
C	0.6071805689557163 0.2743638190692504 0.6241207179942725	0.062278
C	0.6515056973420665 0.2089072741031169 0.6208839222871519	-0.175181
C	0.7320750224899022 0.2131487869213781 0.6221952050067706	0.085843
C	0.7213971785960025 0.3531754267525957 0.6250698410911766	-0.123141
C	0.6431124904034252 0.3471136158714395 0.6274872647213480	-0.138387
C	0.0988083294057061 0.2029932327160953 0.6892242135462202	0.102021
C	0.0200763740028496 0.1942702284332922 0.6882722726531463	-0.178629
C	0.9766811950366541 0.2313549467965311 0.6251835455769301	0.108804
C	0.0157343608145184 0.2745714634893909 0.5634867341414790	-0.177661
C	0.0948869421376711 0.2777390049975302 0.5652687273609767	0.105496
C	0.8928194310442837 0.2256361809307494 0.6241207179942725	0.062277
C	0.8484943026579335 0.2910927668968830 0.6208839222871519	-0.175182
C	0.7679249775100978 0.2868511860786233 0.6221952050067706	0.085842
C	0.7786028214039975 0.1468245592474037 0.6250698410911766	-0.123141
C	0.8568875095965748 0.1528863841285608 0.6274872647213480	-0.138388
H	0.1794564411417022 0.1339562975607140 0.2406580076427930	0.105749
H	0.1611001625353344 0.9924104369129324 0.2385076677209781	0.113793
H	0.3034782972228809 0.9846501599867571 0.0124357989045383	0.114510
H	0.3065435133189079 0.1274716045635513 0.0151081034252531	0.104815
H	0.3471072969179883 0.8758865436857695 0.1199538122653364	0.108255
H	0.0908661367706932 0.7511586156444423 0.1258719977437747	0.107153
H	0.1017547988428611 0.8924464488765229 0.1298801797421453	0.101030
H	0.3205435318582995 0.3660437294392919 0.2406580076427930	0.105748
H	0.3388998774646618 0.5075895630870676 0.2385076677209781	0.113793
H	0.1965217157771166 0.5153498400132429 0.0124357989045383	0.114511
H	0.1934564866810923 0.3725283954364487 0.0151081034252531	0.104815
H	0.1528927170820128 0.6241134563142305 0.1199538122653364	0.108255
H	0.4091338562293025 0.7488413843555576 0.1258719977437747	0.107156
H	0.3982452141571435 0.6075535511234771 0.1298801797421453	0.101030
H	0.3660437294392919 0.1794564411417022 0.2406580076427930	0.105748
H	0.5075895630870676 0.1611001625353344 0.2385076677209781	0.113794
H	0.5153498400132429 0.3034782972228809 0.0124357989045383	0.114511
H	0.3725283954364487 0.3065435133189079 0.0151081034252531	0.104815
H	0.6241134563142305 0.3471072969179883 0.1199538122653364	0.108256
H	0.7488413843555576 0.0908661367706932 0.1258719977437747	0.107153
H	0.6075535511234771 0.1017547988428611 0.1298801797421453	0.101031
H	0.1339562975607140 0.3205435318582995 0.2406580076427930	0.105749
H	0.9924104369129324 0.3388998774646618 0.2385076677209781	0.113792
H	0.9846501599867571 0.1965217157771166 0.0124357989045383	0.114511
H	0.1274716045635513 0.1934564866810923 0.0151081034252531	0.104815
H	0.8758865436857695 0.1528927170820128 0.1199538122653364	0.108255
H	0.7511586156444424 0.4091338562293025 0.1258719977437747	0.107156
H	0.8924464488765229 0.3982452141571435 0.1298801797421453	0.101031
H	0.8205435318582993 0.6339563245607129 0.2593420083572085	0.105749
H	0.8388997964646661 0.4924104909129292 0.2614923322790219	0.113794
H	0.6965217027771182 0.4846501599867573 0.4875642030954619	0.114511
H	0.6934565396810926 0.6274716315635505 0.4848918945747467	0.104806
H	0.6528927030820116 0.3758864896857724 0.3800461957346642	0.108248
H	0.9091338032293019 0.2511586426444408 0.3741279942562244	0.107152
H	0.8982451871571446 0.3924464748765179 0.3701198282578557	0.101006
H	0.6794564681417007 0.8660436754392871 0.2593420083572085	0.105749
H	0.6611002035353339 0.0075895250870648 0.2614923322790219	0.113795
H	0.8034782972228818 0.0153498390132392 0.4875642030954619	0.114510
H	0.8065434603189074 0.8725283684364495 0.4848918945747467	0.104805
H	0.8471072969179884 0.1241135233142324 0.3800461957346642	0.108251
H	0.5908661437706972 0.2488413303555536 0.3741279942562244	0.107155
H	0.6017548128428554 0.1075535381234795 0.3701198282578557	0.101030
H	0.6339563245607129 0.6794564681417007 0.2593420083572085	0.105749
H	0.4924104909129292 0.6611002035353339 0.2614923322790219	0.113794
H	0.4846501599867573 0.8034782972228818 0.4875642030954619	0.114510
H	0.6274716315635505 0.8065434603189074 0.4848918945747467	0.104806
H	0.3758864896857724 0.8471072969179884 0.3800461957346642	0.108250
H	0.2511586426444408 0.5908661437706972 0.3741279942562244	0.107151
H	0.3924464748765179 0.6017548128428554 0.3701198282578557	0.101005
H	0.8660436754392871 0.8205435318582993 0.2593420083572085	0.105749
H	0.0075895250870648 0.8388997964646661 0.2614923322790219	0.113794
H	0.0153498390132392 0.6965217027771182 0.4875642030954619	0.114511
H	0.8725283684364495 0.6934565396810926 0.4848918945747467	0.104805
H	0.1241135233142324 0.6528927030820116 0.3800461957346642	0.108251
H	0.2488413303555536 0.9091338032293019 0.3741279942562244	0.107156
H	0.1075535381234795 0.8982451871571446 0.3701198282578557	0.101032
H	0.8205435318582993 0.8660436754392871 0.7593419773572095	0.105748
H	0.8388997964646661 0.0075895250870648 0.7614923472790268	0.113793
H	0.6965217027771182 0.0153498390132392 0.9875642340954609	0.114512
H	0.6934565396810926 0.8725283684364495 0.9848918305747486	0.104806
H	0.6528927030820116 0.1241135233142324 0.8800461637346612	0.108249
H	0.9091338032293019 0.2488413303555536 0.8741279312562230	0.107156
H	0.8982451871571446 0.1075535381234795 0.8701197962578526	0.101031
H	0.6794564681417007 0.6339563245607129 0.7593419773572095	0.105750
H	0.6611002035353339 0.4924104909129292 0.7614923472790268	0.113793
H	0.8034782972228818 0.4846501599867573 0.9875642340954609	0.114511
H	0.8065434603189074 0.6274716315635505 0.9848918305747486	0.104806
H	0.8471072969179884 0.3758864896857724 0.8800461637346612	0.108249
H	0.5908661437706972 0.2511586426444408 0.8741279312562230	0.107151
H	0.6017548128428554 0.3924464748765179 0.8701197962578526	0.101005
H	0.6339563245607129 0.8205435318582993 0.7593419773572095	0.105749
H	0.4924104909129292 0.8388997964646661 0.7614923472790268	0.113792
H	0.4846501599867573 0.6965217027771182 0.9875642340954609	0.114512
H	0.6274716315635505 0.6934565396810926 0.9848918305747486	0.104806
H	0.3758864896857724 0.6528927030820116 0.8800461637346612	0.108249
H	0.2511586426444408 0.9091338032293019 0.8741279312562230	0.107153
H	0.3924464748765179 0.8982451871571446 0.8701197962578526	0.101005
H	0.8660436754392871 0.6794564681417007 0.7593419773572095	0.105749
H	0.0075895250870648 0.6611002035353339 0.7614923472790268	0.113794
H	0.0153498390132392 0.8034782972228818 0.9875642340954609	0.114512
H	0.8725283684364495 0.8065434603189074 0.9848918305747486	0.104806
H	0.1241135233142324 0.8471072969179884 0.8800461637346612	0.108251
H	0.2488413303555536 0.5908661437706972 0.8741279312562230	0.107154
H	0.1075535381234795 0.6017548128428554 0.8701197962578526	0.101032
H	0.1794564411417022 0.3660437294392919 0.7406580226427905	0.105749
H	0.1611001625353344 0.5075895630870676 0.7385076527209732	0.113795
H	0.3034782972228809 0.5153498400132429 0.5124357969045381	0.114512
H	0.3065435133189079 0.3725283954364487 0.5151081054252532	0.104815
H	0.3471072969179883 0.6241134563142305 0.6199538362653388	0.108257
H	0.0908661367706932 0.7488413843555577 0.6258720687437770	0.107154
H	0.1017547988428611 0.6075535511234771 0.6298802037421474	0.101031
H	0.3205435318582995 0.1339562975607140 0.7406580226427905	0.105749
H	0.3388998774646618 0.9924104369129324 0.7385076527209732	0.113794
H	0.1965217157771166 0.9846501599867571 0.5124357969045381	0.114512
H	0.1934564866810923 0.1274716045635513 0.5151081054252532	0.104816
H	0.1528927170820128 0.8758865436857695 0.6199538362653388	0.108255
H	0.4091338562293025 0.7511586156444424 0.6258720687437770	0.107155
H	0.3982452141571435 0.8924464488765229 0.6298802037421474	0.101033
H	0.3660437294392919 0.3205435318582995 0.7406580226427905	0.105749
H	0.5075895630870676 0.3388998774646618 0.7385076527209732	0.113794
H	0.5153498400132429 0.1965217157771166 0.5124357969045381	0.114513
H	0.3725283954364487 0.1934564866810923 0.5151081054252532	0.104815
H	0.6241134563142305 0.1528927170820128 0.6199538362653388	0.108256
H	0.7488413843555577 0.4091338562293025 0.6258720687437770	0.107155
H	0.6075535511234771 0.3982452141571435 0.6298802037421474	0.101033
H	0.1339562975607140 0.1794564411417022 0.7406580226427905	0.105749
H	0.9924104369129324 0.1611001625353344 0.7385076527209732	0.113795
H	0.9846501599867571 0.3034782972228809 0.5124357969045381	0.114511
H	0.1274716045635513 0.3065435133189079 0.5151081054252532	0.104816
H	0.8758865436857695 0.3471072969179883 0.6199538362653388	0.108257
H	0.7511586156444423 0.0908661367706932 0.6258720687437770	0.107154
H	0.8924464488765229 0.1017547988428611 0.6298802037421474	0.101032
F	0.3143932516768671 0.1758203777071964 0.3785717426988741	-0.560545
F	0.1856067753231314 0.3241796222928034 0.3785717426988741	-0.560543
F	0.3241796222928034 0.3143932516768671 0.3785717426988741	-0.560543
F	0.1758203777071964 0.1856067753231314 0.3785717426988741	-0.560544
F	0.6856067483231327 0.6758203237071988 0.1214282573011261	-0.560544
F	0.8143932516768673 0.8241796762928012 0.1214282573011261	-0.560544
F	0.6758203237071988 0.8143932516768673 0.1214282573011261	-0.560543
F	0.8241796762928012 0.6856067483231327 0.1214282573011261	-0.560545
F	0.6856067483231327 0.8241796762928012 0.6214282253011236	-0.560543
F	0.8143932516768673 0.6758203237071988 0.6214282253011236	-0.560545
F	0.6758203237071988 0.6856067483231327 0.6214282253011236	-0.560544
F	0.8241796762928012 0.8143932516768673 0.6214282253011236	-0.560544
F	0.3143932516768671 0.3241796222928034 0.8785717746988764	-0.560544
F	0.1856067753231314 0.1758203777071964 0.8785717746988764	-0.560544
F	0.3241796222928034 0.1856067753231314 0.8785717746988764	-0.560545
F	0.1758203777071964 0.3143932516768671 0.8785717746988764	-0.560542
F	0.2500000000000000 0.2500000000000000 0.2690992157613680	-0.493760
F	0.2500000000000000 0.2500000000000000 0.4876993615054011	-0.495475
F	0.7500000000000000 0.7500000000000000 0.2309008002386333	-0.493761
F	0.7500000000000000 0.7500000000000000 0.0123006454946032	-0.495470
F	0.7500000000000000 0.7500000000000000 0.7309007522386293	-0.493761
F	0.7500000000000000 0.7500000000000000 0.5123006704946019	-0.495470
F	0.2500000000000000 0.2500000000000000 0.7690992477613707	-0.493761
F	0.2500000000000000 0.2500000000000000 0.9876993295053981	-0.495475
Fe	0.2500000000000000 0.2500000000000000 0.1283941372197872	0.843463
Fe	0.7500000000000000 0.7500000000000000 0.3716058787802143	0.843463
Fe	0.7500000000000000 0.7500000000000000 0.8716058477802151	0.843465
Fe	0.2500000000000000 0.2500000000000000 0.6283941522197849	0.843465
Si	0.2500000000000000 0.2500000000000000 0.3783552948023733	1.742868
Si	0.7500000000000000 0.7500000000000000 0.1216447131976277	1.742869
Si	0.7500000000000000 0.7500000000000000 0.6216446741976278	1.742869
Si	0.2500000000000000 0.2500000000000000 0.8783553258023722	1.742868
	  	
