#======================================================================

# CRYSTAL DATA

#----------------------------------------------------------------------

data_VESTA_phase_1


_pd_phase_name                         SIFSIX_13_Co_i
_cell_length_a                         15.02679
_cell_length_b                         15.02436
_cell_length_c                         7.74184
_cell_angle_alpha                      89.84463
_cell_angle_beta                       90.03289
_cell_angle_gamma                      89.78172
_symmetry_space_group_name_H-M         P 1
_symmetry_Int_Tables_number            1

loop_
_symmetry_equiv_pos_as_xyz
   x, y, z

loop_
   _atom_site_label
   _atom_site_fract_x
   _atom_site_fract_y
   _atom_site_fract_z
   _atom_site_charge
C	0.5409803202367327 0.6779900370150517 0.8683317922320505	0.098209
C	0.5441524983553993 0.7705184206429205 0.8666214902369953	-0.147277
C	0.4627585183983168 0.3248848871767438 0.8740875395416888	0.097134
C	0.4594681364445297 0.2324464324959215 0.8747233034029203	-0.138798
C	0.8231328990579375 0.9722244779171553 0.3611108414719145	0.099732
C	0.7308962708914761 0.9698056107499106 0.3581432828199854	-0.134180
C	0.3242103759522866 0.5420569211887241 0.8659051215777187	0.096873
C	0.2317089762085265 0.5460218101336789 0.8637498484382494	-0.147504
C	0.1785517240632707 0.9710969129871518 0.3540770525944730	0.091537
C	0.2708770911458632 0.9694978655165087 0.3513301751955309	-0.137022
C	0.6773561960111579 0.4622811080142886 0.8795887322675092	0.097526
C	0.7697417958640201 0.4593477068591948 0.8794056115117577	-0.138775
C	0.4545917761193028 0.6781123894443897 0.1181807166895204	0.099770
C	0.4510669457182285 0.7705073229148118 0.1194932856769849	-0.136002
C	0.5401488683925708 0.3262550259863305 0.1352614234469313	0.098060
C	0.5430545177082495 0.2337056220122783 0.1399838463638491	-0.149167
C	0.1770033067170581 0.0210237867722899 0.6390935538569952	0.099854
C	0.2691725452942096 0.0227215260231479 0.6448638941794599	-0.135373
C	0.6753466368893364 0.5438368130662374 0.1352655606091620	0.099422
C	0.7679098152235032 0.5473390075382421 0.1387445431703951	-0.145442
C	0.8232214231582012 0.0295306354924681 0.6408275041015157	0.089840
C	0.7309444142876943 0.0307610611081305 0.6460186778785169	-0.134805
C	0.3234064319666661 0.4580092908494884 0.1194103956765649	0.098792
C	0.2309973152923651 0.4551818775720772 0.1202999832896604	-0.138123
C	0.9654225373898264 0.8212934184027703 0.6380190878674145	0.101606
C	0.9639065333608785 0.7289193410042940 0.6435084641657591	-0.136392
C	0.9825971531378568 0.1754430810319056 0.6426754649461424	0.090883
C	0.9795618483963524 0.2675935255502178 0.6459415300221464	-0.137666
C	0.0221118693281457 0.8202747416944641 0.3576870567358413	0.090718
C	0.0243392679690740 0.7280944138310831 0.3550663810881755	-0.136251
C	0.0313043356913041 0.1751313355606325 0.3566089274366127	0.101537
C	0.0316500681553370 0.2674949917083998 0.3513476050916313	-0.135960
C	0.0040257849844840 0.3147066546474797 0.4975331398732528	0.040857
C	0.0011331815591798 0.4123942043402536 0.4974185928146356	0.256567
C	0.4979344215180779 0.8180230943926741 0.9934085143513598	0.054284
C	0.4990089718026303 0.9161457144015611 0.9981652984757504	0.245983
C	0.9950216865232723 0.6812330297664717 0.5005305377817661	0.036904
C	0.9969888413670092 0.5833989031001461 0.5005704628181388	0.249823
C	0.5011347235875533 0.1856183790399392 0.0088954498144835	0.055016
C	0.5005370139270436 0.0873830688224773 0.0097099521901750	0.250490
C	0.6837047058731472 0.9997742939001872 0.5026645360585315	0.035308
C	0.5859458660252918 0.9978129433917247 0.5038651461403731	0.248610
C	0.1838705483325160 0.5011849306202411 0.9918836061609565	0.053597
C	0.0857201894513247 0.5022239366912357 0.9943219375191370	0.248777
C	0.3172298392509007 0.9959789140584857 0.4991454677332107	0.039291
C	0.4149464186651262 0.9960481837541578 0.5019127962565800	0.256853
C	0.8162966454839798 0.5036349409031027 0.0098999725558000	0.052817
C	0.9144942769732991 0.5035432402155854 0.0073814183802993	0.248132
H	0.5717764021353351 0.6386647974124107 0.7662404390068647	0.114255
H	0.5812556983335233 0.8042585861485617 0.7649834826044268	0.125334
H	0.4353868187026200 0.3637520853647204 0.7671670159006914	0.115231
H	0.4273304978472874 0.1972801610474238 0.7690043049279290	0.119441
H	0.8617979689129951 0.9507857462599483 0.2499733702568659	0.113456
H	0.6967193238438186 0.9455786156299955 0.2435856101078948	0.119769
H	0.3637147518589131 0.5716263841184318 0.7625867893945859	0.115327
H	0.1982826954055241 0.5826271127139231 0.7606331195106288	0.126548
H	0.1409748443741222 0.9537350039341501 0.2389981391903983	0.107565
H	0.3052348992468986 0.9494925637527084 0.2336813816422169	0.117720
H	0.6385781012935585 0.4332879761697692 0.7750012569111741	0.114972
H	0.8051200263575985 0.4256685841808837 0.7755361964838546	0.118951
H	0.4238768825537625 0.6386468428615741 0.2201707315748621	0.115185
H	0.4155816508509033 0.8051048983900294 0.2219972566929273	0.117557
H	0.5676908953141664 0.3660549664745630 0.2400742897272278	0.114950
H	0.5763744478868528 0.2005214525369016 0.2474996382542206	0.126436
H	0.1377337959266418 0.0400704502090420 0.7509933736060014	0.113520
H	0.3024477037440748 0.0435471766493639 0.7628949440195169	0.119019
H	0.6353772339559970 0.5728228775195076 0.2385962756300425	0.114569
H	0.8008856892289978 0.5825270288626473 0.2436070438738165	0.124902
H	0.8614386302991767 0.0499014408841306 0.7531347032150290	0.106194
H	0.6972406393429438 0.0541081669096725 0.7619744433753791	0.121643
H	0.3625242375195875 0.4279366126490433 0.2230421564282674	0.114430
H	0.1960580301392449 0.4206763024539059 0.2237194207624698	0.118135
H	0.9438349491822743 0.8604129831626965 0.7484505191079319	0.114443
H	0.9402360284883671 0.6953472483022284 0.7595195616971194	0.120116
H	0.9665018401629265 0.1373111432848519 0.7578131655085355	0.105892
H	0.9593436550852632 0.3014878841829570 0.7637932639977003	0.121355
H	0.0417501860221965 0.8581082441928476 0.2442467820929681	0.105778
H	0.0480115263493736 0.6940013265348680 0.2399290029400990	0.119540
H	0.0504685294868378 0.1362560347996434 0.2441694507575029	0.114805
H	0.0515054446061995 0.3014588196861396 0.2330602074776510	0.118849
N	0.9420629772051234 0.5404527041768837 0.6101735798861807	-0.138211
N	0.4204498275571345 0.0468174691387040 0.0085999483613406	-0.148548
N	0.5436621954767440 0.0527183393373620 0.6146773289828087	-0.137954
N	0.9557112132614253 0.4234962038936838 0.0024122708846983	-0.147892
N	0.0536283072145643 0.5438567338509426 0.3889760158531808	-0.136080
N	0.5798197931803860 0.0448118663155228 0.0111881650058339	-0.149702
N	0.9563625932994952 0.5829067515287994 0.0047628267631649	-0.147970
N	0.5458179320311911 0.9403766238770356 0.3953020931631678	-0.135180
N	0.0562801174244636 0.4553815638466076 0.3885625419834248	-0.132248
N	0.5790667543222074 0.9567321664884977 0.0011908916549350	-0.144904
N	0.4572983803964584 0.9395225934007573 0.3945315837702472	-0.131312
N	0.0444161842856314 0.5822223813577003 0.9943076028069923	-0.145154
N	0.9436714290620118 0.4518656541025177 0.6071756576872651	-0.132999
N	0.4197560050689938 0.9586418139669702 0.0065360738827236	-0.144656
N	0.0438594957422518 0.4228252701826240 0.9992561149042036	-0.147551
N	0.4551484956165388 0.0518038872425740 0.6133946126535553	-0.135416
N	0.0061649042633583 0.1299830642095449 0.4995747498547509	-0.175337
N	0.4982127351428096 0.6325101806445397 0.9939113344773370	-0.184801
N	0.9947946368669848 0.8661290680136463 0.4977427755923119	-0.173886
N	0.5014681436383042 0.3710391123097587 0.0034040670914758	-0.188854
N	0.8685012872368773 0.0013305549241827 0.5005530872440463	-0.172498
N	0.3693201013127895 0.5000197733483531 0.9933721515132381	-0.186589
N	0.1324576894231660 0.9955037539986406 0.4960543032240454	-0.175072
N	0.6308380964832241 0.5029399669583096 0.0064006914514083	-0.186101
Co	0.0004475339631757 0.9981169619786489 0.4981913095462104	0.572129
Co	0.5000523699154055 0.5016867119158532 0.9991860622205655	0.582860
Si	0.9996177698849289 0.9969278228630321 0.9985362319130535	1.703318
Si	0.4995919342141338 0.5035944471082894 0.4989104048913765	1.719508
F	0.9975578128597542 0.0012749955759502 0.2261230304135056	-0.503299
F	0.5052397365697926 0.5007237251947650 0.7221076825108376	-0.504646
F	0.0020725296221643 0.9928324025486176 0.7709334862263687	-0.503208
F	0.4940315566178703 0.5058493180588177 0.2757389285026571	-0.505104
F	0.0798377814990309 0.0762740527133374 0.9957892358041085	-0.528172
F	0.5779515659576799 0.5862246741157890 0.4947666997161195	-0.546569
F	0.9193978152776233 0.9179241540486478 0.0012105567957542	-0.527346
F	0.4213098802878905 0.4211600454059395 0.5029981462770891	-0.549758
F	0.9204641114468639 0.0776270821257970 0.9902028912692379	-0.524008
F	0.4172614395616975 0.5824624563213245 0.5086432468961362	-0.547240
F	0.0791924023474785 0.9166967081684301 0.0070451029876146	-0.523588
F	0.5825650168538700 0.4251716451564210 0.4887994731517309	-0.547916
	  	
