#======================================================================

# CRYSTAL DATA

#----------------------------------------------------------------------

data_VESTA_phase_1


_pd_phase_name                         SIFSIX_6_Ni_i
_cell_length_a                         17.66668
_cell_length_b                         17.66668
_cell_length_c                         14.78022
_cell_angle_alpha                      90
_cell_angle_beta                       90
_cell_angle_gamma                      90
_symmetry_space_group_name_H-M         P 1
_symmetry_Int_Tables_number            1

loop_
_symmetry_equiv_pos_as_xyz
   x, y, z

loop_
   _atom_site_label
   _atom_site_fract_x
   _atom_site_fract_y
   _atom_site_fract_z
   _atom_site_charge
N	0.2439170914376521 0.1326135164245210 0.1280697750730522	-0.241726
N	0.2560829085623479 0.3673864975754803 0.1280697750730522	-0.241718
N	0.3673864975754803 0.2439170914376521 0.1280697750730522	-0.241727
N	0.1326135164245210 0.2560829085623479 0.1280697750730522	-0.241718
N	0.7560828815623495 0.6326135294245256 0.3719302099269503	-0.241729
N	0.7439171184376505 0.8673864705754744 0.3719302099269503	-0.241728
N	0.6326135294245256 0.7439171184376505 0.3719302099269503	-0.241729
N	0.8673864705754744 0.7560828815623495 0.3719302099269503	-0.241729
N	0.7560828815623495 0.8673864705754744 0.8719302099269500	-0.241729
N	0.7439171184376505 0.6326135294245256 0.8719302099269500	-0.241730
N	0.6326135294245256 0.7560828815623495 0.8719302099269500	-0.241729
N	0.8673864705754744 0.7439171184376505 0.8719302099269500	-0.241730
N	0.2439170914376521 0.3673864975754803 0.6280697900730500	-0.241727
N	0.2560829085623479 0.1326135164245210 0.6280697900730500	-0.241719
N	0.3673864975754803 0.2560829085623479 0.6280697900730500	-0.241719
N	0.1326135164245210 0.2439170914376521 0.6280697900730500	-0.241726
C	0.1994924652605531 0.0962810287860330 0.1880788918798791	0.104273
C	0.1910604276895426 0.0181013141736887 0.1872590777010630	-0.183765
C	0.2324380619911226 0.9747577645125040 0.1250705958480109	0.110643
C	0.2800670322987140 0.0132283764098762 0.0647065722264161	-0.180957
C	0.2830491022163026 0.0918015759533809 0.0669439680335369	0.107176
C	0.2264566294586020 0.8916986607628189 0.1237256783161482	0.060122
C	0.2910871620848161 0.8474204007645207 0.1208852916925468	-0.173105
C	0.2865411888951402 0.7676312732378923 0.1220422596268647	0.086363
C	0.1478799164870346 0.7786463192920923 0.1246671723681954	-0.122940
C	0.1542275519380370 0.8561878581614364 0.1267085300402973	-0.136096
C	0.3005074947394509 0.4037189842139646 0.1880788918798791	0.104280
C	0.3089395323104541 0.4818986668263133 0.1872590777010630	-0.183772
C	0.2675619380088773 0.5252422354874960 0.1250705958480109	0.110646
C	0.2199329807012834 0.4867716205901200 0.0647065722264161	-0.180957
C	0.2169509117836985 0.4081984310466232 0.0669439680335369	0.107172
C	0.2735433705413979 0.6083013392371811 0.1237256783161482	0.060121
C	0.2089128789151839 0.6525795992354793 0.1208852916925468	-0.173104
C	0.2134587841048612 0.7323687267621077 0.1220422596268647	0.086374
C	0.3521200695129643 0.7213536807079077 0.1246671723681954	-0.122933
C	0.3457724480619630 0.6438121418385636 0.1267085300402973	-0.136097
C	0.4037189842139646 0.1994924652605531 0.1880788918798791	0.104272
C	0.4818986668263133 0.1910604276895426 0.1872590777010630	-0.183764
C	0.5252422354874960 0.2324380619911226 0.1250705958480109	0.110643
C	0.4867716205901200 0.2800670322987140 0.0647065722264161	-0.180955
C	0.4081984310466232 0.2830491022163026 0.0669439680335370	0.107173
C	0.6083013392371811 0.2264566294586020 0.1237256783161482	0.060122
C	0.6525795992354793 0.2910871620848161 0.1208852916925468	-0.173104
C	0.7323687267621077 0.2865411888951402 0.1220422596268647	0.086363
C	0.7213536807079077 0.1478799164870346 0.1246671723681954	-0.122940
C	0.6438121418385636 0.1542275519380370 0.1267085300402973	-0.136096
C	0.0962810287860330 0.3005074947394509 0.1880788918798791	0.104279
C	0.0181013141736887 0.3089395323104541 0.1872590777010630	-0.183772
C	0.9747577645125040 0.2675619380088773 0.1250705958480109	0.110646
C	0.0132283764098762 0.2199329807012834 0.0647065722264161	-0.180957
C	0.0918015759533809 0.2169509117836985 0.0669439680335370	0.107174
C	0.8916986607628189 0.2735433705413979 0.1237256783161482	0.060121
C	0.8474204007645207 0.2089128789151839 0.1208852916925468	-0.173106
C	0.7676312732378923 0.2134587841048612 0.1220422596268647	0.086374
C	0.7786463192920923 0.3521200695129643 0.1246671723681954	-0.122933
C	0.8561878581614364 0.3457724480619630 0.1267085300402973	-0.136098
C	0.8005075477394444 0.5962810157860355 0.3119211241201221	0.104282
C	0.8089395853104548 0.5181012791736821 0.3127408912989380	-0.183770
C	0.7675619380088776 0.4747577645125040 0.3749293721519866	0.110645
C	0.7199329407012872 0.5132284334098773 0.4352934317735842	-0.180957
C	0.7169508717836951 0.5918016229533811 0.4330560719664592	0.107175
C	0.7735434505413977 0.3916987137628200 0.3762743136838512	0.060196
C	0.7089128649151828 0.3474203477645199 0.3791147003074524	-0.171997
C	0.7134588111048596 0.2676311932378930 0.3779577403731354	0.083965
C	0.8521200965129702 0.2786462922920935 0.3753328116318032	-0.121857
C	0.8457723950619621 0.3561878321614343 0.3732915019597055	-0.136023
C	0.6994924522605556 0.9037189842139645 0.3119211241201221	0.104279
C	0.6910604146895452 0.9818986668263134 0.3127408912989380	-0.183771
C	0.7324380619911224 0.0252422414874966 0.3749293721519866	0.110647
C	0.7800670592987128 0.9867716205901200 0.4352934317735842	-0.180957
C	0.7830491282163049 0.9081984840466242 0.4330560719664592	0.107174
C	0.7264565494586023 0.1083013132371788 0.3762743136838512	0.060197
C	0.7910871350848172 0.1525796392354755 0.3791147003074524	-0.171998
C	0.7865411888951404 0.2323687797621085 0.3779577403731354	0.083975
C	0.6478799034870298 0.2213536947079089 0.3753328116318032	-0.121849
C	0.6542276049380379 0.1438121418385636 0.3732915019597055	-0.136023
C	0.5962810157860355 0.6994924522605556 0.3119211241201221	0.104281
C	0.5181012791736821 0.6910604146895452 0.3127408912989380	-0.183771
C	0.4747577645125040 0.7324380619911224 0.3749293721519866	0.110646
C	0.5132284334098773 0.7800670592987128 0.4352934317735842	-0.180956
C	0.5918016229533811 0.7830491282163049 0.4330560719664592	0.107174
C	0.3916987137628200 0.7264565494586023 0.3762743136838512	0.060196
C	0.3474203477645199 0.7910871350848172 0.3791147003074524	-0.171998
C	0.2676311932378930 0.7865411888951404 0.3779577403731354	0.083964
C	0.2786462922920935 0.6478799034870298 0.3753328116318032	-0.121856
C	0.3561878321614343 0.6542276049380379 0.3732915019597055	-0.136023
C	0.9037189842139645 0.8005075477394444 0.3119211241201221	0.104279
C	0.9818986668263134 0.8089395853104548 0.3127408912989380	-0.183768
C	0.0252422414874966 0.7675619380088776 0.3749293721519866	0.110645
C	0.9867716205901200 0.7199329407012872 0.4352934317735842	-0.180957
C	0.9081984840466242 0.7169508717836951 0.4330560719664592	0.107174
C	0.1083013132371788 0.7735434505413977 0.3762743136838512	0.060197
C	0.1525796392354755 0.7089128649151828 0.3791147003074524	-0.171998
C	0.2323687797621085 0.7134588111048596 0.3779577403731354	0.083975
C	0.2213536947079089 0.8521200965129702 0.3753328116318032	-0.121849
C	0.1438121418385636 0.8457723950619621 0.3732915019597055	-0.136023
C	0.8005075477394444 0.9037189842139645 0.8119210921201195	0.104279
C	0.8089395853104548 0.9818986668263134 0.8127409542989397	-0.183769
C	0.7675619380088776 0.0252422414874966 0.8749294361519846	0.110646
C	0.7199329407012872 0.9867716205901200 0.9352934007735852	-0.180957
C	0.7169508717836951 0.9081984840466242 0.9330560399664565	0.107174
C	0.7735434505413977 0.1083013132371788 0.8762743136838512	0.060196
C	0.7089128649151828 0.1525796392354755 0.8791147323074553	-0.171996
C	0.7134588111048596 0.2323687797621085 0.8779577723731308	0.083963
C	0.8521200965129702 0.2213536947079089 0.8753328746318051	-0.121857
C	0.8457723950619621 0.1438121418385636 0.8732915339597013	-0.136025
C	0.6994924522605556 0.5962810157860355 0.8119210921201195	0.104281
C	0.6910604146895452 0.5181012791736821 0.8127409542989397	-0.183770
C	0.7324380619911224 0.4747577645125040 0.8749294361519846	0.110645
C	0.7800670592987128 0.5132284334098773 0.9352934007735852	-0.180956
C	0.7830491282163049 0.5918016229533811 0.9330560399664565	0.107176
C	0.7264565494586023 0.3916987137628200 0.8762743136838512	0.060197
C	0.7910871350848172 0.3474203477645199 0.8791147323074553	-0.171999
C	0.7865411888951404 0.2676311932378930 0.8779577723731308	0.083974
C	0.6478799034870298 0.2786462922920935 0.8753328746318051	-0.121849
C	0.6542276049380379 0.3561878321614343 0.8732915339597013	-0.136027
C	0.5962810157860355 0.8005075477394444 0.8119210921201195	0.104279
C	0.5181012791736821 0.8089395853104548 0.8127409542989397	-0.183768
C	0.4747577645125040 0.7675619380088776 0.8749294361519846	0.110645
C	0.5132284334098773 0.7199329407012872 0.9352934007735852	-0.180957
C	0.5918016229533811 0.7169508717836951 0.9330560399664565	0.107174
C	0.3916987137628200 0.7735434505413977 0.8762743136838512	0.060196
C	0.3474203477645199 0.7089128649151828 0.8791147323074553	-0.171998
C	0.2676311932378930 0.7134588111048596 0.8779577723731308	0.083963
C	0.2786462922920935 0.8521200965129702 0.8753328746318051	-0.121857
C	0.3561878321614343 0.8457723950619621 0.8732915339597013	-0.136026
C	0.9037189842139645 0.6994924522605556 0.8119210921201195	0.104280
C	0.9818986668263134 0.6910604146895452 0.8127409542989397	-0.183769
C	0.0252422414874966 0.7324380619911224 0.8749294361519846	0.110645
C	0.9867716205901200 0.7800670592987128 0.9352934007735852	-0.180955
C	0.9081984840466242 0.7830491282163049 0.9330560399664565	0.107174
C	0.1083013132371788 0.7264565494586023 0.8762743136838512	0.060197
C	0.1525796392354755 0.7910871350848172 0.8791147323074553	-0.171998
C	0.2323687797621085 0.7865411888951404 0.8779577723731308	0.083974
C	0.2213536947079089 0.6478799034870298 0.8753328746318051	-0.121849
C	0.1438121418385636 0.6542276049380379 0.8732915339597013	-0.136027
C	0.1994924652605531 0.4037189842139646 0.6880789078798805	0.104271
C	0.1910604276895426 0.4818986668263133 0.6872590457010603	-0.183765
C	0.2324380619911226 0.5252422354874960 0.6250705638480154	0.110645
C	0.2800670322987140 0.4867716205901200 0.5647065992264148	-0.180956
C	0.2830491022163026 0.4081984310466232 0.5669439600335435	0.107174
C	0.2264566294586020 0.6083013392371811 0.6237256863161488	0.060197
C	0.2910871620848161 0.6525795992354793 0.6208852676925447	-0.171998
C	0.2865411888951402 0.7323687267621077 0.6220422276268692	0.083965
C	0.1478799164870346 0.7213536807079077 0.6246671253681949	-0.121856
C	0.1542275519380370 0.6438121418385636 0.6267084660402987	-0.136026
C	0.3005074947394509 0.0962810287860330 0.6880789078798805	0.104281
C	0.3089395323104541 0.0181013141736887 0.6872590457010603	-0.183772
C	0.2675619380088773 0.9747577645125040 0.6250705638480154	0.110645
C	0.2199329807012834 0.0132283764098762 0.5647065992264148	-0.180957
C	0.2169509117836985 0.0918015759533809 0.5669439600335435	0.107175
C	0.2735433705413979 0.8916986607628189 0.6237256863161488	0.060197
C	0.2089128789151839 0.8474204007645207 0.6208852676925447	-0.171998
C	0.2134587841048612 0.7676312732378923 0.6220422276268692	0.083976
C	0.3521200695129643 0.7786463192920923 0.6246671253681949	-0.121848
C	0.3457724480619630 0.8561878581614364 0.6267084660402987	-0.136029
C	0.4037189842139646 0.3005074947394509 0.6880789078798805	0.104279
C	0.4818986668263133 0.3089395323104541 0.6872590457010603	-0.183771
C	0.5252422354874960 0.2675619380088773 0.6250705638480154	0.110645
C	0.4867716205901200 0.2199329807012834 0.5647065992264148	-0.180955
C	0.4081984310466232 0.2169509117836985 0.5669439600335435	0.107173
C	0.6083013392371811 0.2735433705413979 0.6237256863161488	0.060197
C	0.6525795992354793 0.2089128789151839 0.6208852676925447	-0.171998
C	0.7323687267621077 0.2134587841048612 0.6220422276268692	0.083966
C	0.7213536807079077 0.3521200695129643 0.6246671253681949	-0.121856
C	0.6438121418385636 0.3457724480619630 0.6267084660402987	-0.136027
C	0.0962810287860330 0.1994924652605531 0.6880789078798805	0.104272
C	0.0181013141736887 0.1910604276895426 0.6872590457010603	-0.183765
C	0.9747577645125040 0.2324380619911226 0.6250705638480154	0.110645
C	0.0132283764098762 0.2800670322987140 0.5647065992264148	-0.180956
C	0.0918015759533809 0.2830491022163026 0.5669439600335435	0.107174
C	0.8916986607628189 0.2264566294586020 0.6237256863161488	0.060197
C	0.8474204007645207 0.2910871620848161 0.6208852676925447	-0.171999
C	0.7676312732378923 0.2865411888951402 0.6220422276268692	0.083976
C	0.7786463192920923 0.1478799164870346 0.6246671253681949	-0.121848
C	0.8561878581614364 0.1542275519380370 0.6267084660402987	-0.136029
H	0.1712904981956251 0.1313314041047394 0.2387683323381183	0.104833
H	0.1541717240012708 0.9907174427663830 0.2365391997659023	0.112941
H	0.3128587733192481 0.9820073035571577 0.0145817611537123	0.113147
H	0.3163217758975080 0.1237222717999682 0.0177261972761739	0.103930
H	0.3468156256945415 0.8741007604609167 0.1202772932088570	0.107686
H	0.0923952799380963 0.7515714760689879 0.1254505733530006	0.107699
H	0.1036453164592790 0.8916194023695847 0.1288225693791399	0.097633
H	0.3287094748043762 0.3686686228952664 0.2387683323381183	0.104825
H	0.3458283159987255 0.5092825572336170 0.2365391997659023	0.112941
H	0.1871412396807494 0.5179926964428423 0.0145817611537123	0.113147
H	0.1836782241024919 0.3762777282000319 0.0177261972761739	0.103929
H	0.1531843883054598 0.6258992395390833 0.1202772932088570	0.107684
H	0.4076047130618996 0.7484285239310121 0.1254505733530006	0.107698
H	0.3963546965407256 0.6083805976304153 0.1288225693791399	0.097634
H	0.3686686228952664 0.1712904981956251 0.2387683323381183	0.104832
H	0.5092825572336170 0.1541717240012708 0.2365391997659023	0.112942
H	0.5179926964428423 0.3128587733192481 0.0145817611537123	0.113148
H	0.3762777282000319 0.3163217758975080 0.0177261972761739	0.103930
H	0.6258992395390833 0.3468156256945415 0.1202772932088570	0.107688
H	0.7484285239310121 0.0923952799380963 0.1254505733530006	0.107698
H	0.6083805976304153 0.1036453164592790 0.1288225693791399	0.097635
H	0.1313314041047394 0.3287094748043762 0.2387683323381183	0.104826
H	0.9907174427663830 0.3458283159987255 0.2365391997659023	0.112941
H	0.9820073035571577 0.1871412396807494 0.0145817611537123	0.113148
H	0.1237222717999682 0.1836782241024919 0.0177261972761739	0.103930
H	0.8741007604609167 0.1531843883054598 0.1202772932088570	0.107685
H	0.7515714760689879 0.4076047130618996 0.1254505733530006	0.107698
H	0.8916194023695847 0.3963546965407256 0.1288225693791399	0.097635
H	0.8287094748043761 0.6313314311047380 0.2612316836618831	0.104829
H	0.8458282349987293 0.4907174967663803 0.2634608002340978	0.112943
H	0.6871412266807516 0.4820073035571577 0.4854182408462878	0.113147
H	0.6836782771024926 0.6237222987999671 0.4822738007238259	0.103930
H	0.6531843743054588 0.3741007064609197 0.3797227147911437	0.107706
H	0.9076046600618985 0.2515715030689870 0.3745494186469987	0.107720
H	0.8963546695407271 0.3916194283695799 0.3711774386208607	0.097661
H	0.6712905251956239 0.8686685688952620 0.2612316836618831	0.104830
H	0.6541717650012707 0.0092825192336139 0.2634608002340978	0.112944
H	0.8128587733192484 0.0179926954428387 0.4854182408462878	0.113146
H	0.8163217228975074 0.8762777012000329 0.4822738007238259	0.103929
H	0.8468156256945412 0.1258993065390850 0.3797227147911437	0.107706
H	0.5923952869381006 0.2484284699310072 0.3745494186469987	0.107716
H	0.6036453304592729 0.1083805846304177 0.3711774386208607	0.097658
H	0.6313314311047380 0.6712905251956239 0.2612316836618831	0.104830
H	0.4907174967663803 0.6541717650012707 0.2634608002340978	0.112944
H	0.4820073035571577 0.8128587733192484 0.4854182408462878	0.113146
H	0.6237222987999671 0.8163217228975074 0.4822738007238259	0.103930
H	0.3741007064609197 0.8468156256945412 0.3797227147911437	0.107708
H	0.2515715030689870 0.5923952869381006 0.3745494186469987	0.107719
H	0.3916194283695799 0.6036453304592729 0.3711774386208607	0.097661
H	0.8686685688952620 0.8287094748043761 0.2612316836618831	0.104829
H	0.0092825192336139 0.8458282349987293 0.2634608002340978	0.112944
H	0.0179926954428387 0.6871412266807516 0.4854182408462878	0.113148
H	0.8762777012000329 0.6836782771024926 0.4822738007238259	0.103929
H	0.1258993065390850 0.6531843743054588 0.3797227147911437	0.107706
H	0.2484284699310072 0.9076046600618985 0.3745494186469987	0.107718
H	0.1083805846304177 0.8963546695407271 0.3711774386208607	0.097662
H	0.8287094748043761 0.8686685688952620 0.7612316526618841	0.104829
H	0.8458282349987293 0.0092825192336139 0.7634608152341026	0.112941
H	0.6871412266807516 0.0179926954428387 0.9854182718462868	0.113146
H	0.6836782771024926 0.8762777012000329 0.9822737367238278	0.103930
H	0.6531843743054588 0.1258993065390850 0.8797226827911409	0.107705
H	0.9076046600618985 0.2484284699310072 0.8745493556469970	0.107720
H	0.8963546695407271 0.1083805846304177 0.8711774066208581	0.097662
H	0.6712905251956239 0.6313314311047380 0.7612316526618841	0.104830
H	0.6541717650012707 0.4907174967663803 0.7634608152341026	0.112941
H	0.8128587733192484 0.4820073035571577 0.9854182718462868	0.113145
H	0.8163217228975074 0.6237222987999671 0.9822737367238278	0.103930
H	0.8468156256945412 0.3741007064609197 0.8797226827911409	0.107704
H	0.5923952869381006 0.2515715030689870 0.8745493556469970	0.107716
H	0.6036453304592729 0.3916194283695799 0.8711774066208581	0.097661
H	0.6313314311047380 0.8287094748043761 0.7612316526618841	0.104830
H	0.4907174967663803 0.8458282349987293 0.7634608152341026	0.112941
H	0.4820073035571577 0.6871412266807516 0.9854182718462868	0.113146
H	0.6237222987999671 0.6836782771024926 0.9822737367238278	0.103931
H	0.3741007064609197 0.6531843743054588 0.8797226827911409	0.107706
H	0.2515715030689870 0.9076046600618985 0.8745493556469970	0.107720
H	0.3916194283695799 0.8963546695407271 0.8711774066208581	0.097663
H	0.8686685688952620 0.6712905251956239 0.7612316526618841	0.104829
H	0.0092825192336139 0.6541717650012707 0.7634608152341026	0.112942
H	0.0179926954428387 0.8128587733192484 0.9854182718462868	0.113146
H	0.8762777012000329 0.8163217228975074 0.9822737367238278	0.103930
H	0.1258993065390850 0.8468156256945412 0.8797226827911409	0.107706
H	0.2484284699310072 0.5923952869381006 0.8745493556469970	0.107716
H	0.1083805846304177 0.6036453304592729 0.8711774066208581	0.097663
H	0.1712904981956251 0.3686686228952664 0.7387683473381159	0.104833
H	0.1541717240012708 0.5092825572336170 0.7365391847658974	0.112942
H	0.3128587733192481 0.5179926964428423 0.5145817591537122	0.113146
H	0.3163217758975080 0.3762777282000319 0.5177261992761740	0.103930
H	0.3468156256945415 0.6258992395390833 0.6202773172088591	0.107708
H	0.0923952799380963 0.7484285239310121 0.6254506443530030	0.107719
H	0.1036453164592790 0.6083805976304153 0.6288225933791419	0.097660
H	0.3287094748043762 0.1313314041047394 0.7387683473381159	0.104825
H	0.3458283159987255 0.9907174427663830 0.7365391847658974	0.112941
H	0.1871412396807494 0.9820073035571577 0.5145817591537122	0.113146
H	0.1836782241024919 0.1237222717999682 0.5177261992761740	0.103931
H	0.1531843883054598 0.8741007604609167 0.6202773172088591	0.107705
H	0.4076047130618996 0.7515714760689879 0.6254506443530030	0.107718
H	0.3963546965407256 0.8916194023695847 0.6288225933791419	0.097663
H	0.3686686228952664 0.3287094748043762 0.7387683473381159	0.104825
H	0.5092825572336170 0.3458283159987255 0.7365391847658974	0.112942
H	0.5179926964428423 0.1871412396807494 0.5145817591537122	0.113147
H	0.3762777282000319 0.1836782241024919 0.5177261992761740	0.103930
H	0.6258992395390833 0.1531843883054598 0.6202773172088591	0.107709
H	0.7484285239310121 0.4076047130618996 0.6254506443530030	0.107720
H	0.6083805976304153 0.3963546965407256 0.6288225933791419	0.097664
H	0.1313314041047394 0.1712904981956251 0.7387683473381159	0.104833
H	0.9907174427663830 0.1541717240012708 0.7365391847658974	0.112942
H	0.9820073035571577 0.3128587733192481 0.5145817591537122	0.113146
H	0.1237222717999682 0.3163217758975080 0.5177261992761740	0.103931
H	0.8741007604609167 0.3468156256945415 0.6202773172088591	0.107707
H	0.7515714760689879 0.0923952799380963 0.6254506443530030	0.107716
H	0.8916194023695847 0.1036453164592790 0.6288225933791419	0.097663
F	0.3039311990994872 0.1695300537950090 0.3783275700864476	-0.557037
F	0.1960688279005115 0.3304699462049910 0.3783275700864476	-0.557034
F	0.3304699462049910 0.3039311990994872 0.3783275700864476	-0.557036
F	0.1695300537950090 0.1960688279005115 0.3783275700864476	-0.557036
F	0.6960688009005129 0.6695299997950116 0.1216724299135525	-0.557036
F	0.8039311990994871 0.8304700002049884 0.1216724299135525	-0.557035
F	0.6695299997950116 0.8039311990994871 0.1216724299135525	-0.557035
F	0.8304700002049884 0.6960688009005129 0.1216724299135525	-0.557037
F	0.6960688009005129 0.8304700002049884 0.6216723979135500	-0.557035
F	0.8039311990994871 0.6695299997950116 0.6216723979135500	-0.557036
F	0.6695299997950116 0.6960688009005129 0.6216723979135500	-0.557036
F	0.8304700002049884 0.8039311990994871 0.6216723979135500	-0.557036
F	0.3039311990994872 0.3304699462049910 0.8783276020864500	-0.557035
F	0.1960688279005115 0.1695300537950090 0.8783276020864500	-0.557036
F	0.3304699462049910 0.1960688279005115 0.8783276020864500	-0.557035
F	0.1695300537950090 0.3039311990994872 0.8783276020864500	-0.557036
F	0.2500000000000000 0.2500000000000000 0.2615118609382282	-0.498193
F	0.2500000000000000 0.2500000000000000 0.4950239795791044	-0.499482
F	0.7500000000000000 0.7500000000000000 0.2384881550617730	-0.498192
F	0.7500000000000000 0.7500000000000000 0.0049760274208997	-0.499482
F	0.7500000000000000 0.7500000000000000 0.7384881070617689	-0.498193
F	0.7500000000000000 0.7500000000000000 0.5049760524208982	-0.499482
F	0.2500000000000000 0.2500000000000000 0.7615118929382311	-0.498194
F	0.2500000000000000 0.2500000000000000 0.9950239475791018	-0.499481
Ni	0.2500000000000000 0.2500000000000000 0.1282832940507969	0.762937
Ni	0.7500000000000000 0.7500000000000000 0.3717167219492045	0.762943
Ni	0.7500000000000000 0.7500000000000000 0.8717166909492057	0.762945
Ni	0.2500000000000000 0.2500000000000000 0.6282833090507943	0.762938
Si	0.2500000000000000 0.2500000000000000 0.3781654586968095	1.751399
Si	0.7500000000000000 0.7500000000000000 0.1218345493031911	1.751401
Si	0.7500000000000000 0.7500000000000000 0.6218345103031914	1.751401
Si	0.2500000000000000 0.2500000000000000 0.8781654896968086	1.751399
	  	
