#======================================================================

# CRYSTAL DATA

#----------------------------------------------------------------------

data_VESTA_phase_1


_pd_phase_name                         SIFSIX_1_Zn
_cell_length_a                         11.35404
_cell_length_b                         11.35404
_cell_length_c                         7.66283
_cell_angle_alpha                      90
_cell_angle_beta                       90
_cell_angle_gamma                      90
_symmetry_space_group_name_H-M         P 1
_symmetry_Int_Tables_number            1

loop_
_symmetry_equiv_pos_as_xyz
   x, y, z

loop_
   _atom_site_label
   _atom_site_fract_x
   _atom_site_fract_y
   _atom_site_fract_z
   _atom_site_charge
C	0.2509266356735569 0.4571420658114723 0.3622226501830133	0.103898
C	0.1284966328839612 0.4563648024251751 0.3571884416460623	-0.175816
C	0.7490734513264471 0.5428579771885275 0.3622226501830133	0.103898
C	0.8715034111160427 0.5436351975748248 0.3571884416460623	-0.175816
C	0.5428579771885275 0.2509266356735569 0.3622226501830133	0.103898
C	0.5436351975748248 0.1284966328839612 0.3571884416460623	-0.175816
C	0.4571420658114723 0.7490734513264471 0.3622226501830133	0.103898
C	0.4563648024251751 0.8715034111160427 0.3571884416460623	-0.175816
C	0.7490734513264471 0.4571420658114723 0.6377773198169845	0.103899
C	0.8715034111160427 0.4563648024251751 0.6428115293539315	-0.175813
C	0.2509266356735569 0.5428579771885275 0.6377773198169845	0.103899
C	0.1284966328839612 0.5436351975748248 0.6428115293539315	-0.175813
C	0.4571420658114723 0.2509266356735569 0.6377773198169845	0.103899
C	0.4563648024251751 0.1284966328839612 0.6428115293539315	-0.175813
C	0.5428579771885275 0.7490734513264471 0.6377773198169845	0.103899
C	0.5436351975748248 0.8715034111160427 0.6428115293539315	-0.175813
C	0.0650045836003481 0.5000000000000000 0.5000000000000000	0.100799
C	0.9349954923996513 0.5000000000000000 0.5000000000000000	0.100800
C	0.5000000000000000 0.0650045836003481 0.5000000000000000	0.100799
C	0.5000000000000000 0.9349954923996513 0.5000000000000000	0.100800
H	0.3029646198432602 0.4239357075422764 0.2530364184511517	0.105379
H	0.0830461093598072 0.4199674135001648 0.2439804177103582	0.120046
H	0.6970353371567397 0.5760642924577239 0.2530364184511517	0.105379
H	0.9169539066401943 0.5800325864998354 0.2439804177103582	0.120046
H	0.5760642924577239 0.3029646198432602 0.2530364184511517	0.105378
H	0.5800325864998354 0.0830461093598072 0.2439804177103582	0.120047
H	0.4239357075422764 0.6970353371567397 0.2530364184511517	0.105379
H	0.4199674135001648 0.9169539066401943 0.2439804177103582	0.120046
H	0.6970353371567397 0.4239357075422764 0.7469635525488492	0.105378
H	0.9169539066401943 0.4199674135001648 0.7560196412896434	0.120044
H	0.3029646198432602 0.5760642924577239 0.7469635525488492	0.105378
H	0.0830461093598072 0.5800325864998354 0.7560196412896434	0.120043
H	0.4239357075422764 0.3029646198432602 0.7469635525488492	0.105378
H	0.4199674135001648 0.0830461093598072 0.7560196412896434	0.120044
H	0.5760642924577239 0.6970353371567397 0.7469635525488492	0.105378
H	0.5800325864998354 0.9169539066401943 0.7560196412896434	0.120044
Zn	0.5000000000000000 0.5000000000000000 0.5000000000000000	0.733222
Si	0.5000000000000000 0.5000000000000000 0.0000000000000000	1.732943
F	0.5000000000000000 0.5000000000000000 0.7720920505738373	-0.498826
F	0.5000000000000000 0.5000000000000000 0.2279079494261626	-0.498826
F	0.3937569655752045 0.3937569655752045 0.0000000000000000	-0.544900
F	0.6062430344247961 0.6062430344247961 0.0000000000000000	-0.544900
F	0.6062430344247961 0.3937569655752045 0.0000000000000000	-0.544900
F	0.3937569655752045 0.6062430344247961 0.0000000000000000	-0.544900
N	0.3109594867878558 0.5000000000000000 0.5000000000000000	-0.230043
N	0.6890405352121461 0.5000000000000000 0.5000000000000000	-0.230043
N	0.5000000000000000 0.3109594867878558 0.5000000000000000	-0.230043
N	0.5000000000000000 0.6890405352121461 0.5000000000000000	-0.230043
	  	
