#======================================================================

# CRYSTAL DATA

#----------------------------------------------------------------------

data_VESTA_phase_1


_pd_phase_name                         SnFSIX_7_Cd
_cell_length_a                         19.78784
_cell_length_b                         19.78784
_cell_length_c                         8.56295
_cell_angle_alpha                      90
_cell_angle_beta                       90
_cell_angle_gamma                      90
_symmetry_space_group_name_H-M         P 1
_symmetry_Int_Tables_number            1

loop_
_symmetry_equiv_pos_as_xyz
   x, y, z

loop_
   _atom_site_label
   _atom_site_fract_x
   _atom_site_fract_y
   _atom_site_fract_z
   _atom_site_charge
C	0.6586794391372330 0.8754849485613532 0.6897936666647121	0.101870
C	0.6095246626498663 0.9256489054392838 0.6924864297475805	-0.172574
C	0.5776342222025893 0.8924700416060289 0.4326982795035879	-0.170214
C	0.6277593941845223 0.8434628197846163 0.4386030529496774	0.099034
C	0.8413205608627670 0.6245150514386468 0.6897936666647121	0.101870
C	0.8904753873501308 0.5743511455607169 0.6924864297475805	-0.172574
C	0.9223656767974130 0.6075300093939646 0.4326982795035880	-0.170215
C	0.8722406058154777 0.6565371802153837 0.4386030529496774	0.099037
C	0.6245150514386468 0.6586794391372330 0.6897936666647121	0.101870
C	0.5743511455607169 0.6095246626498663 0.6924864297475805	-0.172573
C	0.6075300093939646 0.5776342222025893 0.4326982795035880	-0.170214
C	0.6565371802153837 0.6277593941845223 0.4386030529496774	0.099037
C	0.8754849485613532 0.8413205608627670 0.6897936666647121	0.101871
C	0.9256489054392838 0.8904753873501308 0.6924864297475805	-0.172574
C	0.8924700416060289 0.9223656767974130 0.4326982795035879	-0.170214
C	0.8434628197846163 0.8722406058154777 0.4386030529496774	0.099034
C	0.3413205358627683 0.3754848985613491 0.3102063633352904	0.101865
C	0.3904753373501337 0.4256489054392837 0.3075136002524218	-0.172571
C	0.4223657777974109 0.3924699906060356 0.5673017204964119	-0.170214
C	0.3722405548154846 0.3434628197846162 0.5613969770503253	0.099034
C	0.1586794641372314 0.1245150884386534 0.3102063633352904	0.101871
C	0.1095246626498664 0.0743510945607162 0.3075136002524218	-0.172573
C	0.0776342032025840 0.1075300093939643 0.5673017204964119	-0.170217
C	0.1277594451845155 0.1565371682153826 0.5613969770503253	0.099056
C	0.3754848985613491 0.1586794641372314 0.3102063633352904	0.101871
C	0.4256489054392837 0.1095246626498664 0.3075136002524218	-0.172573
C	0.3924699906060356 0.0776342032025840 0.5673017204964119	-0.170214
C	0.3434628197846162 0.1277594451845155 0.5613969770503253	0.099035
C	0.1245150884386534 0.3413205358627683 0.3102063633352904	0.101866
C	0.0743510945607162 0.3904753373501337 0.3075136002524218	-0.172570
C	0.1075300093939643 0.4223657777974109 0.5673017204964119	-0.170216
C	0.1565371682153826 0.3722405548154846 0.5613969770503253	0.099056
C	0.4354828210736547 0.0677763649822918 0.4384085218400146	0.141422
C	0.4880669207713476 0.0161627842473070 0.4359130035428104	-0.121060
C	0.0645171789263454 0.4322236280177111 0.4384085218400146	0.141423
C	0.0119330472286499 0.4838371517526950 0.4359130035428104	-0.121060
C	0.4322236280177111 0.4354828210736547 0.4384085218400146	0.141422
C	0.4838371517526950 0.4880669207713476 0.4359130035428104	-0.121060
C	0.0677763649822918 0.0645171789263454 0.4384085218400146	0.141423
C	0.0161627842473070 0.0119330472286499 0.4359130035428104	-0.121061
C	0.5645171789263451 0.5677763719822886 0.5615914781599858	0.141421
C	0.5119331302286459 0.5161627982473012 0.5640870254571880	-0.121042
C	0.9354827710736578 0.9322235780177073 0.5615914781599858	0.141421
C	0.9880669207713476 0.9838372527526995 0.5640870254571880	-0.121042
C	0.5677763719822886 0.9354827710736578 0.5615914781599858	0.141421
C	0.5161627982473012 0.9880669207713476 0.5640870254571880	-0.121042
C	0.9322235780177073 0.5645171789263451 0.5615914781599858	0.141421
C	0.9838372527526995 0.5119331302286459 0.5640870254571880	-0.121042
H	0.6909665137902091 0.8661846734588644 0.7908690825575528	0.100164
H	0.6037481983896632 0.9571830547872697 0.7961435048980665	0.118267
H	0.5458316523902123 0.8958555245956588 0.3290827583573482	0.119833
H	0.6369767894495538 0.8099754657206026 0.3395442111250780	0.100470
H	0.8090334862097909 0.6338153265411356 0.7908690825575528	0.100164
H	0.8962518016103368 0.5428169962127309 0.7961435048980665	0.118268
H	0.9541683986097884 0.6041445264043419 0.3290827583573482	0.119832
H	0.8630232105504462 0.6900245342793974 0.3395442111250780	0.100470
H	0.6338153265411356 0.6909665137902091 0.7908690825575528	0.100164
H	0.5428169962127309 0.6037481983896632 0.7961435048980665	0.118267
H	0.6041445264043419 0.5458316523902123 0.3290827583573482	0.119832
H	0.6900245342793974 0.6369767894495538 0.3395442111250780	0.100470
H	0.8661846734588644 0.8090334862097909 0.7908690825575528	0.100164
H	0.9571830547872697 0.8962518016103368 0.7961435048980665	0.118267
H	0.8958555245956588 0.9541683986097884 0.3290827583573482	0.119833
H	0.8099754657206026 0.8630232105504462 0.3395442111250780	0.100470
H	0.3090335122097932 0.3661845974588652 0.2091309024424497	0.100169
H	0.3962517256103304 0.4571830037872690 0.2038564511019301	0.118267
H	0.4541683986097889 0.3958555245956587 0.6709172116426563	0.119833
H	0.3630232355504520 0.3099754917206050 0.6604557888749220	0.100470
H	0.1909665007902044 0.1338154285411371 0.2091309024424497	0.100164
H	0.1037482493896641 0.0428170122127322 0.2038564511019301	0.118267
H	0.0458315953902108 0.1041445014043434 0.6709172116426563	0.119832
H	0.1369767894495537 0.1900244962793941 0.6604557888749220	0.100456
H	0.3661845974588652 0.1909665007902044 0.2091309024424497	0.100164
H	0.4571830037872690 0.1037482493896641 0.2038564511019301	0.118267
H	0.3958555245956587 0.0458315953902108 0.6709172116426563	0.119833
H	0.3099754917206050 0.1369767894495537 0.6604557888749220	0.100470
H	0.1338154285411371 0.3090335122097932 0.2091309024424497	0.100169
H	0.0428170122127322 0.3962517256103304 0.2038564511019301	0.118267
H	0.1041445014043434 0.4541683986097889 0.6709172116426563	0.119832
H	0.1900244962793941 0.3630232355504520 0.6604557888749220	0.100456
H	0.5065576982476465 0.0016233248459410 0.3201457393525017	0.105013
H	0.9934423527523542 0.4983766471540567 0.3201457393525017	0.105011
H	0.4983766471540567 0.5065576982476465 0.3201457393525017	0.105011
H	0.0016233248459410 0.9934423527523542 0.3201457393525017	0.105013
H	0.4934423017523532 0.5016233028459460 0.6798542906474937	0.105011
H	0.0065576892476496 0.9983766471540569 0.6798542906474937	0.105009
H	0.5016233028459460 0.0065576892476496 0.6798542906474937	0.105011
H	0.9983766471540569 0.4934423017523532 0.6798542906474937	0.105009
Cd	0.2500000000000000 0.2500000000000000 0.4335694365084179	0.823710
Cd	0.7500000000000000 0.7500000000000000 0.5664305634915821	0.823710
Sn	0.2500000000000000 0.2500000000000000 0.9343504162789132	1.882565
Sn	0.7500000000000000 0.7500000000000000 0.0656495687210893	1.882565
F	0.2500000000000000 0.2500000000000000 0.1716333514214297	-0.538391
F	0.2500000000000000 0.2500000000000000 0.6967855255848877	-0.538649
F	0.7500000000000000 0.7500000000000000 0.8283666785785728	-0.538387
F	0.7500000000000000 0.7500000000000000 0.3032144744151122	-0.538649
F	0.3222016903583544 0.3204648688601698 0.9344445898502405	-0.584149
F	0.1777983346416441 0.1795351561398286 0.9344445898502405	-0.584149
F	0.1795351561398286 0.3222016903583544 0.9344445898502405	-0.584149
F	0.3204648688601698 0.1777983346416441 0.9344445898502405	-0.584148
F	0.6777983346416443 0.8204648688601697 0.0655554101497589	-0.584149
F	0.8222016653583557 0.6795351311398303 0.0655554101497589	-0.584149
F	0.8204648688601697 0.8222016653583556 0.0655554101497589	-0.584149
F	0.6795351311398303 0.6777983346416444 0.0655554101497589	-0.584149
N	0.3351329753576680 0.1676492297428005 0.4351391551366670	-0.245395
N	0.1648670496423306 0.3323507952571980 0.4351391551366670	-0.245400
N	0.3323507952571980 0.3351329753576680 0.4351391551366670	-0.245395
N	0.1676492297428005 0.1648670496423306 0.4351391551366670	-0.245399
N	0.6648670246423319 0.6676492047428021 0.5648608448633333	-0.245395
N	0.8351329753576681 0.8323507952571979 0.5648608448633333	-0.245395
N	0.6676492047428021 0.8351329753576681 0.5648608448633333	-0.245395
N	0.8323507952571979 0.6648670246423319 0.5648608448633333	-0.245395
	  	
