#======================================================================

# CRYSTAL DATA

#----------------------------------------------------------------------

data_VESTA_phase_1


_pd_phase_name                         SnFSIX_18_Cu
_cell_length_a                         13.85369
_cell_length_b                         13.51381
_cell_length_c                         8.63571
_cell_angle_alpha                      90
_cell_angle_beta                       95.19039
_cell_angle_gamma                      90
_symmetry_space_group_name_H-M         P 1
_symmetry_Int_Tables_number            1

loop_
_symmetry_equiv_pos_as_xyz
   x, y, z

loop_
   _atom_site_label
   _atom_site_fract_x
   _atom_site_fract_y
   _atom_site_fract_z
   _atom_site_charge
F	0.4029016079400573 0.3541542385853907 0.5186447304831546	-0.563795
F	0.5270547900713303 0.4700623311752165 0.7330566236279308	-0.548209
F	0.3969182526363237 0.5634562249082598 0.5199454691536124	-0.531890
F	0.9029016419400528 0.8541541695853879 0.5186447304831546	-0.563795
F	0.0270548160713256 0.9700622961752177 0.7330566236279308	-0.548208
F	0.8969182866363262 0.0634561909082639 0.5199454691536124	-0.531890
F	0.5970983550599434 0.3541542385853907 0.4813552695168459	-0.563795
F	0.4729452069286728 0.4700623311752165 0.2669433763720694	-0.548209
F	0.6030817433636763 0.5634562249082598 0.4800545318463917	-0.531889
F	0.0970983760599415 0.8541541695853879 0.4813552695168459	-0.563795
F	0.9729450719286725 0.9700622961752177 0.2669433763720694	-0.548209
F	0.1030817183636774 0.0634561909082639 0.4800545318463917	-0.531888
C	0.6842384744562739 0.1560948308268565 0.6721700790336891	-0.426636
C	0.7583243743422784 0.1522492550537027 0.8081375533031350	0.218032
C	0.7611278897112860 0.1967800811704329 0.9551782796174919	-0.149363
C	0.6886487364658961 0.2623333442169573 0.0132342947597403	-0.144559
C	0.6731415937930435 0.3631279082681220 0.9727139819624475	0.224211
C	0.7312732062281890 0.4250698907077180 0.8729877804749817	-0.432200
C	0.8913416055666850 0.2004134182396343 0.1919564997777051	-0.437312
C	0.8511963932949683 0.1690297271948900 0.0338333208827016	0.218305
C	0.6219770769556207 0.2405650507012974 0.1215216399258494	0.218461
C	0.6026249420756764 0.1489941050797290 0.2094412033811780	-0.425466
C	0.1842385244562708 0.6560948828268538 0.6721700790336891	-0.426646
C	0.2583244083422816 0.6522492380536973 0.8081375533031350	0.218077
C	0.2611278557112837 0.6967800471704301 0.9551782796174919	-0.149377
C	0.1886487364658963 0.7623333612169555 0.0132342947597403	-0.144557
C	0.1731415767930383 0.8631279422681243 0.9727139819624475	0.224211
C	0.2312732222281832 0.9250698557077188 0.8729877804749817	-0.432199
C	0.3913415045666801 0.7004133322396343 0.1919564997777051	-0.437311
C	0.3511964612949671 0.6690297271948906 0.0338333208827017	0.218306
C	0.1219770519556222 0.7405649647012976 0.1215216399258493	0.218460
C	0.1026250260756760 0.6489941740797308 0.2094412033811780	-0.425466
C	0.3157615225437297 0.1560948308268565 0.3278299219663148	-0.426630
C	0.2416756186577175 0.1522492550537027 0.1918623666968656	0.218010
C	0.2388721392887126 0.1967800811704328 0.0448216963825133	-0.149361
C	0.3113512595341031 0.2623333442169573 0.9867656962402626	-0.144558
C	0.3268584722069621 0.3631279082681220 0.0272860690375529	0.224211
C	0.2687268087718159 0.4250698907077180 0.1270122355250196	-0.432199
C	0.1086584774333183 0.2004134182396343 0.8080435482222983	-0.437312
C	0.1488035857050332 0.1690297271948900 0.9661666671172970	0.218308
C	0.3780229540443786 0.2405650507012974 0.8784783840741458	0.218460
C	0.3973749839243250 0.1489941050797290 0.7905587176188255	-0.425463
C	0.8157615225437294 0.6560948828268538 0.3278299219663148	-0.426629
C	0.7416756186577175 0.6522492380536973 0.1918623666968656	0.218010
C	0.7388721052887172 0.6967800471704301 0.0448216963825133	-0.149361
C	0.8113512595341036 0.7623333612169555 0.9867656962402626	-0.144558
C	0.8268584052069600 0.8631279422681243 0.0272860690375529	0.224211
C	0.7687267917718108 0.9250698557077188 0.1270122355250196	-0.432199
C	0.6086583934333185 0.7004133322396343 0.8080435482222983	-0.437312
C	0.6488036027050313 0.6690297271948906 0.9661666671172970	0.218308
C	0.8780229200443755 0.7405649647012976 0.8784783840741458	0.218460
C	0.8973750509243266 0.6489941740797308 0.7905587176188255	-0.425463
H	0.7172754739476547 0.1752691357639574 0.5652044508652294	0.157425
H	0.6291647464517299 0.2122267034274094 0.6897650467583567	0.143539
H	0.6483234059623468 0.0838294051452337 0.6532561736995326	0.135865
H	0.6849483782761077 0.4691504829550813 0.7900363542741339	0.147048
H	0.7778093952431023 0.3777817604780719 0.8082060860674978	0.141470
H	0.7778336677787975 0.4759032618096876 0.9458648999734440	0.129012
H	0.8678571863752786 0.0708436991700595 0.7074791779545989	0.280104
H	0.8924741886107990 0.1402731009149334 0.2773670855136248	0.147534
H	0.8465603282349725 0.2604203854134012 0.2323633771245548	0.140363
H	0.9659958443311426 0.2271096665758112 0.1899363265434110	0.143711
H	0.5799857597624318 0.1680531443534358 0.3243094656004199	0.152523
H	0.6677156670617436 0.1026621952343700 0.2250580392394204	0.152733
H	0.5444370471629614 0.1047894134233727 0.1477079848016306	0.132815
H	0.5215462826937454 0.3404226468037950 0.2135281183046517	0.274294
H	0.2172755249476555 0.6752690327639594 0.5652044508652294	0.157439
H	0.1291648304517302 0.7122266344274072 0.6897650467583567	0.143511
H	0.1483234559623440 0.5838293451452288 0.6532561736995326	0.135861
H	0.1849483952761058 0.9691504149550755 0.7900363542741339	0.147048
H	0.2778094292431049 0.8777817944780747 0.8082060860674978	0.141470
H	0.2778337007787965 0.9759032618096876 0.9458648999734440	0.129011
H	0.3678571523752830 0.5708437421700590 0.7074791779545989	0.280105
H	0.3924742556108010 0.6402730669149307 0.2773670855136248	0.147534
H	0.3465602602349740 0.7604204204134003 0.2323633771245548	0.140363
H	0.4659959113311375 0.7271097175758044 0.1899363265434110	0.143711
H	0.0799857517624302 0.6680531613534330 0.3243094656004199	0.152522
H	0.1677156330617404 0.6026621522343703 0.2250580392394204	0.152733
H	0.0444370831629644 0.6047893614233751 0.1477079848016306	0.132814
H	0.0215462676937478 0.8404226468037946 0.2135281183046517	0.274294
H	0.2827244570523500 0.1752691357639574 0.4347955811347662	0.157430
H	0.3708351525482650 0.2122267034274094 0.3102350182416446	0.143533
H	0.3516765230376578 0.0838294051452337 0.3467438263004674	0.135865
H	0.3150516167238952 0.4691504829550813 0.2099636137258707	0.147046
H	0.2221905997568940 0.3777817604780719 0.1917938819324992	0.141471
H	0.2221663282212095 0.4759032618096876 0.0541350730265575	0.129010
H	0.1321428146247182 0.0708436991700595 0.2925207270453974	0.280100
H	0.1075257343891982 0.1402731009149334 0.7226329464863779	0.147534
H	0.1534397357650258 0.2604203854134012 0.7676366228754444	0.140366
H	0.0340040846688625 0.2271096665758112 0.8100637054565847	0.143713
H	0.4200142702375715 0.1680531443534358 0.6756905343995803	0.152520
H	0.3322843949382618 0.1026621952343700 0.7749419127605752	0.152732
H	0.4555629178370392 0.1047894134233727 0.8522920551983731	0.132808
H	0.4784536783062548 0.3404226468037950 0.7864718346953478	0.274292
H	0.7827245240523452 0.6752690327639594 0.4347955811347662	0.157424
H	0.8708352535482701 0.7122266344274072 0.3102350182416446	0.143535
H	0.8516765230376580 0.5838293451452288 0.3467438263004674	0.135868
H	0.8150516167238955 0.9691504149550755 0.2099636137258707	0.147046
H	0.7221905997568937 0.8777817944780747 0.1917938819324992	0.141471
H	0.7221663282212093 0.9759032618096876 0.0541350730265575	0.129009
H	0.6321428056247207 0.5708437421700590 0.2925207270453974	0.280100
H	0.6075258433891966 0.6402730669149307 0.7226329464863779	0.147534
H	0.6534396687650237 0.7604204204134003 0.7676366228754444	0.140366
H	0.5340041206688581 0.7271097175758044 0.8100637054565847	0.143714
H	0.9200142032375687 0.6680531613534330 0.6756905343995803	0.152520
H	0.8322843279382596 0.6026621522343703 0.7749419127605752	0.152732
H	0.9555629178370393 0.6047893614233751 0.8522920551983731	0.132807
H	0.9784536443062593 0.8404226468037946 0.7864718346953478	0.274292
N	0.8413723421549032 0.1004089136975673 0.8057615098704157	-0.147935
N	0.5999779423165302 0.3992418379009785 0.0488612242410146	-0.243890
N	0.8989443146717974 0.1099310487394443 0.9407621011807854	-0.245344
N	0.5711181819759136 0.3241243039121195 0.1371929726999518	-0.145693
N	0.3413723421549029 0.6004088366975717 0.8057615098704157	-0.147940
N	0.0999780093165326 0.8992418379009781 0.0488612242410146	-0.243890
N	0.3989443486718002 0.6099310997394450 0.9407621011807854	-0.245345
N	0.0711181739759136 0.8241242689121209 0.1371929726999518	-0.145693
N	0.1586276398450958 0.1004089136975673 0.1942385381295810	-0.147902
N	0.4000219516834678 0.3992418379009785 0.9511387517589829	-0.243889
N	0.1010556553282002 0.1099310487394443 0.0592378788192130	-0.245361
N	0.4288818150240892 0.3241243039121195 0.8628070433000494	-0.145692
N	0.6586276568450932 0.6004088366975718 0.1942385381295810	-0.147903
N	0.9000220526834729 0.8992418379009781 0.9511387517589829	-0.243889
N	0.6010556803282058 0.6099310997394450 0.0592378788192130	-0.245361
N	0.9288818490240854 0.8241242689121209 0.8628070433000494	-0.145692
Sn	0.4999999979999998 0.4606588583035365 0.5000000000000000	1.835110
Sn	-0.0000000000000000 0.9606588583035369 0.5000000000000000	1.835110
Cu	0.5000000000000000 0.5085182910025970 0.0000000000000000	0.734589
Cu	-0.0000000000000000 0.0085182980026013 0.0000000000000000	0.734589
	  	
