#======================================================================

# CRYSTAL DATA

#----------------------------------------------------------------------

data_VESTA_phase_1


_pd_phase_name                         SnFSIX_13_Zn_i
_cell_length_a                         15.41736
_cell_length_b                         15.41538
_cell_length_c                         8.11182
_cell_angle_alpha                      90.20037
_cell_angle_beta                       89.69952
_cell_angle_gamma                      89.93158
_symmetry_space_group_name_H-M         P 1
_symmetry_Int_Tables_number            1

loop_
_symmetry_equiv_pos_as_xyz
   x, y, z

loop_
   _atom_site_label
   _atom_site_fract_x
   _atom_site_fract_y
   _atom_site_fract_z
   _atom_site_charge
C	0.5394996036812074 0.6859569650535412 0.8729200555482876	0.108934
C	0.5425683663356076 0.7761742786188771 0.8711588059853942	-0.148772
C	0.4641656854924280 0.3166576634691270 0.8811339429847894	0.107298
C	0.4610228044216462 0.2265134302325478 0.8800645605474535	-0.139738
C	0.8160781710404018 0.9740434665223275 0.3684217203441147	0.111104
C	0.7260624348761293 0.9713185931127708 0.3647882970101375	-0.136365
C	0.3164217874893376 0.5403715903134736 0.8713164141310535	0.107622
C	0.2262565983985508 0.5443102916116964 0.8693941176039425	-0.147076
C	0.1865704950588812 0.9714727604338180 0.3593295190034627	0.106046
C	0.2767176772509788 0.9705571007689873 0.3560012744976113	-0.135421
C	0.6853484429632419 0.4636191364665494 0.8865103275715199	0.108668
C	0.7754452367020496 0.4608887234551916 0.8843909983946789	-0.139709
C	0.4555374947811338 0.6862207272797785 0.1117265462893812	0.108517
C	0.4524846590421960 0.7763248444059982 0.1150217191046279	-0.136450
C	0.5389689685253037 0.3184733508145077 0.1292221972986813	0.107547
C	0.5413100063105213 0.2282753446203145 0.1342043252589337	-0.148343
C	0.1840560527203396 0.0195385542057341 0.6311363253386802	0.111719
C	0.2740007379733516 0.0215970915952213 0.6377171517325333	-0.137397
C	0.6835145159879373 0.5428059852816486 0.1309278903133634	0.109016
C	0.7737652914374402 0.5459105227673312 0.1344411451418172	-0.147774
C	0.8154674021792683 0.0292369980218403 0.6353565431734447	0.103449
C	0.7253624626414076 0.0298146022623449 0.6413695267422865	-0.134954
C	0.3152225544837385 0.4590240604465246 0.1119899065278130	0.107791
C	0.2250853812695255 0.4568340841086364 0.1151639135532169	-0.138851
C	0.9658072955484078 0.8139302537268668 0.6313446714440067	0.111444
C	0.9652642205003671 0.7238035620836428 0.6378081829184423	-0.136027
C	0.9842384556730022 0.1832206167681335 0.6366779589780328	0.104567
C	0.9804337491223628 0.2731850708735199 0.6401865703397954	-0.134932
C	0.0203575599179971 0.8125979473417472 0.3638090218936905	0.104372
C	0.0233178832348084 0.7226095682160429 0.3607264649610215	-0.135317
C	0.0312381964757265 0.1824113276238633 0.3640282881843413	0.110435
C	0.0305404775520984 0.2725147729125437 0.3576184521243621	-0.136369
C	0.0038965195883453 0.3189480773939245 0.4979753802014396	0.044391
C	0.0009662750825700 0.4140731804381649 0.4976790466617193	0.256291
C	0.4978371288035284 0.8223813446032379 0.9937419953323866	0.058809
C	0.4988245532947003 0.9182641142268519 0.9987774792559569	0.247577
C	0.9952552424672292 0.6770365531155437 0.5002607430199639	0.040989
C	0.9971937317788970 0.5817648741024368 0.5002371930412908	0.248322
C	0.5009745479972163 0.1812539510041713 0.0083055762247427	0.057793
C	0.5002885364972314 0.0852802208254335 0.0087902655688076	0.251848
C	0.6795453864123759 0.9998848898314834 0.5037089536343869	0.040317
C	0.5843194569727245 0.9977386263071157 0.5045253462603875	0.248550
C	0.1795441358070531 0.5011885048028315 0.9925784941244672	0.057897
C	0.0836541048186557 0.5022003375612141 0.9953799650820977	0.248862
C	0.3215006157572955 0.9961415374487437 0.4979222580339073	0.044014
C	0.4166445263992999 0.9961454478189765 0.5011805735136758	0.255770
C	0.8207114046614576 0.5036065574426275 0.0097982583994707	0.057335
C	0.9166617577199124 0.5034508300308785 0.0068177565000812	0.249278
H	0.5705956545742369 0.6476780013273705 0.7757297336277459	0.101375
H	0.5784645807362302 0.8091377493264028 0.7739192703936738	0.125993
H	0.4367522511110432 0.3542430861783870 0.7801056392090403	0.102218
H	0.4302522452124324 0.1919892151237117 0.7788224284601907	0.119566
H	0.8540764024954033 0.9528558333004263 0.2620146713850179	0.097976
H	0.6930441493431398 0.9479139179360306 0.2550568405279767	0.122554
H	0.3548844280792287 0.5702258049977385 0.7733979305704832	0.100809
H	0.1936878207948996 0.5795397967698410 0.7714506788397388	0.125673
H	0.1500423641810758 0.9534836653787583 0.2497616130892713	0.095075
H	0.3107254481053824 0.9515664807245108 0.2435705905216924	0.117594
H	0.6476576933504510 0.4345486484439072 0.7872468493934350	0.102187
H	0.8100067260614108 0.4285762274747975 0.7841864727978353	0.119289
H	0.4247021586214374 0.6479226691405806 0.2084610140023977	0.102462
H	0.4184331057065970 0.8102644789977778 0.2138399703689687	0.117802
H	0.5668695407439249 0.3571961208684100 0.2287035632210755	0.101040
H	0.5729072181857475 0.1959312077992210 0.2367919711989581	0.125954
H	0.1453982170904316 0.0381484974644197 0.7383257864494892	0.097546
H	0.3060631744883804 0.0414001570654870 0.7509137442545034	0.121635
H	0.6447724698000338 0.5721536509483476 0.2295234597087570	0.101137
H	0.8060702451458496 0.5797170401816136 0.2349043320548211	0.125994
H	0.8527734716895878 0.0500521714364359 0.7421702416147991	0.095585
H	0.6921298789886938 0.0517779474174787 0.7526352371915507	0.122160
H	0.3531222962676971 0.4289533295949383 0.2096967392298724	0.101752
H	0.1907492313598818 0.4239853048992239 0.2144044536852931	0.118233
H	0.9443236677062854 0.8522250381889321 0.7371690131987356	0.099590
H	0.9432114423262782 0.6912301008061942 0.7492422471986954	0.121939
H	0.9678395714113442 0.1460021875059690 0.7462953551677146	0.093049
H	0.9604733103228014 0.3065763696756587 0.7525411829211947	0.120725
H	0.0401487922944718 0.8496016427778177 0.2558470601087403	0.093834
H	0.0463867796718394 0.6890455770002731 0.2507392573906104	0.120524
H	0.0503486163596904 0.1443175009589348 0.2563630058283760	0.099669
H	0.0486635020534608 0.3053670196553733 0.2439712180957511	0.121021
N	0.9459673822943401 0.5393916470536836 0.6092623072756016	-0.135987
N	0.4222952513337023 0.0454617356501389 0.0080927014332305	-0.146765
N	0.5417124848187433 0.0483549557375595 0.6151009488783723	-0.136144
N	0.9567732523604250 0.4255002572421936 0.0021025989723074	-0.146040
N	0.0497250768241378 0.5418229259768267 0.3891349615719469	-0.133987
N	0.5774904767852993 0.0438656228067742 0.0108494510903415	-0.147432
N	0.9577106846290927 0.5807530665059613 0.0046925347684202	-0.146742
N	0.5446575380755712 0.9442097238617795 0.3959534074449430	-0.133396
N	0.0520782209844545 0.4564975725188669 0.3886750075801539	-0.132260
N	0.5767849913752119 0.9581059541304496 0.0012403749539560	-0.145244
N	0.4592808143643413 0.9432533989463547 0.3947164832084403	-0.131617
N	0.0434748234745214 0.5800787182838892 0.9947837933003569	-0.145555
N	0.9474634157293936 0.4539609216704144 0.6069414153476742	-0.133118
N	0.4216204476027527 0.9596065054019547 0.0067596175085143	-0.144954
N	0.0426037406118832 0.4248571255483660 0.9996397801980994	-0.145991
N	0.4563397251434615 0.0477455058122808 0.6128674671739028	-0.135195
N	0.0080958199241223 0.1384394220251642 0.5008498008029578	-0.219793
N	0.4976854995862163 0.6419090976263016 0.9923503648164053	-0.226755
N	0.9930895097280668 0.8576629923491231 0.4969681961633338	-0.220327
N	0.5017035793585312 0.3617582204938186 0.0041142275837660	-0.229673
N	0.8601499520225157 0.0022639497289104 0.5013792803657675	-0.220008
N	0.3600088024370466 0.4993253427594057 0.9915857807763372	-0.228339
N	0.1409297675148530 0.9948423262553860 0.4945948246540072	-0.221494
N	0.6402368388244036 0.5031183633227166 0.0081753944805266	-0.227646
Zn	0.0005181065042837 0.9980195999242245 0.4981447497787138	0.734170
Zn	0.5002378607826563 0.5019273990617329 0.9991593484284044	0.733746
Sn	-0.0003024058001700 0.9968369444020222 0.9982723822496681	1.866167
Sn	0.4993249273688359 0.5034896479125784 0.4988753449752924	1.879551
F	0.9973881147323594 0.0016527390709400 0.2477678723183556	-0.520803
F	0.5073927908470900 0.4989071126378629 0.7482954911445528	-0.525417
F	0.0022665643024174 0.9931171509277303 0.7486832694977816	-0.520878
F	0.4915752887531271 0.5069340905168679 0.2494936667784234	-0.524957
F	0.0913658211967597 0.0876217345075338 0.9952591785840487	-0.559237
F	0.5884729046806400 0.5970903568795389 0.4944821645752459	-0.571988
F	0.9080796282663013 0.9062221118849138 0.0015730077166495	-0.557946
F	0.4105021124471160 0.4097290536507665 0.5038895370872957	-0.574678
F	0.9093389508428468 0.0889725000590994 0.9838374867140006	-0.557100
F	0.4062685955466810 0.5930769710448602 0.5135535934422385	-0.571680
F	0.0908008121653340 0.9055052430654096 0.0127403436529901	-0.556577
F	0.5933668891353722 0.4149132690118362 0.4837539682048932	-0.572950
	  	
