#======================================================================

# CRYSTAL DATA

#----------------------------------------------------------------------

data_VESTA_phase_1


_pd_phase_name                         SnFSIX_14_Co_i
_cell_length_a                         12.94628
_cell_length_b                         12.93538
_cell_length_c                         8.38054
_cell_angle_alpha                      87.12282
_cell_angle_beta                       86.76388
_cell_angle_gamma                      85.77494
_symmetry_space_group_name_H-M         P 1
_symmetry_Int_Tables_number            1

loop_
_symmetry_equiv_pos_as_xyz
   x, y, z

loop_
   _atom_site_label
   _atom_site_fract_x
   _atom_site_fract_y
   _atom_site_fract_z
   _atom_site_charge
C	0.5629672386544871 0.2707322868414458 0.3580262911065569	-0.171530
C	0.4558027755983945 0.2718860754866629 0.3638920066573123	0.093878
C	0.9384042215836131 0.2958669933941886 0.4061542800222319	-0.158438
C	0.0457506686602210 0.2902514273803807 0.3917642979458079	0.100935
C	0.2682039205980857 0.5616749006856835 0.3593411475595253	-0.172578
C	0.2700244088272080 0.4544023245187341 0.3656973144881255	0.096639
C	0.3017885766916892 0.9362410499767657 0.4003522165258117	-0.158660
C	0.2969702645368075 0.0435889321536526 0.3866387033146151	0.100799
C	0.9381730053462821 0.2322782115674669 0.1407010786189775	-0.171395
C	0.0454303948423663 0.2299724983853475 0.1344428463398256	0.094283
C	0.5642233640723486 0.1997948937195590 0.0973152762447187	-0.159367
C	0.4568620208841608 0.2046189900443897 0.1109279756400331	0.101227
C	0.2032612768664017 0.5605915901231292 0.0953662160965604	-0.158839
C	0.2085128748283497 0.4532508180034694 0.1096870017982217	0.101424
C	0.2286632539245725 0.9363340811357760 0.1420340598950534	-0.171231
C	0.2275578792057681 0.0435591500488177 0.1359651241809298	0.095244
C	0.4369794456232244 0.7323388242391599 0.6408779341192473	-0.171301
C	0.5441799968304541 0.7303355836938690 0.6358152799900968	0.094455
C	0.0617677726290186 0.7109398571731169 0.5892378660317901	-0.159219
C	0.9544893025899152 0.7152598920946917 0.6038633639656721	0.100777
C	0.7352321381102002 0.4381088167872793 0.6401539628954068	-0.171419
C	0.7329750099984592 0.5453800610029998 0.6346505382319064	0.095552
C	0.6993209888244157 0.0640208420946321 0.5969229290262146	-0.156985
C	0.7038674391945441 0.9566204933215078 0.6106004221274016	0.100845
C	0.0618472513894393 0.7638171098061440 0.8610081458093601	-0.171096
C	0.9545986167403753 0.7661775311827860 0.8665758761632660	0.096612
C	0.4358327128924860 0.7955839032618151 0.9067634554998841	-0.157202
C	0.5431425018697985 0.7915298652152462 0.8927747282122226	0.100022
C	0.7948277836649843 0.4387715539837458 0.9074277425606484	-0.158967
C	0.7901085761003255 0.5461199194838018 0.8933121749945230	0.100471
C	0.7688908404391985 0.0636162808218733 0.8578145623676913	-0.171899
C	0.7707337105870234 0.9563834206895911 0.8630344813788327	0.095686
C	0.6191541296820779 0.2348955181364829 0.2207474851804754	0.195297
C	0.8827045761230653 0.2647508992818219 0.2805978011751606	0.193755
C	0.2351498076147248 0.6166336133128334 0.2201696591797738	0.195206
C	0.2656005191164869 0.8807578552995600 0.2782189456021739	0.194516
C	0.3809036230283716 0.7643370916444744 0.7806179423642440	0.194228
C	0.1172909757863948 0.7370872039839262 0.7180691237632669	0.194592
C	0.7651114897970123 0.3828999571488996 0.7809181774303435	0.194864
C	0.7340057619928054 0.1193820909445849 0.7203815421802902	0.194289
H	0.6022951905634282 0.2943874987345392 0.4602586248748041	0.117082
H	0.4109046127653801 0.2965517609261815 0.4708073193583462	0.097211
H	0.8982627969861233 0.3237273189168803 0.5148036403678737	0.126192
H	0.0908048896571552 0.3128672292196067 0.4883100477543629	0.103869
H	0.2890656814032970 0.6021710471690530 0.4624312763903685	0.116620
H	0.2926505701059730 0.4100682349742715 0.4735389654805460	0.096792
H	0.3331398597773817 0.8956378089257342 0.5056454904243836	0.127345
H	0.3233683149751016 0.0883050385576844 0.4811194312521353	0.103242
H	0.8981389417356833 0.2121449827692174 0.0369545487995614	0.115766
H	0.0899212880063029 0.2075677203894610 0.0260164635953060	0.096949
H	0.6052704077241197 0.1691684672024213 0.9911814152833669	0.126224
H	0.4124693339592220 0.1791384405730704 0.0156403568914558	0.103814
H	0.1750818115261558 0.6006114781261473 0.9874305932383863	0.126877
H	0.1853937845202672 0.4078925982498046 0.0135230424820608	0.102587
H	0.2041609138744271 0.8965198876180339 0.0406379151955044	0.117074
H	0.2020976403987402 0.0881884926277401 0.0299709262840923	0.097092
H	0.3976455147472421 0.7120831334538248 0.5365251516569671	0.115262
H	0.5893350511642275 0.7072930207139190 0.5283094076062000	0.096877
H	0.1020816104706398 0.6879558823708445 0.4779556148553883	0.126500
H	0.9099446854070942 0.6953863727848956 0.5050456814675072	0.103214
H	0.7168871097090053 0.3977072924261589 0.5355524643095699	0.113831
H	0.7115453233533603 0.5898321279738630 0.5263330922626689	0.097399
H	0.6692173560532259 0.1046000466415623 0.4907895566387834	0.126771
H	0.6782331153847558 0.9120149095813882 0.5154837021922417	0.103432
H	0.1018606486031331 0.7796982282880163 0.9670910748607143	0.113426
H	0.9097365872131613 0.7852581511620473 0.9761858557118210	0.095892
H	0.3949189358539975 0.8228092448363560 0.0151903808277198	0.125929
H	0.5873182419123549 0.8153522803387849 -0.0105427246571915	0.103781
H	0.8207984164355348 0.3986248074466932 0.0165829381182806	0.127076
H	0.8120567524447247 0.5909273124215643 -0.0091811329092677	0.102277
H	0.7914361746168793 0.1032864544032819 0.9605839649501726	0.115255
H	0.7957511053721310 0.9115273886604246 0.9690251985752111	0.097861
N	0.7739164215468374 0.2727940136207390 0.3024264597944777	-0.112455
N	0.2738966021475989 0.7719571627791469 0.2994577550431697	-0.116003
N	0.7279653551379222 0.2269857086188742 0.1993933439334149	-0.114319
N	0.2268665406644298 0.7253962493965890 0.1985528605430744	-0.115582
N	0.2260112592244269 0.7301824499046466 0.6953310336174924	-0.111835
N	0.7271949256450456 0.2281808812908974 0.6985740978016416	-0.113741
N	0.2721247311949138 0.7714807624769112 0.8028636513596671	-0.110934
N	0.7716709542695023 0.2741815832952976 0.8030446241848027	-0.112944
N	0.4026997673152264 0.2414926782336476 0.2414934520532684	-0.180299
N	0.0992442585233032 0.2563135401217273 0.2587248110038459	-0.180850
N	0.2428635528908347 0.4002378724525871 0.2420543343319544	-0.181638
N	0.2589379018116632 0.0971755571355997 0.2573081489310581	-0.180059
N	0.5972829956535464 0.7577566424807677 0.7602051749590042	-0.178669
N	0.9008753614159380 0.7442601004917743 0.7396269847622756	-0.180692
N	0.7577621864482992 0.5994425998733744 0.7599318875565980	-0.179593
N	0.7407332343850002 0.9028655118546204 0.7405975037678304	-0.180141
F	0.3632830813427955 0.1322336083184682 0.7480697106635246	-0.563290
F	0.1405825384217998 0.3618011908382738 0.7505297437160379	-0.563844
F	0.3583106221603082 0.3503865060559846 0.7052333981530076	-0.554550
F	0.1449248478192787 0.1448110567973803 0.7957955071386366	-0.554199
F	0.6325439913800210 0.8636535600593809 0.2540038472981356	-0.562559
F	0.8627780094172850 0.6417292371745922 0.2474574818425958	-0.562235
F	0.6453585220433262 0.6455475707814797 0.2941913751153886	-0.554804
F	0.8504506124217120 0.8592240808574702 0.2062626808082493	-0.555418
F	0.2431839877284079 0.2405438827393812 0.5093183397053879	-0.531012
F	0.2601678780715900 0.2550240342496020 -0.0095889855611662	-0.528773
F	0.7552835443933851 0.7593322493933257 0.4910815324595605	-0.530383
F	0.7403074721270025 0.7452826015967067 0.0096942162319587	-0.530256
Sn	0.2520483156914045 0.2471059817046899 0.7498751378840727	1.851762
Sn	0.7475767314512095 0.7526822587315912 0.2503671808271708	1.852613
Co	0.2510206956052610 0.2486398227651592 0.2498883298695187	0.606687
Co	0.7490296461849431 0.7512022223555231 0.7501737393808073	0.605027
	  	
