#======================================================================

# CRYSTAL DATA

#----------------------------------------------------------------------

data_VESTA_phase_1


_pd_phase_name                         SnFSIX_3_Co
_cell_length_a                         14.28983
_cell_length_b                         14.28983
_cell_length_c                         8.26700
_cell_angle_alpha                      90
_cell_angle_beta                       90
_cell_angle_gamma                      90
_symmetry_space_group_name_H-M         P 1
_symmetry_Int_Tables_number            1

loop_
_symmetry_equiv_pos_as_xyz
   x, y, z

loop_
   _atom_site_label
   _atom_site_fract_x
   _atom_site_fract_y
   _atom_site_fract_z
   _atom_site_charge
C	0.2697631000254285 0.4512506095855996 0.6352209515602666	0.071319
C	0.2302368999745714 0.0487493944144009 0.6352209515602666	0.071320
C	0.2302368999745714 0.4512506095855996 0.3647790164397303	0.071321
C	0.2697631000254285 0.0487493944144009 0.3647790164397303	0.071322
C	0.0487493944144009 0.2697631000254285 0.3647790164397303	0.071322
C	0.4512506095855996 0.2302368999745714 0.3647790164397303	0.071321
C	0.4512506095855996 0.2697631000254285 0.6352209515602666	0.071323
C	0.0487493944144009 0.2302368999745714 0.6352209515602666	0.071324
C	0.9512505415856009 0.2302368999745714 0.6352209515602666	0.071326
C	0.5487494584143991 0.2697631000254285 0.6352209515602666	0.071327
C	0.5487494584143991 0.2302368999745714 0.3647790164397303	0.071328
C	0.9512505415856009 0.2697631000254285 0.3647790164397303	0.071328
C	0.7302369169745692 0.0487493944144009 0.3647790164397303	0.071321
C	0.7697630830254308 0.4512506095855996 0.3647790164397303	0.071321
C	0.7697630830254308 0.0487493944144009 0.6352209515602666	0.071324
C	0.7302369169745692 0.4512506095855996 0.6352209515602666	0.071323
C	0.4512506095855996 0.7302369169745692 0.6352209515602666	0.071319
C	0.0487493944144009 0.7697630830254308 0.6352209515602666	0.071320
C	0.0487493944144009 0.7302369169745692 0.3647790164397303	0.071322
C	0.4512506095855996 0.7697630830254308 0.3647790164397303	0.071321
C	0.2302368999745714 0.5487494584143991 0.3647790164397303	0.071328
C	0.2697631000254285 0.9512505415856009 0.3647790164397303	0.071327
C	0.2697631000254285 0.5487494584143991 0.6352209515602666	0.071330
C	0.2302368999745714 0.9512505415856009 0.6352209515602666	0.071329
C	0.7697630830254308 0.9512505415856009 0.6352209515602666	0.071326
C	0.7302369169745692 0.5487494584143991 0.6352209515602666	0.071326
C	0.7302369169745692 0.9512505415856009 0.3647790164397303	0.071327
C	0.7697630830254308 0.5487494584143991 0.3647790164397303	0.071328
C	0.5487494584143991 0.7697630830254308 0.3647790164397303	0.071328
C	0.9512505415856009 0.7302369169745692 0.3647790164397303	0.071327
C	0.9512505415856009 0.7697630830254308 0.6352209515602666	0.071329
C	0.5487494584143991 0.7302369169745692 0.6352209515602666	0.071330
H	0.2861162648432648 0.4124745635272944 0.7451973239693683	0.109302
H	0.2138837011567326 0.0875254364727055 0.7451973239693683	0.109302
H	0.2138837011567326 0.4124745635272944 0.2548026450306328	0.109303
H	0.2861162648432648 0.0875254364727055 0.2548026450306328	0.109302
H	0.0875254364727055 0.2861162648432648 0.2548026450306328	0.109301
H	0.4124745635272944 0.2138837011567326 0.2548026450306328	0.109302
H	0.4124745635272944 0.2861162648432648 0.7451973239693683	0.109301
H	0.0875254364727055 0.2138837011567326 0.7451973239693683	0.109301
H	0.9124746315273002 0.2138837011567326 0.7451973239693683	0.109299
H	0.5875253684726998 0.2861162648432648 0.7451973239693683	0.109299
H	0.5875253684726998 0.2138837011567326 0.2548026450306328	0.109299
H	0.9124746315273002 0.2861162648432648 0.2548026450306328	0.109299
H	0.7138836671567369 0.0875254364727055 0.2548026450306328	0.109302
H	0.7861163328432631 0.4124745635272944 0.2548026450306328	0.109302
H	0.7861163328432631 0.0875254364727055 0.7451973239693683	0.109301
H	0.7138836671567369 0.4124745635272944 0.7451973239693683	0.109301
H	0.4124745635272944 0.7138836671567369 0.7451973239693683	0.109302
H	0.0875254364727055 0.7861163328432631 0.7451973239693683	0.109302
H	0.0875254364727055 0.7138836671567369 0.2548026450306328	0.109303
H	0.4124745635272944 0.7861163328432631 0.2548026450306328	0.109302
H	0.2138837011567326 0.5875253684726998 0.2548026450306328	0.109298
H	0.2861162648432648 0.9124746315273002 0.2548026450306328	0.109298
H	0.2861162648432648 0.5875253684726998 0.7451973239693683	0.109298
H	0.2138837011567326 0.9124746315273002 0.7451973239693683	0.109298
H	0.7861163328432631 0.9124746315273002 0.7451973239693683	0.109299
H	0.7138836671567369 0.5875253684726998 0.7451973239693683	0.109299
H	0.7138836671567369 0.9124746315273002 0.2548026450306328	0.109299
H	0.7861163328432631 0.5875253684726998 0.2548026450306328	0.109299
H	0.5875253684726998 0.7861163328432631 0.2548026450306328	0.109298
H	0.9124746315273002 0.7138836671567369 0.2548026450306328	0.109298
H	0.9124746315273002 0.7861163328432631 0.7451973239693683	0.109298
H	0.5875253684726998 0.7138836671567369 0.7451973239693683	0.109298
Co	0.2500000000000000 0.2500000000000000 0.5000000000000000	0.812545
Co	0.7500000340000028 0.2500000000000000 0.5000000000000000	0.812546
Co	0.2500000000000000 0.7500000340000028 0.5000000000000000	0.812546
Co	0.7500000340000028 0.7500000340000028 0.5000000000000000	0.812546
Sn	0.2500000000000000 0.2500000000000000 -0.0000000000000000	1.858571
Sn	0.7500000340000028 0.2500000000000000 -0.0000000000000000	1.858571
Sn	0.2500000000000000 0.7500000340000028 -0.0000000000000000	1.858571
Sn	0.7500000340000028 0.7500000340000028 -0.0000000000000000	1.858571
F	0.2500000000000000 0.2500000000000000 0.7521858986726269	-0.530496
F	0.2500000000000000 0.2500000000000000 0.2478141013273730	-0.530497
F	0.3480130450539980 0.3480130450539980 -0.0144179592587539	-0.543917
F	0.1519869549460021 0.1519869549460021 -0.0144179592587539	-0.543916
F	0.1519869549460021 0.3480130450539980 0.0144179802587521	-0.543916
F	0.3480130450539979 0.1519869549460021 0.0144179802587521	-0.543916
F	0.7500000340000028 0.2500000000000000 0.7521858986726269	-0.530496
F	0.7500000340000028 0.2500000000000000 0.2478141013273731	-0.530497
F	0.8480130790540007 0.3480130450539980 0.0144179802587521	-0.543921
F	0.6519869209459993 0.1519869549460021 0.0144179802587521	-0.543919
F	0.6519869209459993 0.3480130450539980 -0.0144179592587539	-0.543920
F	0.8480130790540007 0.1519869549460021 -0.0144179592587539	-0.543920
F	0.2500000000000000 0.7500000340000028 0.7521858986726270	-0.530496
F	0.2500000000000000 0.7500000340000028 0.2478141013273730	-0.530497
F	0.3480130450539980 0.8480130790540007 0.0144179802587521	-0.543921
F	0.1519869549460021 0.6519869209459993 0.0144179802587521	-0.543919
F	0.1519869549460021 0.8480130790540007 -0.0144179592587539	-0.543920
F	0.3480130450539980 0.6519869209459993 -0.0144179592587539	-0.543920
F	0.7500000340000028 0.7500000340000028 0.7521858986726269	-0.530496
F	0.7500000340000028 0.7500000340000028 0.2478141013273730	-0.530496
F	0.8480130790540007 0.8480130790540007 -0.0144179592587539	-0.543924
F	0.6519869209459993 0.6519869209459993 -0.0144179592587539	-0.543922
F	0.6519869209459993 0.8480130790540007 0.0144179802587521	-0.543923
F	0.8480130790540007 0.6519869209459993 0.0144179802587521	-0.543923
N	0.4025425843029532 0.2500000000000000 0.5000000000000000	-0.219861
N	0.0974574156970469 0.2500000000000000 0.5000000000000000	-0.219860
N	0.2500000000000000 0.4025425843029532 0.5000000000000000	-0.219859
N	0.2500000000000000 0.0974574156970469 0.5000000000000000	-0.219859
N	0.9025425843029532 0.2500000000000000 0.5000000000000000	-0.219862
N	0.5974574156970468 0.2500000000000000 0.5000000000000000	-0.219861
N	0.7500000340000028 0.4025425843029532 0.5000000000000000	-0.219860
N	0.7500000340000028 0.0974574156970469 0.5000000000000000	-0.219860
N	0.4025425843029532 0.7500000340000028 0.5000000000000000	-0.219860
N	0.0974574156970469 0.7500000340000028 0.5000000000000000	-0.219860
N	0.2500000000000000 0.9025425843029532 0.5000000000000000	-0.219862
N	0.2500000000000000 0.5974574156970468 0.5000000000000000	-0.219861
N	0.9025425843029532 0.7500000340000028 0.5000000000000000	-0.219863
N	0.5974574156970468 0.7500000340000028 0.5000000000000000	-0.219862
N	0.7500000340000028 0.9025425843029532 0.5000000000000000	-0.219861
N	0.7500000340000028 0.5974574156970468 0.5000000000000000	-0.219861
	  	
