#======================================================================

# CRYSTAL DATA

#----------------------------------------------------------------------

data_VESTA_phase_1


_pd_phase_name                         SnFSIX_2_Zn
_cell_length_a                         13.96741
_cell_length_b                         13.96741
_cell_length_c                         8.17503
_cell_angle_alpha                      90
_cell_angle_beta                       90
_cell_angle_gamma                      90
_symmetry_space_group_name_H-M         P 1
_symmetry_Int_Tables_number            1

loop_
_symmetry_equiv_pos_as_xyz
   x, y, z

loop_
   _atom_site_label
   _atom_site_fract_x
   _atom_site_fract_y
   _atom_site_fract_z
   _atom_site_charge
C	0.5310256769997967 0.7035239763084098 0.1318498514091822	0.102274
C	0.5316596137569881 0.8028480170464320 0.1373231426773352	-0.163529
C	0.4689743930002018 0.2964760236915902 0.1318498514091822	0.102272
C	0.4683403512430127 0.1971519649535665 0.1373231426773352	-0.163527
C	0.2964760236915902 0.5310256769997967 0.1318498514091822	0.102274
C	0.1971519649535665 0.5316596137569881 0.1373231426773352	-0.163529
C	0.7035239763084098 0.4689743930002018 0.1318498514091822	0.102272
C	0.8028480170464320 0.4683403512430127 0.1373231426773352	-0.163526
C	0.4689743930002018 0.7035239763084098 0.8681501485908175	0.102274
C	0.4683403512430127 0.8028480170464320 0.8626768273226628	-0.163528
C	0.5310256769997967 0.2964760236915902 0.8681501485908175	0.102272
C	0.5316596137569881 0.1971519649535665 0.8626768273226628	-0.163526
C	0.7035239763084098 0.5310256769997967 0.8681501485908175	0.102272
C	0.8028480170464320 0.5316596137569881 0.8626768273226628	-0.163526
C	0.2964760236915902 0.4689743930002018 0.8681501485908175	0.102275
C	0.1971519649535665 0.4683403512430127 0.8626768273226628	-0.163528
C	0.5000000000000000 0.1450307718068576 -0.0000000000000000	0.170958
C	0.5000000000000000 0.0436553822751884 -0.0000000000000000	-0.092262
C	0.5000000000000000 0.8549692281931426 -0.0000000000000000	0.170927
C	0.5000000000000000 0.9563445607248175 -0.0000000000000000	-0.092009
C	0.8549692281931426 0.5000000000000000 -0.0000000000000000	0.170958
C	0.9563445607248175 0.5000000000000000 -0.0000000000000000	-0.092263
C	0.1450307718068576 0.5000000000000000 -0.0000000000000000	0.170927
C	0.0436553822751884 0.5000000000000000 -0.0000000000000000	-0.092009
H	0.5555526818280181 0.6617358522449173 0.2365798700717766	0.096414
H	0.5565978152740816 0.8395926155416210 0.2468252960121486	0.129501
H	0.4444473181719821 0.3382640777550838 0.2365798700717766	0.096414
H	0.4434022197259179 0.1604073144583806 0.2468252960121486	0.129502
H	0.3382640777550838 0.5555526818280181 0.2365798700717766	0.096414
H	0.1604073144583806 0.5565978152740816 0.2468252960121486	0.129500
H	0.6617358522449173 0.4444473181719821 0.2365798700717766	0.096414
H	0.8395926155416210 0.4434022197259179 0.2468252960121486	0.129502
H	0.4444473181719821 0.6617358522449173 0.7634201299282235	0.096414
H	0.4434022197259179 0.8395926155416210 0.7531747339878538	0.129500
H	0.5555526818280181 0.3382640777550838 0.7634201299282235	0.096414
H	0.5565978152740816 0.1604073144583806 0.7531747339878538	0.129501
H	0.6617358522449173 0.5555526818280181 0.7634201299282234	0.096414
H	0.8395926155416210 0.5565978152740816 0.7531747339878538	0.129501
H	0.3382640777550838 0.4444473181719821 0.7634201299282235	0.096414
H	0.1604073144583806 0.4434022197259179 0.7531747339878538	0.129500
Zn	0.5000000000000000 0.5000000000000000 -0.0000000000000000	0.739984
Sn	0.5000000000000000 0.5000000000000000 0.5000000000000000	1.871290
F	0.5000000000000000 0.5000000000000000 0.7479507143270354	-0.521757
F	0.5000000000000000 0.5000000000000000 0.2520493156729602	-0.521757
F	0.6007479886101975 0.6007479886101975 0.5000000000000000	-0.567854
F	0.3992520463898019 0.6007479886101975 0.5000000000000000	-0.567854
F	0.3992520463898019 0.3992520463898019 0.5000000000000000	-0.567854
F	0.6007479886101975 0.3992520463898019 0.5000000000000000	-0.567854
N	0.5000000000000000 0.3455669028841100 -0.0000000000000000	-0.232214
N	0.5000000000000000 0.6544330621158904 -0.0000000000000000	-0.232213
N	0.6544330621158904 0.5000000000000000 -0.0000000000000000	-0.232214
N	0.3455669028841100 0.5000000000000000 -0.0000000000000000	-0.232213
	  	
