#======================================================================

# CRYSTAL DATA

#----------------------------------------------------------------------

data_VESTA_phase_1


_pd_phase_name                         SnFSIX_5_Zn_i
_cell_length_a                         19.98400
_cell_length_b                         19.98400
_cell_length_c                         16.17700
_cell_angle_alpha                      90
_cell_angle_beta                       90
_cell_angle_gamma                      90
_symmetry_space_group_name_H-M         P 1
_symmetry_Int_Tables_number            1

loop_
_symmetry_equiv_pos_as_xyz
   x, y, z

loop_
   _atom_site_label
   _atom_site_fract_x
   _atom_site_fract_y
   _atom_site_fract_z
   _atom_site_charge
F	0.3272855683381093 0.1869577948716368 0.3511910298209203	-0.577512
F	0.1727144196618897 0.3130422051283632 0.3511910298209203	-0.577516
F	0.3130422051283632 0.3272855683381093 0.3511910298209203	-0.577514
F	0.1869577948716368 0.1727144196618897 0.3511910298209203	-0.577513
F	0.6727144556618857 0.6869578188716389 0.1488089701790797	-0.577513
F	0.8272855443381143 0.8130421811283611 0.1488089701790797	-0.577514
F	0.6869578188716389 0.8272855443381143 0.1488089701790797	-0.577515
F	0.8130421811283611 0.6727144556618857 0.1488089701790797	-0.577513
F	0.6727144556618857 0.8130421811283611 0.6488090021790827	-0.577516
F	0.8272855443381143 0.6869578188716389 0.6488090021790827	-0.577512
F	0.6869578188716389 0.6727144556618857 0.6488090021790827	-0.577513
F	0.8130421811283611 0.8272855443381143 0.6488090021790827	-0.577514
F	0.3272855683381093 0.3130422051283632 0.8511909978209173	-0.577514
F	0.1727144196618897 0.1869577948716368 0.8511909978209173	-0.577513
F	0.3130422051283632 0.1727144196618897 0.8511909978209173	-0.577513
F	0.1869577948716368 0.3272855683381093 0.8511909978209173	-0.577515
F	0.2500000000000000 0.2500000000000000 0.4754456956804022	-0.523754
F	0.2500000000000000 0.2500000000000000 0.2263460986065864	-0.524816
F	0.7500000000000000 0.7500000000000000 0.0245543313195965	-0.523754
F	0.7500000000000000 0.7500000000000000 0.2736538853934123	-0.524817
F	0.7500000000000000 0.7500000000000000 0.5245543353195972	-0.523752
F	0.7500000000000000 0.7500000000000000 0.7736538853934123	-0.524818
F	0.2500000000000000 0.2500000000000000 0.9754456646804028	-0.523752
F	0.2500000000000000 0.2500000000000000 0.7263461146065877	-0.524818
N	0.3578583905210843 0.2474994558295108 0.6013755579491177	-0.233493
N	0.1421416094789157 0.2525005441704891 0.6013755579491177	-0.233492
N	0.2525005441704891 0.3578583905210843 0.6013755579491177	-0.233494
N	0.2474994558295108 0.1421416094789157 0.6013755579491177	-0.233491
N	0.6421416334789176 0.7474994318295086 0.8986244420508823	-0.233493
N	0.8578583665210824 0.7525005681704914 0.8986244420508823	-0.233492
N	0.7474994318295086 0.8578583665210824 0.8986244420508823	-0.233493
N	0.7525005681704914 0.6421416334789176 0.8986244420508823	-0.233493
N	0.6421416334789176 0.7525005681704914 0.3986244730508809	-0.233491
N	0.8578583665210824 0.7474994318295086 0.3986244730508809	-0.233490
N	0.7474994318295086 0.6421416334789176 0.3986244730508809	-0.233490
N	0.7525005681704914 0.8578583665210824 0.3986244730508809	-0.233491
N	0.3578583905210843 0.2525005441704891 0.1013755579491179	-0.233491
N	0.1421416094789157 0.2474994558295108 0.1013755579491179	-0.233489
N	0.2525005441704891 0.1421416094789157 0.1013755579491179	-0.233489
N	0.2474994558295108 0.3578583905210843 0.1013755579491179	-0.233492
C	0.3910132961133437 0.2184660396783931 0.6644049595526759	0.103718
C	0.4604401514426861 0.2171489232039167 0.6682260406652050	-0.176732
C	0.4982113256045929 0.2470984714265417 0.6051581548921844	0.107131
C	0.4628852006505472 0.2768893486567777 0.5397993076468243	-0.178611
C	0.3933560525342824 0.2760299389247537 0.5399594803414166	0.104484
C	0.5718914696167099 0.2477893690004270 0.6081871381948248	0.053783
C	0.6077617808288028 0.1921035173465979 0.6373585442501357	-0.129368
C	0.6773031724750489 0.1928558122392140 0.6398602113561253	-0.125254
C	0.7131927206512225 0.2497675018993221 0.6147034311549344	0.067234
C	0.6773272422521662 0.3058191123236790 0.5867766295854864	-0.118172
C	0.6078395534547264 0.3045724607178636 0.5827680399075036	-0.126041
C	0.1089866798866615 0.2815339843216090 0.6644049595526759	0.103715
C	0.0395597885573160 0.2828511007960854 0.6682260406652050	-0.176704
C	0.0017886533954090 0.2529015285734584 0.6051581548921844	0.107013
C	0.0371148263494514 0.2231106513432222 0.5397993076468243	-0.178572
C	0.1066439114657147 0.2239700850752483 0.5399594803414166	0.104476
C	0.9281084823832932 0.2522106069995712 0.6081871381948248	0.053862
C	0.8922382671711940 0.3078965176534013 0.6373585442501357	-0.129394
C	0.8226968275249511 0.3071441997607798 0.6398602113561253	-0.125221
C	0.7868072793487775 0.2502324741006757 0.6147034311549344	0.067228
C	0.8226728047478341 0.1941808876763210 0.5867766295854864	-0.118192
C	0.8921605425452744 0.1954275742821359 0.5827680399075036	-0.126042
C	0.2815339843216090 0.3910132961133437 0.6644049595526759	0.103720
C	0.2828511007960854 0.4604401514426861 0.6682260406652050	-0.176735
C	0.2529015285734584 0.4982113256045929 0.6051581548921844	0.107131
C	0.2231106513432222 0.4628852006505472 0.5397993076468243	-0.178608
C	0.2239700850752483 0.3933560525342824 0.5399594803414166	0.104485
C	0.2522106069995712 0.5718914696167099 0.6081871381948248	0.053768
C	0.3078965176534013 0.6077617808288028 0.6373585442501357	-0.129384
C	0.3071441997607798 0.6773031724750489 0.6398602113561253	-0.125220
C	0.2502324741006757 0.7131927206512225 0.6147034311549344	0.067180
C	0.1941808876763210 0.6773272422521662 0.5867766295854864	-0.118164
C	0.1954275742821359 0.6078395534547264 0.5827680399075036	-0.126039
C	0.2184660396783931 0.1089866798866615 0.6644049595526759	0.103714
C	0.2171489232039167 0.0395597885573160 0.6682260406652050	-0.176701
C	0.2470984714265417 0.0017886533954090 0.6051581548921844	0.107014
C	0.2768893486567777 0.0371148263494514 0.5397993076468243	-0.178574
C	0.2760299389247537 0.1066439114657147 0.5399594803414166	0.104476
C	0.2477893690004270 0.9281084823832932 0.6081871381948248	0.053881
C	0.1921035173465979 0.8922382671711940 0.6373585442501357	-0.129366
C	0.1928558122392140 0.8226968275249511 0.6398602113561253	-0.125301
C	0.2497675018993221 0.7868072793487775 0.6147034311549344	0.067311
C	0.3058191123236790 0.8226728047478341 0.5867766295854864	-0.118244
C	0.3045724607178636 0.8921605425452744 0.5827680399075036	-0.126031
C	0.6089866798866613 0.7184660876783900 0.8355950404473241	0.103726
C	0.5395598005573168 0.7171489472039115 0.8317739593347950	-0.176763
C	0.5017886743954071 0.7470985194265386 0.8948418451078156	0.107141
C	0.5371148953494534 0.7768893006567739 0.9602006923531757	-0.178593
C	0.6066439714657125 0.7760299629247487 0.9600405196585834	0.104478
C	0.4281085303832904 0.7477894410004260 0.8918128618051752	0.053768
C	0.3922382191711970 0.6921034823465984 0.8626414557498643	-0.129389
C	0.3226967555249450 0.6928557762392182 0.8601397886438747	-0.125223
C	0.2868073273487818 0.7497675258993239 0.8852965688450656	0.067224
C	0.3226727097478301 0.8058191123236793 0.9132233704145136	-0.118171
C	0.3921604705452685 0.8045723897178610 0.9172319600924964	-0.126038
C	0.8910133201133387 0.7815339123216100 0.8355950404473241	0.103725
C	0.9604401994426832 0.7828510527960885 0.8317739593347950	-0.176739
C	0.9982113736045898 0.7529014805734614 0.8948418451078156	0.107040
C	0.9628851526505505 0.7231106993432261 0.9602006923531757	-0.178560
C	0.8933560285342875 0.7239700370752513 0.9600405196585834	0.104475
C	0.0718915056167057 0.7522105589995740 0.8918128618051752	0.053785
C	0.1077617688288020 0.8078965176534016 0.8626414557498643	-0.129380
C	0.1773032204750529 0.8071441757607849 0.8601397886438747	-0.125223
C	0.2131926726512185 0.7502324741006761 0.8852965688450656	0.067227
C	0.1773272662521681 0.6941808876763207 0.9132233704145136	-0.118181
C	0.1078395294547315 0.6954275632821386 0.9172319600924964	-0.125991
C	0.7184660876783900 0.8910133201133387 0.8355950404473241	0.103726
C	0.7171489472039115 0.9604401994426832 0.8317739593347950	-0.176735
C	0.7470985194265386 0.9982113736045898 0.8948418451078156	0.107039
C	0.7768893006567739 0.9628851526505505 0.9602006923531757	-0.178563
C	0.7760299629247487 0.8933560285342875 0.9600405196585834	0.104475
C	0.7477894410004260 0.0718915056167057 0.8918128618051752	0.053785
C	0.6921034823465984 0.1077617688288020 0.8626414557498643	-0.129381
C	0.6928557762392182 0.1773032204750529 0.8601397886438747	-0.125223
C	0.7497675258993239 0.2131926726512185 0.8852965688450656	0.067225
C	0.8058191123236793 0.1773272662521681 0.9132233704145136	-0.118180
C	0.8045723897178610 0.1078395294547315 0.9172319600924964	-0.125991
C	0.7815339123216100 0.6089866798866613 0.8355950404473241	0.103726
C	0.7828510527960885 0.5395598005573168 0.8317739593347950	-0.176766
C	0.7529014805734614 0.5017886743954071 0.8948418451078156	0.107143
C	0.7231106993432261 0.5371148953494534 0.9602006923531757	-0.178589
C	0.7239700370752513 0.6066439714657125 0.9600405196585834	0.104478
C	0.7522105589995740 0.4281085303832904 0.8918128618051752	0.053768
C	0.8078965176534016 0.3922382191711970 0.8626414557498643	-0.129388
C	0.8071441757607849 0.3226967555249450 0.8601397886438747	-0.125224
C	0.7502324741006761 0.2868073273487818 0.8852965688450656	0.067225
C	0.6941808876763207 0.3226727097478301 0.9132233704145136	-0.118171
C	0.6954275632821386 0.3921604705452685 0.9172319600924964	-0.126039
C	0.6089866798866613 0.7815339123216100 0.3355950714473233	0.103728
C	0.5395598005573168 0.7828510527960885 0.3317739593347951	-0.176766
C	0.5017886743954071 0.7529014805734614 0.3948418451078159	0.107143
C	0.5371148953494534 0.7231106993432261 0.4602007233531821	-0.178589
C	0.6066439714657125 0.7239700370752513 0.4600405196585836	0.104477
C	0.4281085303832904 0.7522105589995740 0.3918128618051755	0.053772
C	0.3922382191711970 0.8078965176534016 0.3626414247498654	-0.129378
C	0.3226967555249450 0.8071441757607849 0.3601398196438737	-0.125275
C	0.2868073273487818 0.7502324741006761 0.3852964748450648	0.067300
C	0.3226727097478301 0.6941808876763207 0.4132234014145127	-0.118220
C	0.3921604705452685 0.6954275632821386 0.4172319600924964	-0.126029
C	0.8910133201133387 0.7184660876783900 0.3355950714473233	0.103723
C	0.9604401994426832 0.7171489472039115 0.3317739593347951	-0.176735
C	0.9982113736045898 0.7470985194265386 0.3948418451078159	0.107041
C	0.9628851526505505 0.7768893006567739 0.4602007233531821	-0.178564
C	0.8933560285342875 0.7760299629247487 0.4600405196585836	0.104475
C	0.0718915056167057 0.7477894410004260 0.3918128618051755	0.053787
C	0.1077617688288020 0.6921034823465984 0.3626414247498654	-0.129377
C	0.1773032204750529 0.6928557762392182 0.3601398196438737	-0.125218
C	0.2131926726512185 0.7497675258993239 0.3852964748450648	0.067187
C	0.1773272662521681 0.8058191123236793 0.4132234014145127	-0.118177
C	0.1078395294547315 0.8045723897178610 0.4172319600924964	-0.125986
C	0.7184660876783900 0.6089866798866613 0.3355950714473233	0.103728
C	0.7171489472039115 0.5395598005573168 0.3317739593347951	-0.176763
C	0.7470985194265386 0.5017886743954071 0.3948418451078159	0.107144
C	0.7768893006567739 0.5371148953494534 0.4602007233531821	-0.178591
C	0.7760299629247487 0.6066439714657125 0.4600405196585836	0.104477
C	0.7477894410004260 0.4281085303832904 0.3918128618051755	0.053772
C	0.6921034823465984 0.3922382191711970 0.3626414247498654	-0.129378
C	0.6928557762392182 0.3226967555249450 0.3601398196438737	-0.125275
C	0.7497675258993239 0.2868073273487818 0.3852964748450648	0.067302
C	0.8058191123236793 0.3226727097478301 0.4132234014145127	-0.118222
C	0.8045723897178610 0.3921604705452685 0.4172319600924964	-0.126028
C	0.7815339123216100 0.8910133201133387 0.3355950714473233	0.103725
C	0.7828510527960885 0.9604401994426832 0.3317739593347951	-0.176737
C	0.7529014805734614 0.9982113736045898 0.3948418451078159	0.107040
C	0.7231106993432261 0.9628851526505505 0.4602007233531821	-0.178561
C	0.7239700370752513 0.8933560285342875 0.4600405196585836	0.104477
C	0.7522105589995740 0.0718915056167057 0.3918128618051755	0.053786
C	0.8078965176534016 0.1077617688288020 0.3626414247498654	-0.129377
C	0.8071441757607849 0.1773032204750529 0.3601398196438737	-0.125219
C	0.7502324741006761 0.2131926726512185 0.3852964748450648	0.067185
C	0.6941808876763207 0.1773272662521681 0.4132234014145127	-0.118176
C	0.6954275632821386 0.1078395294547315 0.4172319600924964	-0.125987
C	0.3910132961133437 0.2815339843216090 0.1644049445526782	0.103720
C	0.4604401514426861 0.2828511007960854 0.1682260096652058	-0.176736
C	0.4982113256045929 0.2529015285734584 0.1051581548921842	0.107133
C	0.4628852006505472 0.2231106513432222 0.0397992726468246	-0.178607
C	0.3933560525342824 0.2239700850752483 0.0399594723414158	0.104483
C	0.5718914696167099 0.2522106069995712 0.1081871301948238	0.053767
C	0.6077617808288028 0.3078965176534013 0.1373585442501357	-0.129385
C	0.6773031724750489 0.3071441997607798 0.1398601643561249	-0.125226
C	0.7131927206512225 0.2502324741006757 0.1147035021549368	0.067229
C	0.6773272422521662 0.1941808876763210 0.0867766135854850	-0.118171
C	0.6078395534547264 0.1954275742821359 0.0827680549075012	-0.126043
C	0.1089866798866615 0.2184660396783931 0.1644049445526782	0.103713
C	0.0395597885573160 0.2171489232039167 0.1682260096652058	-0.176700
C	0.0017886533954090 0.2470984714265417 0.1051581548921842	0.107012
C	0.0371148263494514 0.2768893486567777 0.0397992726468246	-0.178576
C	0.1066439114657147 0.2760299389247537 0.0399594723414158	0.104477
C	0.9281084823832932 0.2477893690004270 0.1081871301948238	0.053877
C	0.8922382671711940 0.1921035173465979 0.1373585442501357	-0.129376
C	0.8226968275249511 0.1928558122392140 0.1398601643561249	-0.125251
C	0.7868072793487775 0.2497675018993221 0.1147035021549368	0.067240
C	0.8226728047478341 0.3058191123236790 0.0867766135854850	-0.118195
C	0.8921605425452744 0.3045724607178636 0.0827680549075012	-0.126040
C	0.2815339843216090 0.1089866798866615 0.1644049445526782	0.103713
C	0.2828511007960854 0.0395597885573160 0.1682260096652058	-0.176703
C	0.2529015285734584 0.0017886533954090 0.1051581548921842	0.107015
C	0.2231106513432222 0.0371148263494514 0.0397992726468246	-0.178572
C	0.2239700850752483 0.1066439114657147 0.0399594723414158	0.104477
C	0.2522106069995712 0.9281084823832932 0.1081871301948238	0.053862
C	0.3078965176534013 0.8922382671711940 0.1373585442501357	-0.129393
C	0.3071441997607798 0.8226968275249511 0.1398601643561249	-0.125223
C	0.2502324741006757 0.7868072793487775 0.1147035021549368	0.067232
C	0.1941808876763210 0.8226728047478341 0.0867766135854850	-0.118195
C	0.1954275742821359 0.8921605425452744 0.0827680549075012	-0.126041
C	0.2184660396783931 0.3910132961133437 0.1644049445526782	0.103722
C	0.2171489232039167 0.4604401514426861 0.1682260096652058	-0.176732
C	0.2470984714265417 0.4982113256045929 0.1051581548921842	0.107130
C	0.2768893486567777 0.4628852006505472 0.0397992726468246	-0.178610
C	0.2760299389247537 0.3933560525342824 0.0399594723414158	0.104484
C	0.2477893690004270 0.5718914696167099 0.1081871301948238	0.053782
C	0.1921035173465979 0.6077617808288028 0.1373585442501357	-0.129368
C	0.1928558122392140 0.6773031724750489 0.1398601643561249	-0.125254
C	0.2497675018993221 0.7131927206512225 0.1147035021549368	0.067236
C	0.3058191123236790 0.6773272422521662 0.0867766135854850	-0.118171
C	0.3045724607178636 0.6078395534547264 0.0827680549075012	-0.126042
H	0.3606555754584643 0.1968253620993383 0.7137311895594746	0.096621
H	0.4848617033391390 0.1946642422210689 0.7216456917401166	0.116133
H	0.4893209429050097 0.2995128830160677 0.4879208522312161	0.116134
H	0.3647333694204898 0.2980728074519435 0.4893088408840642	0.096413
H	0.5805790114434611 0.1474567943008488 0.6568155016847222	0.100423
H	0.7044542421508577 0.1492694044222058 0.6627325394697945	0.102322
H	0.7044752216737518 0.3500140590846006 0.5657511291195698	0.101946
H	0.5807890614964758 0.3484853049222328 0.5607984290608222	0.104117
H	0.1393443885415326 0.3031746619006637 0.7137311895594746	0.096620
H	0.0151383026608544 0.3053357817789330 0.7216456917401166	0.116132
H	0.0106790460949929 0.2004871289839332 0.4879208522312161	0.116128
H	0.1352666545795121 0.2019271805480556 0.4893088408840642	0.096413
H	0.9194210355565392 0.3525432056991512 0.6568155016847222	0.100437
H	0.7955457578491423 0.3507305835777932 0.6627325394697945	0.102318
H	0.7955247783262482 0.1499859529154003 0.5657511291195698	0.101953
H	0.9192109385035242 0.1515146830777733 0.5607984290608222	0.104123
H	0.3031746619006637 0.3606555754584643 0.7137311895594746	0.096621
H	0.3053357817789330 0.4848617033391390 0.7216456917401166	0.116136
H	0.2004871289839332 0.4893209429050097 0.4879208522312161	0.116133
H	0.2019271805480556 0.3647333694204898 0.4893088408840642	0.096413
H	0.3525432056991512 0.5805790114434611 0.6568155016847222	0.100436
H	0.3507305835777932 0.7044542421508577 0.6627325394697945	0.102318
H	0.1499859529154003 0.7044752216737518 0.5657511291195698	0.101951
H	0.1515146830777733 0.5807890614964758 0.5607984290608222	0.104120
H	0.1968253620993383 0.1393443885415326 0.7137311895594746	0.096620
H	0.1946642422210689 0.0151383026608544 0.7216456917401166	0.116129
H	0.2995128830160677 0.0106790460949929 0.4879208522312161	0.116129
H	0.2980728074519435 0.1352666545795121 0.4893088408840642	0.096413
H	0.1474567943008488 0.9194210355565392 0.6568155016847222	0.100427
H	0.1492694044222058 0.7955457578491423 0.6627325394697945	0.102330
H	0.3500140590846006 0.7955247783262482 0.5657511291195698	0.101958
H	0.3484853049222328 0.9192109385035242 0.5607984290608222	0.104122
H	0.6393443765415316 0.6968253620993383 0.7862688104405254	0.096620
H	0.5151382486608572 0.6946642182210665 0.7783543082598834	0.116138
H	0.5106790570949902 0.7995128830160678 0.0120791327687791	0.116129
H	0.6352666305795100 0.7980727834519414 0.0106911871159381	0.096413
H	0.4194209885565389 0.6474567943008490 0.8431844983152778	0.100437
H	0.2955457818491444 0.6492694164222066 0.8372674605302055	0.102319
H	0.2955247783262481 0.8500140590846001 0.9342488708804302	0.101949
H	0.4192109865035210 0.8484853289222277 0.9392015709391778	0.104119
H	0.8606556714584652 0.8031746859006657 0.7862688104405254	0.096620
H	0.9848616553391419 0.8053357817789335 0.7783543082598834	0.116136
H	0.9893208949050130 0.7004871169839322 0.0120791327687791	0.116127
H	0.8647332734204891 0.7019272165480586 0.0106911871159381	0.096415
H	0.0805790114434610 0.8525432056991510 0.8431844983152778	0.100434
H	0.2044542181508555 0.8507305835777934 0.8372674605302055	0.102317
H	0.2044752216737518 0.6499859889153967 0.9342488708804302	0.101949
H	0.0807890554964753 0.6515146710777723 0.9392015709391778	0.104109
H	0.6968253620993383 0.8606556714584652 0.7862688104405254	0.096620
H	0.6946642182210665 0.9848616553391419 0.7783543082598834	0.116136
H	0.7995128830160678 0.9893208949050130 0.0120791327687791	0.116128
H	0.7980727834519414 0.8647332734204891 0.0106911871159381	0.096415
H	0.6474567943008490 0.0805790114434610 0.8431844983152778	0.100436
H	0.6492694164222066 0.2044542181508555 0.8372674605302055	0.102318
H	0.8500140590846001 0.2044752216737518 0.9342488708804302	0.101948
H	0.8484853289222277 0.0807890554964753 0.9392015709391778	0.104108
H	0.8031746859006657 0.6393443765415316 0.7862688104405254	0.096620
H	0.8053357817789335 0.5151382486608572 0.7783543082598834	0.116139
H	0.7004871169839322 0.5106790570949902 0.0120791327687791	0.116128
H	0.7019272165480586 0.6352666305795100 0.0106911871159381	0.096413
H	0.8525432056991510 0.4194209885565389 0.8431844983152778	0.100435
H	0.8507305835777934 0.2955457818491444 0.8372674605302055	0.102318
H	0.6499859889153967 0.2955247783262481 0.9342488708804302	0.101950
H	0.6515146710777723 0.4192109865035210 0.9392015709391778	0.104119
H	0.6393443765415316 0.8031746859006657 0.2862688424405212	0.096619
H	0.5151382486608572 0.8053357817789335 0.2783543392598825	0.116140
H	0.5106790570949902 0.7004871169839322 0.5120791167687850	0.116128
H	0.6352666305795100 0.7019272165480586 0.5106911591159358	0.096414
H	0.4194209885565389 0.8525432056991510 0.3431844673152790	0.100438
H	0.2955457818491444 0.8507305835777934 0.3372674285302028	0.102327
H	0.2955247783262481 0.6499859889153967 0.4342489018804290	0.101958
H	0.4192109865035210 0.6515146710777723 0.4392016329391760	0.104121
H	0.8606556714584652 0.6968253620993383 0.2862688424405212	0.096621
H	0.9848616553391419 0.6946642182210665 0.2783543392598825	0.116133
H	0.9893208949050130 0.7995128830160678 0.5120791167687850	0.116126
H	0.8647332734204891 0.7980727834519414 0.5106911591159358	0.096413
H	0.0805790114434610 0.6474567943008490 0.3431844673152790	0.100434
H	0.2044542181508555 0.6492694164222066 0.3372674285302028	0.102320
H	0.2044752216737518 0.8500140590846001 0.4342489018804290	0.101947
H	0.0807890554964753 0.8484853289222277 0.4392016329391760	0.104107
H	0.6968253620993383 0.6393443765415316 0.2862688424405212	0.096619
H	0.6946642182210665 0.5151382486608572 0.2783543392598825	0.116137
H	0.7995128830160678 0.5106790570949902 0.5120791167687850	0.116129
H	0.7980727834519414 0.6352666305795100 0.5106911591159358	0.096414
H	0.6474567943008490 0.4194209885565389 0.3431844673152790	0.100439
H	0.6492694164222066 0.2955457818491444 0.3372674285302028	0.102328
H	0.8500140590846001 0.2955247783262481 0.4342489018804290	0.101956
H	0.8484853289222277 0.4192109865035210 0.4392016329391760	0.104118
H	0.8031746859006657 0.8606556714584652 0.2862688424405212	0.096620
H	0.8053357817789335 0.9848616553391419 0.2783543392598825	0.116136
H	0.7004871169839322 0.9893208949050130 0.5120791167687850	0.116125
H	0.7019272165480586 0.8647332734204891 0.5106911591159358	0.096413
H	0.8525432056991510 0.0805790114434610 0.3431844673152790	0.100433
H	0.8507305835777934 0.2044542181508555 0.3372674285302028	0.102319
H	0.6499859889153967 0.2044752216737518 0.4342489018804290	0.101949
H	0.6515146710777723 0.0807890554964753 0.4392016329391760	0.104109
H	0.3606555754584643 0.3031746619006637 0.2137311895594744	0.096620
H	0.4848617033391390 0.3053357817789330 0.2216457067401215	0.116134
H	0.4893209429050097 0.2004871289839332 0.9879209142312211	0.116132
H	0.3647333694204898 0.2019271805480556 0.9893088098840652	0.096414
H	0.5805790114434611 0.3525432056991512 0.1568155166847197	0.100435
H	0.7044542421508577 0.3507305835777932 0.1627325864697949	0.102318
H	0.7044752216737518 0.1499859529154003 0.0657510901195703	0.101948
H	0.5807890614964758 0.1515146830777733 0.0607983900608225	0.104117
H	0.1393443885415326 0.1968253620993383 0.2137311895594744	0.096620
H	0.0151383026608544 0.1946642422210689 0.2216457067401215	0.116128
H	0.0106790460949929 0.2995128830160677 0.9879209142312211	0.116127
H	0.1352666545795121 0.2980728074519435 0.9893088098840652	0.096412
H	0.9194210355565392 0.1474567943008488 0.1568155166847197	0.100424
H	0.7955457578491423 0.1492694044222058 0.1627325864697949	0.102323
H	0.7955247783262482 0.3500140590846006 0.0657510901195703	0.101949
H	0.9192109385035242 0.3484853049222328 0.0607983900608225	0.104120
H	0.3031746619006637 0.1393443885415326 0.2137311895594744	0.096620
H	0.3053357817789330 0.0151383026608544 0.2216457067401215	0.116129
H	0.2004871289839332 0.0106790460949929 0.9879209142312211	0.116126
H	0.2019271805480556 0.1352666545795121 0.9893088098840652	0.096412
H	0.3525432056991512 0.9194210355565392 0.1568155166847197	0.100435
H	0.3507305835777932 0.7955457578491423 0.1627325864697949	0.102319
H	0.1499859529154003 0.7955247783262482 0.0657510901195703	0.101951
H	0.1515146830777733 0.9192109385035242 0.0607983900608225	0.104121
H	0.1968253620993383 0.3606555754584643 0.2137311895594744	0.096620
H	0.1946642422210689 0.4848617033391390 0.2216457067401215	0.116133
H	0.2995128830160677 0.4893209429050097 0.9879209142312211	0.116133
H	0.2980728074519435 0.3647333694204898 0.9893088098840652	0.096414
H	0.1474567943008488 0.5805790114434611 0.1568155166847197	0.100423
H	0.1492694044222058 0.7044542421508577 0.1627325864697949	0.102322
H	0.3500140590846006 0.7044752216737518 0.0657510901195703	0.101946
H	0.3484853049222328 0.5807890614964758 0.0607983900608225	0.104116
Zn	0.2500000000000000 0.2500000000000000 0.6005667473081948	0.736455
Zn	0.7500000000000000 0.7500000000000000 0.8994332526918052	0.736454
Zn	0.7500000000000000 0.7500000000000000 0.3994331906918073	0.736450
Zn	0.2500000000000000 0.2500000000000000 0.1005667703081930	0.736450
Sn	0.2500000000000000 0.2500000000000000 0.3509057432982999	1.891001
Sn	0.7500000000000000 0.7500000000000000 0.1490942717016977	1.891000
Sn	0.7500000000000000 0.7500000000000000 0.6490943497016970	1.891000
Sn	0.2500000000000000 0.2500000000000000 0.8509056502983030	1.891000
	  	
