#======================================================================

# CRYSTAL DATA

#----------------------------------------------------------------------

data_VESTA_phase_1


_pd_phase_name                         SnFSIX_13_Cd_i
_cell_length_a                         15.78430
_cell_length_b                         15.78601
_cell_length_c                         8.10711
_cell_angle_alpha                      89.99186
_cell_angle_beta                       87.78506
_cell_angle_gamma                      86.31601
_symmetry_space_group_name_H-M         P 1
_symmetry_Int_Tables_number            1

loop_
_symmetry_equiv_pos_as_xyz
   x, y, z

loop_
   _atom_site_label
   _atom_site_fract_x
   _atom_site_fract_y
   _atom_site_fract_z
   _atom_site_charge
C	0.5457599914926811 0.6907427895209185 0.8624685127431392	0.113713
C	0.5514823683821526 0.7784950631484384 0.8639364682731226	-0.147680
C	0.4603854118792089 0.3111091477251867 0.8855355313330323	0.100083
C	0.4578075906941670 0.2230632087757911 0.8865894071671571	-0.141713
C	0.8108520148483184 0.9667491985323104 0.3795937262758643	0.108201
C	0.7231850684861859 0.9635302529028357 0.3741620407211506	-0.138230
C	0.3064825030223083 0.5487760279501449 0.8696181816622952	0.102475
C	0.2179457964218392 0.5538056497645623 0.8725798471432894	-0.145274
C	0.1962122099314467 0.9759763260126325 0.3488895262147180	0.098776
C	0.2843799466222541 0.9755633637761829 0.3472126432956280	-0.137568
C	0.6972382840815832 0.4493646109030009 0.9289920502464999	0.105516
C	0.7852548377501001 0.4493609436327599 0.9212429667381484	-0.143739
C	0.4520681170971542 0.6974809866464952 0.0911182818289716	0.106018
C	0.4513578496580405 0.7854646026530376 0.0967883494577364	-0.137226
C	0.5466834190036445 0.3080803630014088 0.1125107868067472	0.095940
C	0.5506823493497139 0.2197177964630928 0.1163252773721024	-0.147304
C	0.1844727726479105 0.0271475573238780 0.6186647425364016	0.106575
C	0.2720879851901790 0.0287437637833223 0.6271246472544989	-0.137730
C	0.6861459075026786 0.5483229682037678 0.1418540674866480	0.106850
C	0.7739326540598008 0.5545404476479805 0.1378867938539183	-0.145915
C	0.8003671073561428 0.0220988366157097 0.6462645804546638	0.097095
C	0.7122426398575142 0.0217665499538564 0.6503284433382597	-0.139047
C	0.3086990308296434 0.4533620232495281 0.0880051341157923	0.105041
C	0.2207091960656514 0.4518061854753069 0.0942710586703333	-0.144182
C	0.9615309847764306 0.8075968995314134 0.6166960976515357	0.107434
C	0.9602050223357248 0.7198173127186469 0.6250074990636618	-0.139873
C	0.9816874931771444 0.1920722044996249 0.6562771452149573	0.101936
C	0.9820190606089805 0.2801318568450638 0.6584817651149515	-0.137503
C	0.0196939395722943 0.8015336016528134 0.3486232712133406	0.101715
C	0.0212401206989110 0.7133644938022450 0.3469879395589829	-0.134390
C	0.0328119253543041 0.1859194663962155 0.3831282576793138	0.107695
C	0.0350151367625932 0.2736139599666654 0.3747707275343740	-0.142309
C	0.0076888690123222 0.3218151238938918 0.5143388724545941	0.044881
C	0.0041043562972073 0.4147262770086889 0.5079971668677598	0.255264
C	0.5030453843902976 0.8267867438226366 0.9825703836241764	0.059102
C	0.5046272387145024 0.9200444564574563 -0.0077536841723491	0.248483
C	0.9918438628192561 0.6715551734867784 0.4882858094086809	0.039496
C	0.9955590052194377 0.5785135979351070 0.4945215546712424	0.249359
C	0.5045146487971643 0.1764304719694355 0.0030822744746520	0.056583
C	0.5046138691769848 0.0829440179909170 0.0057128600097161	0.246998
C	0.6727090670710457 -0.0078868299796807 0.5117106918990471	0.039766
C	0.5797371534980567 0.9922309294515794 0.5092027869895537	0.247263
C	0.1743089362880009 0.5040316438744729 0.9856978226704121	0.055993
C	0.0808191095986504 0.5053057567918748 0.9929672138453176	0.246287
C	0.3232032749662323 0.0015037424134847 0.4895338412058541	0.042633
C	0.4160398671287567 0.9980328420497415 0.4967946568745877	0.256574
C	0.8244616767163119 0.5039001163590908 0.0263249305985277	0.056172
C	0.9177290756702663 0.5055955972492222 0.0159748191917524	0.248442
H	0.5795708206022985 0.6506095312851001 0.7685568784333333	0.102201
H	0.5922218771000755 0.8082501824641504 0.7723983149682707	0.125367
H	0.4287734026224000 0.3500114194731240 0.7915097785530171	0.109203
H	0.4221214233690543 0.1907084777460619 0.7959497997065378	0.121352
H	0.8520181440624727 0.9462833294789506 0.2737809752335225	0.098845
H	0.6946954702619960 0.9403831704949210 0.2640005070081655	0.124300
H	0.3435471059583018 0.5831104828466072 0.7779019212057366	0.111030
H	0.1838698590968031 0.5949203016132369 0.7860520137971992	0.125042
H	0.1634397441976573 0.9557932627730614 0.2407260436992920	0.104476
H	0.3215684803254550 0.9558273486402991 0.2363183615838701	0.112430
H	0.6636300890449173 0.4113392222290639 0.8439946955308980	0.100635
H	0.8230356485278951 0.4105895620015900 0.8310432939278621	0.114911
H	0.4165763320778615 0.6618089693917220 0.1824309046650932	0.105258
H	0.4143010088147989 0.8214144927693918 0.1921426010633167	0.116723
H	0.5775702680310867 0.3450587414911725 0.2042692582103213	0.111328
H	0.5879067250018702 0.1854300147247677 0.2082137327972679	0.125245
H	0.1428434574407111 0.0467454100007271 0.7243616542130108	0.097790
H	0.3000016745199832 0.0489547613950655 0.7401308007643145	0.124177
H	0.6448698572271936 0.5836911624332298 0.2326756160507556	0.106639
H	0.8019328677790326 0.5974978337857293 0.2224313032218160	0.124730
H	0.8337438753335628 0.0438486050721076 0.7524036924113705	0.106369
H	0.6756736932230072 0.0438577048436158 0.7602429070933825	0.114844
H	0.3473599700625937 0.4171787781304091 0.1754185560776586	0.097845
H	0.1879969064863391 0.4133964966588770 0.1850262843803885	0.116893
H	0.9397573186651775 0.8472610984149277 0.7219792146288666	0.099253
H	0.9364989983603728 0.6895855188907538 0.7367086264085376	0.121398
H	0.9612160366855242 0.1571593727591223 0.7654655413750729	0.102030
H	0.9629554674668805 0.3152682117294234 0.7708322012067299	0.116996
H	0.0422088351390108 0.8364381489496980 0.2409600001448821	0.102033
H	0.0448630687577344 0.6784766846400798 0.2371259439667045	0.115869
H	0.0516174329167478 0.1460913533740286 0.2763756117458244	0.099501
H	0.0555315184771749 0.3038919791995414 0.2606891070409962	0.122588
N	0.9495964154195855 0.5415574474983287 0.6157874195487728	-0.132223
N	0.4284436513005005 0.0483212926509978 0.0075936474118403	-0.148301
N	0.5334733646556910 0.0395316743150101 0.6239943402267671	-0.138128
N	0.9623430821812232 0.4294360849400625 0.0116598222373539	-0.148755
N	0.0455087038113101 0.5350681175550246 0.3796211897628227	-0.134091
N	0.5802802465206245 0.0381293135383913 0.0110287379653317	-0.148125
N	0.9524471114493215 0.5815344527440320 0.0061618165610987	-0.147168
N	0.5455131613154321 0.9446328291405131 0.3932436867254459	-0.129048
N	0.0504518444388485 0.4516314539410976 0.3876112476713954	-0.132673
N	0.5805216189008535 0.9544559627336234 0.0003731455553978	-0.147100
N	0.4621413536042988 0.9469339319400228 0.3879902869843301	-0.130980
N	0.0362426140763999 0.5812598980287504 0.9913744244951141	-0.146446
N	0.9532810145768753 0.4581136487462693 0.6215218940119310	-0.131744
N	0.4285575829800368 0.9646748401170724 0.0036320563973521	-0.142867
N	0.0459816265267227 0.4293446612235110 0.0021976703383793	-0.147075
N	0.4501862417069205 0.0432279494753845 0.6162417077168821	-0.135028
N	0.0053534677752418 0.1460705367530043 0.5203754695602130	-0.232113
N	0.4979283530693436 0.6511942064814666 0.9758782447069788	-0.228518
N	0.9915054122333747 0.8476261372790077 0.4817176870448319	-0.230380
N	0.5030191740579386 0.3525997714806529 -0.0018442912252439	-0.237079
N	0.8485758721921530 -0.0042769958900991 0.5130381326402299	-0.231590
N	0.3507889511166585 0.5001687361353806 0.9769592481756111	-0.232210
N	0.1474066061087834 0.0003959146024637 0.4825990172753214	-0.232237
N	0.6486160203156091 0.4974269250099352 0.0374793779245660	-0.229642
Cd	-0.0019837964720222 0.9968806546840024 0.4997871951238634	0.816044
Cd	0.5001828382437745 0.5026566152802810 -0.0012563731826017	0.814729
Sn	-0.0004498204041199 0.9951911614748868 0.9984385774795873	1.849824
Sn	0.5021394764341850 0.5135019167656244 0.5004857003565099	1.864814
F	0.9753239800299823 0.0328140199154371 0.2341444319100158	-0.527852
F	0.5509948362050620 0.4961327178109066 0.7284779651191853	-0.541720
F	0.0241370341200681 0.9576642621972872 0.7627639734001201	-0.527581
F	0.4531285302194856 0.5261031738787969 0.2711860272586110	-0.542817
F	0.0832901423154028 0.0836209548664865 0.9701621851233880	-0.561219
F	0.5828610312320931 0.6039808999233640 0.4540321283099631	-0.566132
F	0.9150463222083824 0.9075197402359564 0.0262194714844293	-0.560758
F	0.4204737649622918 0.4260005975732839 0.5594692663005378	-0.578075
F	0.9083344385282260 0.0791863082959102 0.9268523287936475	-0.544770
F	0.4199875729294840 0.6055415580370357 0.5875987239210527	-0.563223
F	0.0914151356186696 0.9118660187648621 0.0696432572555566	-0.542586
F	0.5873936199780915 0.4267509083058746 0.4047450688846533	-0.571136
	  	
