#======================================================================

# CRYSTAL DATA

#----------------------------------------------------------------------

data_VESTA_phase_1


_pd_phase_name                         SnFSIX_6_Ni_i
_cell_length_a                         17.67704
_cell_length_b                         17.67704
_cell_length_c                         15.88749
_cell_angle_alpha                      90
_cell_angle_beta                       90
_cell_angle_gamma                      90
_symmetry_space_group_name_H-M         P 1
_symmetry_Int_Tables_number            1

loop_
_symmetry_equiv_pos_as_xyz
   x, y, z

loop_
   _atom_site_label
   _atom_site_fract_x
   _atom_site_fract_y
   _atom_site_fract_z
   _atom_site_charge
N	0.2439735459440526 0.1321336239749466 0.1280115875757982	-0.244724
N	0.2560264540559474 0.3678663900250547 0.1280115875757982	-0.244723
N	0.3678663900250547 0.2439735459440526 0.1280115875757982	-0.244723
N	0.1321336239749466 0.2560264540559474 0.1280115875757982	-0.244723
N	0.7560264270559489 0.6321336369749507 0.3719883974242040	-0.244724
N	0.7439735729440511 0.8678663630250493 0.3719883974242040	-0.244722
N	0.6321336369749507 0.7439735729440511 0.3719883974242040	-0.244723
N	0.8678663630250493 0.7560264270559489 0.3719883974242040	-0.244723
N	0.7560264270559489 0.8678663630250493 0.8719883974242043	-0.244723
N	0.7439735729440511 0.6321336369749507 0.8719883974242043	-0.244725
N	0.6321336369749507 0.7560264270559489 0.8719883974242043	-0.244724
N	0.8678663630250493 0.7439735729440511 0.8719883974242043	-0.244724
N	0.2439735459440526 0.3678663900250547 0.6280116025757957	-0.244723
N	0.2560264540559474 0.1321336239749466 0.6280116025757957	-0.244725
N	0.3678663900250547 0.2560264540559474 0.6280116025757957	-0.244724
N	0.1321336239749466 0.2439735459440526 0.6280116025757957	-0.244724
C	0.2009718251870054 0.0956214765288449 0.1849772329817003	0.103069
C	0.1928342406471219 0.0175103961644967 0.1845806361697874	-0.177661
C	0.2324110850894019 0.9743232699278812 0.1251344579447345	0.112275
C	0.2782770527787843 0.0129559352699736 0.0673646830336799	-0.177415
C	0.2816073782029808 0.0914179283933101 0.0699381829324742	0.105596
C	0.2263453632237571 0.8913235241341468 0.1238489870866767	0.060553
C	0.2909809236126614 0.8472226927513499 0.1208883822033662	-0.172959
C	0.2865598375462241 0.7675613154767477 0.1220167908791096	0.084388
C	0.1477394709145096 0.7786086101395969 0.1246228433644153	-0.122984
C	0.1541128534837089 0.8561168186534350 0.1268519015791581	-0.135991
C	0.2990281348129986 0.4043785364711526 0.1849772329817003	0.103068
C	0.3071657193528747 0.4824895848355052 0.1845806361697874	-0.177660
C	0.2675889149105980 0.5256767300721188 0.1251344579447345	0.112276
C	0.2217229602212133 0.4870440617300226 0.0673646830336799	-0.177416
C	0.2183926357970204 0.4085820786066939 0.0699381829324742	0.105594
C	0.2736546367762430 0.6086764758658532 0.1238489870866767	0.060552
C	0.2090191173873383 0.6527773072486501 0.1208883822033662	-0.172958
C	0.2134401354537773 0.7324386845232523 0.1220167908791096	0.084396
C	0.3522605150854892 0.7213913898604031 0.1246228433644153	-0.122980
C	0.3458871465162910 0.6438831813465650 0.1268519015791581	-0.135991
C	0.4043785364711526 0.2009718251870054 0.1849772329817003	0.103068
C	0.4824895848355052 0.1928342406471219 0.1845806361697874	-0.177660
C	0.5256767300721188 0.2324110850894019 0.1251344579447345	0.112275
C	0.4870440617300226 0.2782770527787843 0.0673646830336799	-0.177414
C	0.4085820786066939 0.2816073782029808 0.0699381829324742	0.105594
C	0.6086764758658532 0.2263453632237571 0.1238489870866767	0.060553
C	0.6527773072486501 0.2909809236126614 0.1208883822033662	-0.172958
C	0.7324386845232523 0.2865598375462241 0.1220167908791096	0.084388
C	0.7213913898604031 0.1477394709145096 0.1246228433644153	-0.122984
C	0.6438831813465650 0.1541128534837089 0.1268519015791581	-0.135990
C	0.0956214765288449 0.2990281348129986 0.1849772329817003	0.103068
C	0.0175103961644967 0.3071657193528747 0.1845806361697874	-0.177660
C	0.9743232699278812 0.2675889149105980 0.1251344579447345	0.112276
C	0.0129559352699736 0.2217229602212133 0.0673646830336799	-0.177416
C	0.0914179283933101 0.2183926357970204 0.0699381829324742	0.105595
C	0.8913235241341468 0.2736546367762430 0.1238489870866767	0.060552
C	0.8472226927513499 0.2090191173873383 0.1208883822033662	-0.172960
C	0.7675613154767477 0.2134401354537773 0.1220167908791096	0.084396
C	0.7786086101395969 0.3522605150854892 0.1246228433644153	-0.122980
C	0.8561168186534350 0.3458871465162910 0.1268519015791581	-0.135992
C	0.7990281878129923 0.5956214635288473 0.3150227830183009	0.103070
C	0.8071657723528756 0.5175103611644901 0.3154193328302135	-0.177660
C	0.7675889149105980 0.4743232699278813 0.3748655100552627	0.112275
C	0.7217229202212172 0.5129559922699747 0.4326353209663204	-0.177416
C	0.7183925957970168 0.5914179753933104 0.4300618570675220	0.105595
C	0.7736547167762423 0.3913235771341476 0.3761510049133227	0.060552
C	0.7090191033873371 0.3472226397513491 0.3791116097966332	-0.172957
C	0.7134401624537760 0.2675612354767485 0.3779832091208906	0.084388
C	0.8522605420854952 0.2786085831395983 0.3753771406355834	-0.122984
C	0.8458870935162902 0.3561167926534332 0.3731481304208444	-0.135991
C	0.7009718121870077 0.9043785364711527 0.3150227830183009	0.103067
C	0.6928342276471244 0.9824895848355054 0.3154193328302135	-0.177661
C	0.7324110850894020 0.0256767360721191 0.3748655100552627	0.112276
C	0.7782770797787828 0.9870440617300227 0.4326353209663204	-0.177415
C	0.7816074042029832 0.9085821316066949 0.4300618570675220	0.105594
C	0.7263452832237577 0.1086764498658511 0.3761510049133227	0.060553
C	0.7909808966126629 0.1527773472486461 0.3791116097966332	-0.172958
C	0.7865598375462240 0.2324387375232529 0.3779832091208906	0.084396
C	0.6477394579145048 0.2213914038604042 0.3753771406355834	-0.122979
C	0.6541129064837098 0.1438831813465647 0.3731481304208444	-0.135990
C	0.5956214635288473 0.7009718121870077 0.3150227830183009	0.103069
C	0.5175103611644901 0.6928342276471244 0.3154193328302135	-0.177661
C	0.4743232699278813 0.7324110850894020 0.3748655100552627	0.112276
C	0.5129559922699747 0.7782770797787828 0.4326353209663204	-0.177415
C	0.5914179753933104 0.7816074042029832 0.4300618570675220	0.105594
C	0.3913235771341476 0.7263452832237577 0.3761510049133227	0.060552
C	0.3472226397513491 0.7909808966126629 0.3791116097966332	-0.172958
C	0.2675612354767485 0.7865598375462240 0.3779832091208906	0.084388
C	0.2786085831395983 0.6477394579145048 0.3753771406355834	-0.122984
C	0.3561167926534332 0.6541129064837098 0.3731481304208444	-0.135991
C	0.9043785364711527 0.7990281878129923 0.3150227830183009	0.103068
C	0.9824895848355054 0.8071657723528756 0.3154193328302135	-0.177659
C	0.0256767360721191 0.7675889149105980 0.3748655100552627	0.112275
C	0.9870440617300227 0.7217229202212172 0.4326353209663204	-0.177416
C	0.9085821316066949 0.7183925957970168 0.4300618570675220	0.105594
C	0.1086764498658511 0.7736547167762423 0.3761510049133227	0.060553
C	0.1527773472486461 0.7090191033873371 0.3791116097966332	-0.172958
C	0.2324387375232529 0.7134401624537760 0.3779832091208906	0.084396
C	0.2213914038604042 0.8522605420854952 0.3753771406355834	-0.122979
C	0.1438831813465647 0.8458870935162902 0.3731481304208444	-0.135991
C	0.7990281878129923 0.9043785364711527 0.8150227510182988	0.103068
C	0.8071657723528756 0.9824895848355054 0.8154193958302153	-0.177660
C	0.7675889149105980 0.0256767360721191 0.8748655740552609	0.112274
C	0.7217229202212172 0.9870440617300227 0.9326352899663214	-0.177426
C	0.7183925957970168 0.9085821316066949 0.9300618250675192	0.105593
C	0.7736547167762423 0.1086764498658511 0.8761510049133225	0.060552
C	0.7090191033873371 0.1527773472486461 0.8791116417966356	-0.172957
C	0.7134401624537760 0.2324387375232529 0.8779832411208860	0.084388
C	0.8522605420854952 0.2213914038604042 0.8753772036355850	-0.122985
C	0.8458870935162902 0.1438831813465647 0.8731481624208401	-0.135990
C	0.7009718121870077 0.5956214635288473 0.8150227510182988	0.103069
C	0.6928342276471244 0.5175103611644901 0.8154193958302153	-0.177660
C	0.7324110850894020 0.4743232699278813 0.8748655740552609	0.112272
C	0.7782770797787828 0.5129559922699747 0.9326352899663214	-0.177425
C	0.7816074042029832 0.5914179753933104 0.9300618250675192	0.105595
C	0.7263452832237577 0.3913235771341476 0.8761510049133225	0.060552
C	0.7909808966126629 0.3472226397513491 0.8791116417966356	-0.172959
C	0.7865598375462240 0.2675612354767485 0.8779832411208860	0.084396
C	0.6477394579145048 0.2786085831395983 0.8753772036355850	-0.122979
C	0.6541129064837098 0.3561167926534332 0.8731481624208401	-0.135992
C	0.5956214635288473 0.7990281878129923 0.8150227510182988	0.103068
C	0.5175103611644901 0.8071657723528756 0.8154193958302153	-0.177659
C	0.4743232699278813 0.7675889149105980 0.8748655740552609	0.112274
C	0.5129559922699747 0.7217229202212172 0.9326352899663214	-0.177426
C	0.5914179753933104 0.7183925957970168 0.9300618250675192	0.105594
C	0.3913235771341476 0.7736547167762423 0.8761510049133225	0.060552
C	0.3472226397513491 0.7090191033873371 0.8791116417966356	-0.172958
C	0.2675612354767485 0.7134401624537760 0.8779832411208860	0.084388
C	0.2786085831395983 0.8522605420854952 0.8753772036355850	-0.122985
C	0.3561167926534332 0.8458870935162902 0.8731481624208401	-0.135991
C	0.9043785364711527 0.7009718121870077 0.8150227510182988	0.103068
C	0.9824895848355054 0.6928342276471244 0.8154193958302153	-0.177660
C	0.0256767360721191 0.7324110850894020 0.8748655740552609	0.112273
C	0.9870440617300227 0.7782770797787828 0.9326352899663214	-0.177424
C	0.9085821316066949 0.7816074042029832 0.9300618250675192	0.105593
C	0.1086764498658511 0.7263452832237577 0.8761510049133225	0.060553
C	0.1527773472486461 0.7909808966126629 0.8791116417966356	-0.172957
C	0.2324387375232529 0.7865598375462240 0.8779832411208860	0.084396
C	0.2213914038604042 0.6477394579145048 0.8753772036355850	-0.122978
C	0.1438831813465647 0.6541129064837098 0.8731481624208401	-0.135992
C	0.2009718251870054 0.4043785364711526 0.6849772489817012	0.103067
C	0.1928342406471219 0.4824895848355052 0.6845806041697847	-0.177660
C	0.2324110850894019 0.5256767300721188 0.6251344259447391	0.112275
C	0.2782770527787843 0.4870440617300226 0.5673647100336786	-0.177415
C	0.2816073782029808 0.4085820786066939 0.5699381749324808	0.105594
C	0.2263453632237571 0.6086764758658532 0.6238489950866775	0.060553
C	0.2909809236126614 0.6527773072486501 0.6208883582033644	-0.172958
C	0.2865598375462241 0.7324386845232523 0.6220167588791140	0.084388
C	0.1477394709145096 0.7213913898604031 0.6246227963644150	-0.122984
C	0.1541128534837089 0.6438831813465650 0.6268518375791599	-0.135989
C	0.2990281348129986 0.0956214765288449 0.6849772489817012	0.103070
C	0.3071657193528747 0.0175103961644967 0.6845806041697847	-0.177660
C	0.2675889149105980 0.9743232699278812 0.6251344259447391	0.112274
C	0.2217229602212133 0.0129559352699736 0.5673647100336786	-0.177416
C	0.2183926357970204 0.0914179283933101 0.5699381749324808	0.105595
C	0.2736546367762430 0.8913235241341468 0.6238489950866775	0.060553
C	0.2090191173873383 0.8472226927513499 0.6208883582033644	-0.172958
C	0.2134401354537773 0.7675613154767477 0.6220167588791140	0.084396
C	0.3522605150854892 0.7786086101395969 0.6246227963644150	-0.122978
C	0.3458871465162910 0.8561168186534350 0.6268518375791599	-0.135992
C	0.4043785364711526 0.2990281348129986 0.6849772489817012	0.103067
C	0.4824895848355052 0.3071657193528747 0.6845806041697847	-0.177658
C	0.5256767300721188 0.2675889149105980 0.6251344259447391	0.112274
C	0.4870440617300226 0.2217229602212133 0.5673647100336786	-0.177415
C	0.4085820786066939 0.2183926357970204 0.5699381749324808	0.105595
C	0.6086764758658532 0.2736546367762430 0.6238489950866775	0.060553
C	0.6527773072486501 0.2090191173873383 0.6208883582033644	-0.172958
C	0.7324386845232523 0.2134401354537773 0.6220167588791140	0.084389
C	0.7213913898604031 0.3522605150854892 0.6246227963644150	-0.122984
C	0.6438831813465650 0.3458871465162910 0.6268518375791599	-0.135990
C	0.0956214765288449 0.2009718251870054 0.6849772489817012	0.103069
C	0.0175103961644967 0.1928342406471219 0.6845806041697847	-0.177661
C	0.9743232699278812 0.2324110850894019 0.6251344259447391	0.112276
C	0.0129559352699736 0.2782770527787843 0.5673647100336786	-0.177415
C	0.0914179283933101 0.2816073782029808 0.5699381749324808	0.105594
C	0.8913235241341468 0.2263453632237571 0.6238489950866775	0.060553
C	0.8472226927513499 0.2909809236126614 0.6208883582033644	-0.172959
C	0.7675613154767477 0.2865598375462241 0.6220167588791140	0.084396
C	0.7786086101395969 0.1477394709145096 0.6246227963644150	-0.122978
C	0.8561168186534350 0.1541128534837089 0.6268518375791599	-0.135992
H	0.1734240207411274 0.1305364167665998 0.2325600618777111	0.097589
H	0.1576615466646863 0.9899793253431086 0.2318422105492266	0.114867
H	0.3093303104569926 0.9819243813329613 0.0192295238956970	0.115795
H	0.3142253765822193 0.1233579405582926 0.0237210632318023	0.097514
H	0.3465703758670948 0.8739618740478884 0.1202535430803786	0.108947
H	0.0921962130079743 0.7515756725818340 0.1253142562097090	0.110108
H	0.1037317673291091 0.8917574070688888 0.1289571412559888	0.100485
H	0.3265759522588739 0.3694636102334061 0.2325600618777111	0.097588
H	0.3423384933353100 0.5100206746568914 0.2318422105492266	0.114867
H	0.1906697025430050 0.5180756186670387 0.0192295238956970	0.115796
H	0.1857746234177807 0.3766420594417074 0.0237210632318023	0.097514
H	0.1534296381329063 0.6260381259521116 0.1202535430803786	0.108946
H	0.4078037799920215 0.7484243274181660 0.1253142562097090	0.110108
H	0.3962682456708955 0.6082425929311112 0.1289571412559888	0.100485
H	0.3694636102334061 0.1734240207411274 0.2325600618777111	0.097588
H	0.5100206746568914 0.1576615466646863 0.2318422105492266	0.114868
H	0.5180756186670387 0.3093303104569926 0.0192295238956970	0.115796
H	0.3766420594417074 0.3142253765822193 0.0237210632318023	0.097514
H	0.6260381259521116 0.3465703758670948 0.1202535430803786	0.108949
H	0.7484243274181660 0.0921962130079743 0.1253142562097090	0.110108
H	0.6082425929311112 0.1037317673291091 0.1289571412559888	0.100486
H	0.1305364167665998 0.3265759522588739 0.2325600618777111	0.097589
H	0.9899793253431086 0.3423384933353100 0.2318422105492266	0.114866
H	0.9819243813329613 0.1906697025430050 0.0192295238956970	0.115796
H	0.1233579405582926 0.1857746234177807 0.0237210632318023	0.097514
H	0.8739618740478884 0.1534296381329063 0.1202535430803786	0.108946
H	0.7515756725818340 0.4078037799920215 0.1253142562097090	0.110108
H	0.8917574070688888 0.3962682456708955 0.1289571412559888	0.100486
H	0.8265759522588737 0.6305364437665985 0.2674399541222903	0.097589
H	0.8423384123353140 0.4899793793431062 0.2681577894507735	0.114867
H	0.6906696895430076 0.4819243813329617 0.4807704781043032	0.115795
H	0.6857746764177817 0.6233579675582913 0.4762789347681974	0.097514
H	0.6534296241329052 0.3739618200478907 0.3797464649196221	0.108947
H	0.9078037269920207 0.2515756995818328 0.3746857357902905	0.110108
H	0.8962682186708968 0.3917574330688838 0.3710428667440118	0.100486
H	0.6734240477411263 0.8694635562334015 0.2674399541222903	0.097589
H	0.6576615876646860 0.0100206366568881 0.2681577894507735	0.114867
H	0.8093303104569924 0.0180756176670349 0.4807704781043032	0.115795
H	0.8142253235822183 0.8766420324417087 0.4762789347681974	0.097514
H	0.8465703758670948 0.1260381929521140 0.3797464649196221	0.108948
H	0.5921962200079784 0.2484242734181615 0.3746857357902905	0.110105
H	0.6037317813291032 0.1082425799311137 0.3710428667440118	0.100484
H	0.6305364437665985 0.6734240477411263 0.2674399541222903	0.097589
H	0.4899793793431062 0.6576615876646860 0.2681577894507735	0.114868
H	0.4819243813329617 0.8093303104569924 0.4807704781043032	0.115795
H	0.6233579675582913 0.8142253235822183 0.4762789347681974	0.097514
H	0.3739618200478907 0.8465703758670948 0.3797464649196221	0.108949
H	0.2515756995818328 0.5921962200079784 0.3746857357902905	0.110107
H	0.3917574330688838 0.6037317813291032 0.3710428667440118	0.100485
H	0.8694635562334015 0.8265759522588737 0.2674399541222903	0.097589
H	0.0100206366568881 0.8423384123353140 0.2681577894507735	0.114867
H	0.0180756176670349 0.6906696895430076 0.4807704781043032	0.115796
H	0.8766420324417087 0.6857746764177817 0.4762789347681974	0.097513
H	0.1260381929521140 0.6534296241329052 0.3797464649196221	0.108947
H	0.2484242734181615 0.9078037269920207 0.3746857357902905	0.110106
H	0.1082425799311137 0.8962682186708968 0.3710428667440118	0.100486
H	0.8265759522588737 0.8694635562334015 0.7674399231222910	0.097588
H	0.8423384123353140 0.0100206366568881 0.7681578044507781	0.114867
H	0.6906696895430076 0.0180756176670349 0.9807705091043020	0.115806
H	0.6857746764177817 0.8766420324417087 0.9762788707681992	0.097514
H	0.6534296241329052 0.1260381929521140 0.8797464329196193	0.108947
H	0.9078037269920207 0.2484242734181615 0.8746856727902887	0.110108
H	0.8962682186708968 0.1082425799311137 0.8710428347440092	0.100485
H	0.6734240477411263 0.6305364437665985 0.7674399231222910	0.097589
H	0.6576615876646860 0.4899793793431062 0.7681578044507781	0.114868
H	0.8093303104569924 0.4819243813329617 0.9807705091043020	0.115805
H	0.8142253235822183 0.6233579675582913 0.9762788707681992	0.097514
H	0.8465703758670948 0.3739618200478907 0.8797464329196193	0.108946
H	0.5921962200079784 0.2515756995818328 0.8746856727902887	0.110104
H	0.6037317813291032 0.3917574330688838 0.8710428347440092	0.100485
H	0.6305364437665985 0.8265759522588737 0.7674399231222910	0.097589
H	0.4899793793431062 0.8423384123353140 0.7681578044507781	0.114867
H	0.4819243813329617 0.6906696895430076 0.9807705091043020	0.115806
H	0.6233579675582913 0.6857746764177817 0.9762788707681992	0.097514
H	0.3739618200478907 0.6534296241329052 0.8797464329196193	0.108947
H	0.2515756995818328 0.9078037269920207 0.8746856727902887	0.110108
H	0.3917574330688838 0.8962682186708968 0.8710428347440092	0.100486
H	0.8694635562334015 0.6734240477411263 0.7674399231222910	0.097588
H	0.0100206366568881 0.6576615876646860 0.7681578044507781	0.114869
H	0.0180756176670349 0.8093303104569924 0.9807705091043020	0.115806
H	0.8766420324417087 0.8142253235822183 0.9762788707681992	0.097514
H	0.1260381929521140 0.8465703758670948 0.8797464329196193	0.108947
H	0.2484242734181615 0.5921962200079784 0.8746856727902887	0.110104
H	0.1082425799311137 0.6037317813291032 0.8710428347440092	0.100486
H	0.1734240207411274 0.3694636102334061 0.7325600768777090	0.097588
H	0.1576615466646863 0.5100206746568914 0.7318421955492219	0.114867
H	0.3093303104569926 0.5180756186670387 0.5192295218956970	0.115795
H	0.3142253765822193 0.3766420594417074 0.5237210652318026	0.097514
H	0.3465703758670948 0.6260381259521116 0.6202535670803807	0.108949
H	0.0921962130079743 0.7484243274181660 0.6253143272097113	0.110106
H	0.1037317673291091 0.6082425929311112 0.6289571652559908	0.100484
H	0.3265759522588739 0.1305364167665998 0.7325600768777090	0.097589
H	0.3423384933353100 0.9899793253431086 0.7318421955492219	0.114867
H	0.1906697025430050 0.9819243813329613 0.5192295218956970	0.115795
H	0.1857746234177807 0.1233579405582926 0.5237210652318026	0.097515
H	0.1534296381329063 0.8739618740478884 0.6202535670803807	0.108946
H	0.4078037799920215 0.7515756725818340 0.6253143272097113	0.110105
H	0.3962682456708955 0.8917574070688888 0.6289571652559908	0.100486
H	0.3694636102334061 0.3265759522588739 0.7325600768777090	0.097588
H	0.5100206746568914 0.3423384933353100 0.7318421955492219	0.114867
H	0.5180756186670387 0.1906697025430050 0.5192295218956970	0.115796
H	0.3766420594417074 0.1857746234177807 0.5237210652318026	0.097514
H	0.6260381259521116 0.1534296381329063 0.6202535670803807	0.108948
H	0.7484243274181660 0.4078037799920215 0.6253143272097113	0.110107
H	0.6082425929311112 0.3962682456708955 0.6289571652559908	0.100487
H	0.1305364167665998 0.1734240207411274 0.7325600768777090	0.097589
H	0.9899793253431086 0.1576615466646863 0.7318421955492219	0.114868
H	0.9819243813329613 0.3093303104569926 0.5192295218956970	0.115794
H	0.1233579405582926 0.3142253765822193 0.5237210652318026	0.097515
H	0.8739618740478884 0.3465703758670948 0.6202535670803807	0.108948
H	0.7515756725818340 0.0921962130079743 0.6253143272097113	0.110104
H	0.8917574070688888 0.1037317673291091 0.6289571652559908	0.100485
F	0.3133836084972233 0.1567202106041717 0.3782067203280857	-0.580819
F	0.1866164185027754 0.3432797893958283 0.3782067203280857	-0.580818
F	0.3432797893958282 0.3133836084972233 0.3782067203280857	-0.580818
F	0.1567202106041717 0.1866164185027754 0.3782067203280857	-0.580818
F	0.6866163915027770 0.6567201566041745 0.1217932796719143	-0.580818
F	0.8133836084972230 0.8432798433958255 0.1217932796719143	-0.580818
F	0.6567201566041745 0.8133836084972230 0.1217932796719143	-0.580817
F	0.8432798433958255 0.6866163915027770 0.1217932796719143	-0.580819
F	0.6866163915027770 0.8432798433958255 0.6217932476719115	-0.580818
F	0.8133836084972230 0.6567201566041745 0.6217932476719115	-0.580819
F	0.6567201566041745 0.6866163915027770 0.6217932476719115	-0.580818
F	0.8432798433958255 0.8133836084972230 0.6217932476719115	-0.580818
F	0.3133836084972233 0.3432797893958282 0.8782067523280885	-0.580818
F	0.1866164185027754 0.1567202106041717 0.8782067523280885	-0.580818
F	0.3432797893958283 0.1866164185027754 0.8782067523280885	-0.580819
F	0.1567202106041717 0.3133836084972233 0.8782067523280885	-0.580817
F	0.2500000000000000 0.2500000000000000 0.2517520495193771	-0.528378
F	0.2500000000000000 0.2500000000000000 0.5047905442380897	-0.529646
F	0.7500000000000000 0.7500000000000000 0.2482479664806244	-0.528378
F	0.7500000000000000 0.7500000000000000 -0.0047905372380852	-0.529646
F	0.7500000000000000 0.7500000000000000 0.7482479184806201	-0.528379
F	0.7500000000000000 0.7500000000000000 0.4952094877619134	-0.529646
F	0.2500000000000000 0.2500000000000000 0.7517520815193798	-0.528379
F	0.2500000000000000 0.2500000000000000 0.0047905122380866	-0.529646
Ni	0.2500000000000000 0.2500000000000000 0.1283356887155956	0.756815
Ni	0.7500000000000000 0.7500000000000000 0.3716643272844056	0.756815
Ni	0.7500000000000000 0.7500000000000000 0.8716642962844063	0.756817
Ni	0.2500000000000000 0.2500000000000000 0.6283357037155937	0.756817
Sn	0.2500000000000000 0.2500000000000000 0.3783063685987820	1.906654
Sn	0.7500000000000000 0.7500000000000000 0.1216936394012186	1.906655
Sn	0.7500000000000000 0.7500000000000000 0.6216936004012190	1.906655
Sn	0.2500000000000000 0.2500000000000000 0.8783063995987810	1.906654
	  	
