#======================================================================

# CRYSTAL DATA

#----------------------------------------------------------------------

data_VESTA_phase_1


_pd_phase_name                         SnFSIX_2_Cd
_cell_length_a                         14.32820
_cell_length_b                         14.32820
_cell_length_c                         8.48683
_cell_angle_alpha                      90
_cell_angle_beta                       90
_cell_angle_gamma                      90
_symmetry_space_group_name_H-M         P 1
_symmetry_Int_Tables_number            1

loop_
_symmetry_equiv_pos_as_xyz
   x, y, z

loop_
   _atom_site_label
   _atom_site_fract_x
   _atom_site_fract_y
   _atom_site_fract_z
   _atom_site_charge
C	0.5293670602906042 0.7111881461471395 0.1277439805846984	0.100788
C	0.5302776715391828 0.8080632046210369 0.1328966908771238	-0.162006
C	0.4706330097093945 0.2888118538528603 0.1277439805846984	0.100785
C	0.4697222934608185 0.1919367773789615 0.1328966908771238	-0.162004
C	0.2888118538528603 0.5293670602906042 0.1277439805846984	0.100788
C	0.1919367773789615 0.5302776715391828 0.1328966908771238	-0.162006
C	0.7111881461471395 0.4706330097093945 0.1277439805846984	0.100785
C	0.8080632046210369 0.4697222934608185 0.1328966908771238	-0.162004
C	0.4706330097093945 0.7111881461471395 0.8722560194153017	0.100788
C	0.4697222934608185 0.8080632046210369 0.8671032791228738	-0.162006
C	0.5293670602906042 0.2888118538528603 0.8722560194153017	0.100786
C	0.5302776715391828 0.1919367773789615 0.8671032791228738	-0.162003
C	0.7111881461471395 0.5293670602906042 0.8722560194153017	0.100786
C	0.8080632046210369 0.5302776715391828 0.8671032791228738	-0.162003
C	0.2888118538528603 0.4706330097093945 0.8722560194153017	0.100788
C	0.1919367773789615 0.4697222934608185 0.8671032791228738	-0.162005
C	0.5000000000000000 0.1413543655479485 0.0000000000000000	0.169059
C	0.5000000000000000 0.0425465210964288 0.0000000000000000	-0.091358
C	0.5000000000000000 0.8586456344520513 0.0000000000000000	0.169029
C	0.5000000000000000 0.9574534219035772 0.0000000000000000	-0.091116
C	0.8586456344520513 0.5000000000000000 0.0000000000000000	0.169059
C	0.9574534219035773 0.5000000000000000 0.0000000000000000	-0.091358
C	0.1413543655479485 0.5000000000000000 0.0000000000000000	0.169029
C	0.0425465210964288 0.5000000000000000 0.0000000000000000	-0.091115
H	0.5522139124447948 0.6698850466137698 0.2290335452294401	0.100537
H	0.5543203907718510 0.8441445303601448 0.2382672074267230	0.129890
H	0.4477860875552048 0.3301148833862317 0.2290335452294401	0.100537
H	0.4456796442281480 0.1558553996398566 0.2382672074267230	0.129891
H	0.3301148833862317 0.5522139124447948 0.2290335452294401	0.100537
H	0.1558553996398566 0.5543203907718510 0.2382672074267230	0.129890
H	0.6698850466137698 0.4477860875552048 0.2290335452294401	0.100537
H	0.8441445303601448 0.4456796442281480 0.2382672074267230	0.129891
H	0.4477860875552048 0.6698850466137698 0.7709664547705598	0.100537
H	0.4456796442281480 0.8441445303601448 0.7617328225732795	0.129889
H	0.5522139124447948 0.3301148833862317 0.7709664547705598	0.100537
H	0.5543203907718510 0.1558553996398566 0.7617328225732795	0.129890
H	0.6698850466137698 0.5522139124447948 0.7709664547705598	0.100537
H	0.8441445303601448 0.5543203907718510 0.7617328225732795	0.129890
H	0.3301148833862317 0.4477860875552048 0.7709664547705598	0.100537
H	0.1558553996398566 0.4456796442281480 0.7617328225732795	0.129889
Cd	0.5000000000000000 0.5000000000000000 0.0000000000000000	0.826299
Sn	0.5000000000000000 0.5000000000000000 0.5000000000000000	1.889964
F	0.5000000000000000 0.5000000000000000 0.7383943010428821	-0.538138
F	0.5000000000000000 0.5000000000000000 0.2616057289571131	-0.538138
F	0.5983672077792049 0.5983672077792049 0.5000000000000000	-0.584466
F	0.4016328272207946 0.5983672077792049 0.5000000000000000	-0.584466
F	0.4016328272207946 0.4016328272207946 0.5000000000000000	-0.584466
F	0.5983672077792049 0.4016328272207946 0.5000000000000000	-0.584466
N	0.5000000000000000 0.3362941931260489 0.0000000000000000	-0.241756
N	0.5000000000000000 0.6637057718739516 0.0000000000000000	-0.241756
N	0.6637057718739516 0.5000000000000000 0.0000000000000000	-0.241756
N	0.3362941931260489 0.5000000000000000 0.0000000000000000	-0.241756
	  	
