#======================================================================

# CRYSTAL DATA

#----------------------------------------------------------------------

data_VESTA_phase_1


_pd_phase_name                         SnFSIX_2_Co_i
_cell_length_a                         13.60953
_cell_length_b                         13.60953
_cell_length_c                         8.43502
_cell_angle_alpha                      90
_cell_angle_beta                       90
_cell_angle_gamma                      90
_symmetry_space_group_name_H-M         P 1
_symmetry_Int_Tables_number            1

loop_
_symmetry_equiv_pos_as_xyz
   x, y, z

loop_
   _atom_site_label
   _atom_site_fract_x
   _atom_site_fract_y
   _atom_site_fract_z
   _atom_site_charge
C	-0.0000000000000000 0.2981507255380137 0.3571447475973729	-0.152292
C	-0.0000000000000000 0.1964927183377476 0.3622245704724851	0.097761
C	0.5000000000000000 0.7981507255380140 0.8571447765973718	-0.152292
C	0.5000000000000000 0.6964927363377490 0.8622245704724854	0.097761
C	-0.0000000000000000 0.7018492744619860 0.3571447475973729	-0.152294
C	-0.0000000000000000 0.8035072636622510 0.3622245704724851	0.097762
C	0.5000000000000000 0.2018492914619840 0.8571447765973718	-0.152294
C	0.5000000000000000 0.3035072636622510 0.8622245704724854	0.097763
C	0.7018492744619860 0.0000000000000000 0.3571447475973729	-0.152292
C	0.8035072636622510 0.0000000000000000 0.3622245704724851	0.097761
C	0.2018492914619840 0.5000000000000000 0.8571447765973718	-0.152292
C	0.3035072636622510 0.5000000000000000 0.8622245704724854	0.097762
C	0.2981507255380137 0.0000000000000000 0.3571447475973729	-0.152294
C	0.1964927183377476 0.0000000000000000 0.3622245704724851	0.097763
C	0.7981507255380140 0.5000000000000000 0.8571447765973718	-0.152294
C	0.6964927363377490 0.5000000000000000 0.8622245704724854	0.097764
C	-0.0000000000000000 0.2981507255380137 0.6428552234026282	-0.152290
C	-0.0000000000000000 0.1964927183377476 0.6377754295275146	0.097761
C	0.5000000000000000 0.7981507255380140 0.1428552524026274	-0.152291
C	0.5000000000000000 0.6964927363377490 0.1377754145275173	0.097761
C	-0.0000000000000000 0.7018492744619860 0.6428552234026282	-0.152293
C	-0.0000000000000000 0.8035072636622510 0.6377754295275146	0.097762
C	0.5000000000000000 0.2018492914619840 0.1428552524026274	-0.152293
C	0.5000000000000000 0.3035072636622510 0.1377754145275173	0.097763
C	0.2981507255380137 0.0000000000000000 0.6428552234026282	-0.152292
C	0.1964927183377476 0.0000000000000000 0.6377754295275146	0.097763
C	0.7981507255380140 0.5000000000000000 0.1428552524026274	-0.152293
C	0.6964927363377490 0.5000000000000000 0.1377754145275173	0.097764
C	0.7018492744619860 0.0000000000000000 0.6428552234026282	-0.152290
C	0.8035072636622510 0.0000000000000000 0.6377754295275146	0.097761
C	0.2018492914619840 0.5000000000000000 0.1428552524026274	-0.152290
C	0.3035072636622510 0.5000000000000000 0.1377754145275173	0.097761
C	-0.0000000000000000 0.4551698576127576 0.5000000000000000	-0.093717
C	-0.0000000000000000 0.3516728381414310 0.5000000000000000	0.161160
C	0.5000000000000000 0.9551698916127604 -0.0000000000000000	-0.093717
C	0.5000000000000000 0.8516728031414317 -0.0000000000000000	0.161160
C	-0.0000000000000000 0.5448301423872424 0.5000000000000000	-0.093475
C	-0.0000000000000000 0.6483271968585683 0.5000000000000000	0.161131
C	0.5000000000000000 0.0448301213872370 -0.0000000000000000	-0.093475
C	0.5000000000000000 0.1483271968585683 -0.0000000000000000	0.161131
C	0.5448301423872424 0.0000000000000000 0.5000000000000000	-0.093717
C	0.6483271968585683 0.0000000000000000 0.5000000000000000	0.161160
C	0.0448301213872370 0.5000000000000000 -0.0000000000000000	-0.093717
C	0.1483271968585683 0.5000000000000000 -0.0000000000000000	0.161160
C	0.4551698576127577 0.0000000000000000 0.5000000000000000	-0.093475
C	0.3516728381414310 0.0000000000000000 0.5000000000000000	0.161131
C	0.9551698916127604 0.5000000000000000 -0.0000000000000000	-0.093475
C	0.8516728031414317 0.5000000000000000 -0.0000000000000000	0.161131
H	-0.0000000000000000 0.3353617147991033 0.2428539340415883	0.124132
H	-0.0000000000000000 0.1541328994029524 0.2532618537662987	0.096927
H	0.5000000000000000 0.8353617147991028 0.7428539340415879	0.124133
H	0.5000000000000000 0.6541328464029519 0.7532618837663008	0.096927
H	-0.0000000000000000 0.6646382852008972 0.2428539340415883	0.124131
H	-0.0000000000000000 0.8458671535970481 0.2532618537662987	0.096927
H	0.5000000000000000 0.1646382852008968 0.7428539340415879	0.124131
H	0.5000000000000000 0.3458671185970421 0.7532618837663008	0.096927
H	0.6646382852008972 0.0000000000000000 0.2428539340415883	0.124132
H	0.8458671535970481 0.0000000000000000 0.2532618537662987	0.096926
H	0.1646382852008968 0.5000000000000000 0.7428539340415879	0.124133
H	0.3458671185970421 0.5000000000000000 0.7532618837663008	0.096927
H	0.3353617147991033 0.0000000000000000 0.2428539340415883	0.124131
H	0.1541328994029524 0.0000000000000000 0.2532618537662987	0.096927
H	0.8353617147991028 0.5000000000000000 0.7428539340415879	0.124131
H	0.6541328464029519 0.5000000000000000 0.7532618837663008	0.096927
H	-0.0000000000000000 0.3353617147991033 0.7571460659584121	0.124133
H	-0.0000000000000000 0.1541328994029524 0.7467380582337015	0.096927
H	0.5000000000000000 0.8353617147991028 0.2571460659584115	0.124133
H	0.5000000000000000 0.6541328464029519 0.2467381462337012	0.096927
H	-0.0000000000000000 0.6646382852008972 0.7571460659584121	0.124131
H	-0.0000000000000000 0.8458671535970481 0.7467380582337015	0.096927
H	0.5000000000000000 0.1646382852008968 0.2571460659584115	0.124131
H	0.5000000000000000 0.3458671185970421 0.2467381462337012	0.096927
H	0.3353617147991033 0.0000000000000000 0.7571460659584121	0.124131
H	0.1541328994029524 0.0000000000000000 0.7467380582337015	0.096927
H	0.8353617147991028 0.5000000000000000 0.2571460659584115	0.124131
H	0.6541328464029519 0.5000000000000000 0.2467381462337012	0.096927
H	0.6646382852008972 0.0000000000000000 0.7571460659584121	0.124133
H	0.8458671535970481 0.0000000000000000 0.7467380582337015	0.096926
H	0.1646382852008968 0.5000000000000000 0.2571460659584115	0.124133
H	0.3458671185970421 0.5000000000000000 0.2467381462337012	0.096927
Co	-0.0000000000000000 0.0000000000000000 0.5000000000000000	0.587453
Co	0.5000000000000000 0.5000000000000000 -0.0000000000000000	0.587461
Sn	-0.0000000000000000 0.0000000000000000 -0.0000000000000000	1.851608
Sn	0.5000000000000000 0.5000000000000000 0.5000000000000000	1.852000
N	-0.0000000000000000 0.1453268791688360 0.5000000000000000	-0.185680
N	0.5000000000000000 0.6453268611688344 -0.0000000000000000	-0.185681
N	-0.0000000000000000 0.8546731388311656 0.5000000000000000	-0.185680
N	0.5000000000000000 0.3546731388311656 -0.0000000000000000	-0.185680
N	0.8546731388311656 0.0000000000000000 0.5000000000000000	-0.185681
N	0.3546731388311656 0.5000000000000000 -0.0000000000000000	-0.185681
N	0.1453268791688360 0.0000000000000000 0.5000000000000000	-0.185681
N	0.6453268611688344 0.5000000000000000 -0.0000000000000000	-0.185681
F	-0.0000000000000000 0.0000000000000000 0.7590796855247535	-0.521989
F	0.5000000000000000 0.5000000000000000 0.2590797745247569	-0.522029
F	-0.0000000000000000 0.0000000000000000 0.2409202404752478	-0.521989
F	0.5000000000000000 0.5000000000000000 0.7409203144752465	-0.522029
F	0.6033634908135119 0.6033634908135119 0.5000000000000000	-0.563777
F	0.6033634908135119 0.3966365091864879 0.5000000000000000	-0.563777
F	0.3966365091864879 0.6033634908135119 0.5000000000000000	-0.563778
F	0.3966365091864879 0.3966365091864879 0.5000000000000000	-0.563777
F	0.1033635078135099 0.1033635078135099 -0.0000000000000000	-0.563683
F	0.8966365091864881 0.8966365091864881 -0.0000000000000000	-0.563728
F	0.8966365091864881 0.1033635078135099 -0.0000000000000000	-0.563688
F	0.1033635078135099 0.8966365091864881 -0.0000000000000000	-0.563687
	  	
