#======================================================================

# CRYSTAL DATA

#----------------------------------------------------------------------

data_VESTA_phase_1


_pd_phase_name                         SnFSIX_7_Ni
_cell_length_a                         19.15207
_cell_length_b                         19.15207
_cell_length_c                         8.20499
_cell_angle_alpha                      90
_cell_angle_beta                       90
_cell_angle_gamma                      90
_symmetry_space_group_name_H-M         P 1
_symmetry_Int_Tables_number            1

loop_
_symmetry_equiv_pos_as_xyz
   x, y, z

loop_
   _atom_site_label
   _atom_site_fract_x
   _atom_site_fract_y
   _atom_site_fract_z
   _atom_site_charge
C	0.6653088117007264 0.8714476024654964 0.6943292348514223	0.104226
C	0.6141274990783682 0.9228024151269995 0.6988214580152220	-0.174649
C	0.5799108988554651 0.8881195242560121 0.4301078395349177	-0.169769
C	0.6311989352789089 0.8370824155246197 0.4359892283615646	0.100095
C	0.8346911882992736 0.6285523975345036 0.6943292348514223	0.104222
C	0.8858725509216289 0.5771976358730012 0.6988214580152220	-0.174625
C	0.9200890001445372 0.6118805267439814 0.4301078395349177	-0.169705
C	0.8688010647210911 0.6629175844753803 0.4359892283615646	0.100114
C	0.6285523975345036 0.6653088117007264 0.6943292348514223	0.104222
C	0.5771976358730012 0.6141274990783682 0.6988214580152220	-0.174624
C	0.6118805267439814 0.5799108988554651 0.4301078395349177	-0.169703
C	0.6629175844753803 0.6311989352789089 0.4359892283615646	0.100115
C	0.8714476024654964 0.8346911882992736 0.6943292348514223	0.104227
C	0.9228024151269995 0.8858725509216289 0.6988214580152220	-0.174649
C	0.8881195242560121 0.9200890001445372 0.4301078395349177	-0.169768
C	0.8370824155246197 0.8688010647210911 0.4359892283615646	0.100096
C	0.3346911632992749 0.3714475524654922 0.3056707951485802	0.104222
C	0.3858725009216318 0.4228024151269994 0.3011785719847808	-0.174624
C	0.4200891011445349 0.3881194732560182 0.5698921604650823	-0.169705
C	0.3688010137210975 0.3370824155246196 0.5640108016384381	0.100114
C	0.1653088367007251 0.1285524345345103 0.3056707951485802	0.104222
C	0.1141274990783682 0.0771975848730007 0.3011785719847808	-0.174625
C	0.0799108798554600 0.1118805267439817 0.5698921604650823	-0.169704
C	0.1311989862789025 0.1629175724753794 0.5640108016384381	0.100115
C	0.3714475524654922 0.1653088367007251 0.3056707951485802	0.104222
C	0.4228024151269994 0.1141274990783682 0.3011785719847808	-0.174624
C	0.3881194732560182 0.0799108798554600 0.5698921604650823	-0.169703
C	0.3370824155246196 0.1311989862789025 0.5640108016384381	0.100115
C	0.1285524345345103 0.3346911632992749 0.3056707951485802	0.104222
C	0.0771975848730007 0.3858725009216318 0.3011785719847808	-0.174624
C	0.1118805267439817 0.4200891011445349 0.5698921604650823	-0.169704
C	0.1629175724753794 0.3688010137210975 0.5640108016384381	0.100115
C	0.4329875784654405 0.0701848381722538 0.4362840965977521	0.141138
C	0.4873540607754369 0.0168049581922060 0.4335064178519978	-0.121250
C	0.0670124215345595 0.4298151548277491 0.4362840965977521	0.141141
C	0.0126459072245604 0.4831949778077957 0.4335064178519978	-0.121262
C	0.4298151548277491 0.4329875784654405 0.4362840965977521	0.141141
C	0.4831949778077957 0.4873540607754369 0.4335064178519978	-0.121263
C	0.0701848381722538 0.0670124215345595 0.4362840965977521	0.141138
C	0.0168049581922060 0.0126459072245604 0.4335064178519978	-0.121249
C	0.5670124215345597 0.5701848451722508 0.5637159034022478	0.141137
C	0.5126459902245566 0.5168049721922001 0.5664936111480011	-0.121239
C	0.9329875284654433 0.9298151048277451 0.5637159034022478	0.141229
C	0.9873540607754370 0.9831950788078005 0.5664936111480011	-0.121266
C	0.5701848451722508 0.9329875284654433 0.5637159034022478	0.141226
C	0.5168049721922001 0.9873540607754370 0.5664936111480011	-0.121260
C	0.9298151048277451 0.5670124215345597 0.5637159034022478	0.141140
C	0.9831950788078005 0.5126459902245566 0.5664936111480011	-0.121246
H	0.6995285405729403 0.8631670583994034 0.7983372314221192	0.096043
H	0.6091077389093104 0.9548937325912199 0.8078396781811448	0.119293
H	0.5470215953650719 0.8913577186984388 0.3220902432599858	0.119024
H	0.6391252435561402 0.8021717606423190 0.3332252161008287	0.096230
H	0.8004714594270597 0.6368329416005966 0.7983372314221192	0.096044
H	0.8908922610906896 0.5451063184087808 0.8078396781811448	0.119291
H	0.9529784556349288 0.6086423323015618 0.3220902432599858	0.119005
H	0.8608747564438598 0.6978282393576810 0.3332252161008287	0.096227
H	0.6368329416005966 0.6995285405729403 0.7983372314221192	0.096044
H	0.5451063184087808 0.6091077389093104 0.8078396781811448	0.119291
H	0.6086423323015618 0.5470215953650719 0.3220902432599858	0.119005
H	0.6978282393576810 0.6391252435561402 0.3332252161008287	0.096227
H	0.8631670583994034 0.8004714594270597 0.7983372314221192	0.096043
H	0.9548937325912199 0.8908922610906896 0.8078396781811448	0.119293
H	0.8913577186984388 0.9529784556349288 0.3220902432599858	0.119024
H	0.8021717606423190 0.8608747564438598 0.3332252161008287	0.096230
H	0.3004714854270622 0.3631669823994043 0.2016627535778830	0.096044
H	0.3908921850906834 0.4548936815912194 0.1921602778188519	0.119291
H	0.4529784556349290 0.3913577186984389 0.6779097267400191	0.119005
H	0.3608747814438654 0.3021717866423214 0.6667747838991709	0.096227
H	0.1995285275729355 0.1368330436005980 0.2016627535778830	0.096044
H	0.1091077899093109 0.0451063344087820 0.1921602778188519	0.119290
H	0.0470215383650706 0.1086423073015632 0.6779097267400191	0.119005
H	0.1391252435561402 0.1978282013576777 0.6667747838991709	0.096227
H	0.3631669823994043 0.1995285275729355 0.2016627535778830	0.096044
H	0.4548936815912194 0.1091077899093109 0.1921602778188519	0.119290
H	0.3913577186984389 0.0470215383650706 0.6779097267400191	0.119005
H	0.3021717866423214 0.1391252435561402 0.6667747838991709	0.096227
H	0.1368330436005980 0.3004714854270622 0.2016627535778830	0.096044
H	0.0451063344087820 0.3908921850906834 0.1921602778188519	0.119290
H	0.1086423073015632 0.4529784556349290 0.6779097267400191	0.119004
H	0.1978282013576777 0.3608747814438654 0.6667747838991709	0.096227
H	0.5062416121294214 0.0018484944242484 0.3124286868996926	0.103590
H	0.9937584388705792 0.4981514775757492 0.3124286868996926	0.103594
H	0.4981514775757492 0.5062416121294214 0.3124286868996926	0.103594
H	0.0018484944242484 0.9937584388705792 0.3124286868996926	0.103590
H	0.4937583878705783 0.5018484724242536 0.6875713431003028	0.103588
H	0.0062416031294244 0.9981514775757494 0.6875713431003028	0.103594
H	0.5018484724242536 0.0062416031294244 0.6875713431003028	0.103589
H	0.9981514775757494 0.4937583878705783 0.6875713431003028	0.103593
Ni	0.2500000000000000 0.2500000000000000 0.4341122860765458	0.759052
Ni	0.7500000000000000 0.7500000000000000 0.5658877139234543	0.759050
Sn	0.2500000000000000 0.2500000000000000 0.9348879579207888	1.877392
Sn	0.7500000000000000 0.7500000000000000 0.0651120270792137	1.877391
F	0.2500000000000000 0.2500000000000000 0.1847116176108334	-0.531293
F	0.2500000000000000 0.2500000000000000 0.6847662819196562	-0.530412
F	0.7500000000000000 0.7500000000000000 0.8152884123891689	-0.531293
F	0.7500000000000000 0.7500000000000000 0.3152337180803437	-0.530412
F	0.3242159657473317 0.3223882865469962 0.9352941475216792	-0.564663
F	0.1757840592526669 0.1776117384530023 0.9352941475216792	-0.564663
F	0.1776117384530023 0.3242159657473317 0.9352941475216792	-0.564663
F	0.3223882865469962 0.1757840592526669 0.9352941475216792	-0.564663
F	0.6757840592526666 0.8223882865469964 0.0647058524783208	-0.564663
F	0.8242159407473334 0.6776117134530036 0.0647058524783208	-0.564663
F	0.8223882865469964 0.8242159407473334 0.0647058524783208	-0.564663
F	0.6776117134530036 0.6757840592526666 0.0647058524783208	-0.564663
N	0.3287411918584215 0.1738608528143891 0.4345334720250495	-0.243076
N	0.1712588331415770 0.3261391721856095 0.4345334720250495	-0.243076
N	0.3261391721856095 0.3287411918584215 0.4345334720250495	-0.243076
N	0.1738608528143891 0.1712588331415770 0.4345334720250495	-0.243076
N	0.6712588081415787 0.6738608278143906 0.5654665279749507	-0.243076
N	0.8287411918584213 0.8261391721856094 0.5654665279749507	-0.243071
N	0.6738608278143906 0.8287411918584213 0.5654665279749507	-0.243071
N	0.8261391721856094 0.6712588081415787 0.5654665279749507	-0.243076
	  	
