#======================================================================

# CRYSTAL DATA

#----------------------------------------------------------------------

data_VESTA_phase_1


_pd_phase_name                         SnFSIX_6_Co_i
_cell_length_a                         17.45343
_cell_length_b                         17.45343
_cell_length_c                         16.49876
_cell_angle_alpha                      90
_cell_angle_beta                       90
_cell_angle_gamma                      90
_symmetry_space_group_name_H-M         P 1
_symmetry_Int_Tables_number            1

loop_
_symmetry_equiv_pos_as_xyz
   x, y, z

loop_
   _atom_site_label
   _atom_site_fract_x
   _atom_site_fract_y
   _atom_site_fract_z
   _atom_site_charge
N	0.2440383422827076 0.1373596147269019 0.1279417106985223	-0.197996
N	0.2559616577172923 0.3626403992730993 0.1279417106985223	-0.197995
N	0.3626403992730993 0.2440383422827076 0.1279417106985223	-0.197995
N	0.1373596147269019 0.2559616577172923 0.1279417106985223	-0.197996
N	0.7559616307172933 0.6373596277269061 0.3720582743014801	-0.197996
N	0.7440383692827067 0.8626403722730939 0.3720582743014801	-0.197995
N	0.6373596277269061 0.7440383692827067 0.3720582743014801	-0.197995
N	0.8626403722730939 0.7559616307172933 0.3720582743014801	-0.197995
N	0.7559616307172933 0.8626403722730939 0.8720582743014801	-0.197995
N	0.7440383692827067 0.6373596277269061 0.8720582743014801	-0.197997
N	0.6373596277269061 0.7559616307172933 0.8720582743014801	-0.197996
N	0.8626403722730939 0.7440383692827067 0.8720582743014801	-0.197996
N	0.2440383422827076 0.3626403992730993 0.6279417256985199	-0.197996
N	0.2559616577172923 0.1373596147269019 0.6279417256985199	-0.197997
N	0.3626403992730993 0.2559616577172923 0.6279417256985199	-0.197997
N	0.1373596147269019 0.2440383422827076 0.6279417256985199	-0.197996
C	0.2019285140257981 0.1002459962532734 0.1843745973741092	0.094220
C	0.1937576621218656 0.0211779971794258 0.1837671458148627	-0.173867
C	0.2321245919656414 0.9775070426706780 0.1251430190378841	0.110924
C	0.2770854664982097 0.0167448127308998 0.0682891413592924	-0.172707
C	0.2807963109389844 0.0961318120585690 0.0705593555493962	0.096960
C	0.2260295122190510 0.8934068501399166 0.1238240177393702	0.059779
C	0.2915186356053473 0.8487207324046449 0.1207526453869529	-0.174606
C	0.2870331380601646 0.7678821280244332 0.1218998264443071	0.084659
C	0.1465179887149677 0.7790028997328073 0.1245431613698820	-0.124138
C	0.1528778672051524 0.8575557929213748 0.1268669563289659	-0.136396
C	0.2980714459742058 0.3997540167467240 0.1843745973741092	0.094219
C	0.3062422978781310 0.4788219838205761 0.1837671458148627	-0.173866
C	0.2678754080343586 0.5224929573293220 0.1251430190378841	0.110925
C	0.2229145465017875 0.4832551842690963 0.0682891413592924	-0.172707
C	0.2192037030610169 0.4038681949414348 0.0705593555493962	0.096957
C	0.2739704877809491 0.6065931498600834 0.1238240177393702	0.059779
C	0.2084814053946524 0.6512792675953551 0.1207526453869529	-0.174604
C	0.2129668349398368 0.7321178719755668 0.1218998264443071	0.084660
C	0.3534819972850312 0.7209971002671927 0.1245431613698820	-0.124137
C	0.3471221327948477 0.6424442070786252 0.1268669563289659	-0.136395
C	0.3997540167467240 0.2019285140257981 0.1843745973741092	0.094220
C	0.4788219838205761 0.1937576621218656 0.1837671458148627	-0.173867
C	0.5224929573293220 0.2321245919656414 0.1251430190378841	0.110924
C	0.4832551842690963 0.2770854664982097 0.0682891413592924	-0.172706
C	0.4038681949414348 0.2807963109389844 0.0705593555493962	0.096958
C	0.6065931498600834 0.2260295122190510 0.1238240177393702	0.059779
C	0.6512792675953551 0.2915186356053473 0.1207526453869529	-0.174604
C	0.7321178719755668 0.2870331380601646 0.1218998264443071	0.084659
C	0.7209971002671927 0.1465179887149677 0.1245431613698820	-0.124137
C	0.6424442070786252 0.1528778672051524 0.1268669563289659	-0.136395
C	0.1002459962532734 0.2980714459742058 0.1843745973741092	0.094220
C	0.0211779971794258 0.3062422978781310 0.1837671458148627	-0.173866
C	0.9775070426706780 0.2678754080343586 0.1251430190378841	0.110925
C	0.0167448127308998 0.2229145465017875 0.0682891413592924	-0.172708
C	0.0961318120585690 0.2192037030610169 0.0705593555493962	0.096959
C	0.8934068501399166 0.2739704877809491 0.1238240177393702	0.059779
C	0.8487207324046449 0.2084814053946524 0.1207526453869529	-0.174606
C	0.7678821280244332 0.2129668349398368 0.1218998264443071	0.084660
C	0.7790028997328073 0.3534819972850312 0.1245431613698820	-0.124137
C	0.8575557929213748 0.3471221327948477 0.1268669563289659	-0.136396
C	0.7980714989741996 0.6002459832532757 0.3156254186258925	0.094220
C	0.8062423508781320 0.5211779621794191 0.3162328231851382	-0.173862
C	0.7678754080343586 0.4775070426706779 0.3748569489621131	0.110910
C	0.7229145065017911 0.5167448697309009 0.4317108626407079	-0.172706
C	0.7192036630610136 0.5961318590585694 0.4294406844505997	0.096959
C	0.7739705677809485 0.3934069031399175 0.3761759742606293	0.059815
C	0.7084813913946516 0.3487206794046443 0.3792473466130464	-0.174643
C	0.7129668619398353 0.2678820480244337 0.3781001735556929	0.084662
C	0.8534820242850368 0.2790028727328082 0.3754568226301166	-0.124139
C	0.8471220797948470 0.3575557669213728 0.3731330756710368	-0.136390
C	0.7019285010258004 0.8997540167467243 0.3156254186258925	0.094217
C	0.6937576491218680 0.9788219838205764 0.3162328231851382	-0.173862
C	0.7321245919656414 0.0224929633293226 0.3748569489621131	0.110911
C	0.7770854934982089 0.9832551842690964 0.4317108626407079	-0.172705
C	0.7807963369389864 0.9038682479414359 0.4294406844505997	0.096958
C	0.7260294322190515 0.1065931238600812 0.3761759742606293	0.059815
C	0.7915186086053484 0.1512793075953512 0.3792473466130464	-0.174643
C	0.7870331380601647 0.2321179249755675 0.3781001735556929	0.084664
C	0.6465179757149632 0.2209971142671943 0.3754568226301166	-0.124138
C	0.6528779202051530 0.1424442070786253 0.3731330756710368	-0.136389
C	0.6002459832532757 0.7019285010258004 0.3156254186258925	0.094220
C	0.5211779621794191 0.6937576491218680 0.3162328231851382	-0.173863
C	0.4775070426706779 0.7321245919656414 0.3748569489621131	0.110911
C	0.5167448697309009 0.7770854934982089 0.4317108626407079	-0.172705
C	0.5961318590585694 0.7807963369389864 0.4294406844505997	0.096958
C	0.3934069031399175 0.7260294322190515 0.3761759742606293	0.059815
C	0.3487206794046443 0.7915186086053484 0.3792473466130464	-0.174643
C	0.2678820480244337 0.7870331380601647 0.3781001735556929	0.084662
C	0.2790028727328082 0.6465179757149632 0.3754568226301166	-0.124139
C	0.3575557669213728 0.6528779202051530 0.3731330756710368	-0.136390
C	0.8997540167467243 0.7980714989741996 0.3156254186258925	0.094218
C	0.9788219838205764 0.8062423508781320 0.3162328231851382	-0.173860
C	0.0224929633293226 0.7678754080343586 0.3748569489621131	0.110910
C	0.9832551842690964 0.7229145065017911 0.4317108626407079	-0.172706
C	0.9038682479414359 0.7192036630610136 0.4294406844505997	0.096958
C	0.1065931238600812 0.7739705677809485 0.3761759742606293	0.059816
C	0.1512793075953512 0.7084813913946516 0.3792473466130464	-0.174643
C	0.2321179249755675 0.7129668619398353 0.3781001735556929	0.084664
C	0.2209971142671943 0.8534820242850368 0.3754568226301166	-0.124138
C	0.1424442070786253 0.8471220797948470 0.3731330756710368	-0.136389
C	0.7980714989741996 0.8997540167467243 0.8156253866258895	0.094218
C	0.8062423508781320 0.9788219838205764 0.8162328861851401	-0.173861
C	0.7678754080343586 0.0224929633293226 0.8748570129621113	0.110911
C	0.7229145065017911 0.9832551842690964 0.9317108316407089	-0.172706
C	0.7192036630610136 0.9038682479414359 0.9294406524505978	0.096957
C	0.7739705677809485 0.1065931238600812 0.8761759742606288	0.059815
C	0.7084813913946516 0.1512793075953512 0.8792473786130489	-0.174642
C	0.7129668619398353 0.2321179249755675 0.8781002055556885	0.084662
C	0.8534820242850368 0.2209971142671943 0.8754568856301183	-0.124139
C	0.8471220797948470 0.1424442070786253 0.8731331076710322	-0.136389
C	0.7019285010258004 0.6002459832532757 0.8156253866258895	0.094219
C	0.6937576491218680 0.5211779621794191 0.8162328861851401	-0.173862
C	0.7321245919656414 0.4775070426706779 0.8748570129621113	0.110909
C	0.7770854934982089 0.5167448697309009 0.9317108316407089	-0.172705
C	0.7807963369389864 0.5961318590585694 0.9294406524505978	0.096959
C	0.7260294322190515 0.3934069031399175 0.8761759742606288	0.059815
C	0.7915186086053484 0.3487206794046443 0.8792473786130489	-0.174644
C	0.7870331380601647 0.2678820480244337 0.8781002055556885	0.084664
C	0.6465179757149632 0.2790028727328082 0.8754568856301183	-0.124137
C	0.6528779202051530 0.3575557669213728 0.8731331076710322	-0.136390
C	0.6002459832532757 0.7980714989741996 0.8156253866258895	0.094219
C	0.5211779621794191 0.8062423508781320 0.8162328861851401	-0.173861
C	0.4775070426706779 0.7678754080343586 0.8748570129621113	0.110911
C	0.5167448697309009 0.7229145065017911 0.9317108316407089	-0.172706
C	0.5961318590585694 0.7192036630610136 0.9294406524505978	0.096959
C	0.3934069031399175 0.7739705677809485 0.8761759742606288	0.059815
C	0.3487206794046443 0.7084813913946516 0.8792473786130489	-0.174644
C	0.2678820480244337 0.7129668619398353 0.8781002055556885	0.084662
C	0.2790028727328082 0.8534820242850368 0.8754568856301183	-0.124139
C	0.3575557669213728 0.8471220797948470 0.8731331076710322	-0.136390
C	0.8997540167467243 0.7019285010258004 0.8156253866258895	0.094219
C	0.9788219838205764 0.6937576491218680 0.8162328861851401	-0.173862
C	0.0224929633293226 0.7321245919656414 0.8748570129621113	0.110910
C	0.9832551842690964 0.7770854934982089 0.9317108316407089	-0.172704
C	0.9038682479414359 0.7807963369389864 0.9294406524505978	0.096958
C	0.1065931238600812 0.7260294322190515 0.8761759742606288	0.059816
C	0.1512793075953512 0.7915186086053484 0.8792473786130489	-0.174643
C	0.2321179249755675 0.7870331380601647 0.8781002055556885	0.084664
C	0.2209971142671943 0.6465179757149632 0.8754568856301183	-0.124137
C	0.1424442070786253 0.6528779202051530 0.8731331076710322	-0.136390
C	0.2019285140257981 0.3997540167467240 0.6843746133741105	0.094218
C	0.1937576621218656 0.4788219838205761 0.6837671138148599	-0.173867
C	0.2321245919656414 0.5224929573293220 0.6251429870378887	0.110925
C	0.2770854664982097 0.4832551842690963 0.5682891683592911	-0.172706
C	0.2807963109389844 0.4038681949414348 0.5705593475494022	0.096958
C	0.2260295122190510 0.6065931498600834 0.6238240257393712	0.059779
C	0.2915186356053473 0.6512792675953551 0.6207526213869511	-0.174605
C	0.2870331380601646 0.7321178719755668 0.6218997944443115	0.084659
C	0.1465179887149677 0.7209971002671927 0.6245431143698817	-0.124137
C	0.1528778672051524 0.6424442070786252 0.6268668923289678	-0.136395
C	0.2980714459742058 0.1002459962532734 0.6843746133741105	0.094221
C	0.3062422978781310 0.0211779971794258 0.6837671138148599	-0.173866
C	0.2678754080343586 0.9775070426706780 0.6251429870378887	0.110923
C	0.2229145465017875 0.0167448127308998 0.5682891683592911	-0.172708
C	0.2192037030610169 0.0961318120585690 0.5705593475494022	0.096959
C	0.2739704877809491 0.8934068501399166 0.6238240257393712	0.059779
C	0.2084814053946524 0.8487207324046449 0.6207526213869511	-0.174604
C	0.2129668349398368 0.7678821280244332 0.6218997944443115	0.084661
C	0.3534819972850312 0.7790028997328073 0.6245431143698817	-0.124136
C	0.3471221327948477 0.8575557929213748 0.6268668923289678	-0.136397
C	0.3997540167467240 0.2980714459742058 0.6843746133741105	0.094219
C	0.4788219838205761 0.3062422978781310 0.6837671138148599	-0.173865
C	0.5224929573293220 0.2678754080343586 0.6251429870378887	0.110923
C	0.4832551842690963 0.2229145465017875 0.5682891683592911	-0.172707
C	0.4038681949414348 0.2192037030610169 0.5705593475494022	0.096959
C	0.6065931498600834 0.2739704877809491 0.6238240257393712	0.059780
C	0.6512792675953551 0.2084814053946524 0.6207526213869511	-0.174604
C	0.7321178719755668 0.2129668349398368 0.6218997944443115	0.084659
C	0.7209971002671927 0.3534819972850312 0.6245431143698817	-0.124137
C	0.6424442070786252 0.3471221327948477 0.6268668923289678	-0.136395
C	0.1002459962532734 0.2019285140257981 0.6843746133741105	0.094220
C	0.0211779971794258 0.1937576621218656 0.6837671138148599	-0.173868
C	0.9775070426706780 0.2321245919656414 0.6251429870378887	0.110925
C	0.0167448127308998 0.2770854664982097 0.5682891683592911	-0.172706
C	0.0961318120585690 0.2807963109389844 0.5705593475494022	0.096959
C	0.8934068501399166 0.2260295122190510 0.6238240257393712	0.059779
C	0.8487207324046449 0.2915186356053473 0.6207526213869511	-0.174605
C	0.7678821280244332 0.2870331380601646 0.6218997944443115	0.084661
C	0.7790028997328073 0.1465179887149677 0.6245431143698817	-0.124135
C	0.8575557929213748 0.1528778672051524 0.6268668923289678	-0.136397
H	0.1756853115748508 0.1356310477283525 0.2312411450636467	0.105122
H	0.1593556288272094 0.9934966726293404 0.2304197507666994	0.118593
H	0.3074613420941013 0.9855893683119590 0.0209488315774108	0.118974
H	0.3124016416491930 0.1286094672272295 0.0250727749716196	0.104698
H	0.3477561245710303 0.8760406180374709 0.1200583331955446	0.109790
H	0.0902493164104933 0.7516710122020041 0.1252048916308278	0.111656
H	0.1015596935753145 0.8932492000534928 0.1291168666782642	0.103298
H	0.3243146614251505 0.3643689792716536 0.2312411450636467	0.105121
H	0.3406444111727868 0.5065033273706596 0.2304197507666994	0.118592
H	0.1925386709058963 0.5144106316880410 0.0209488315774108	0.118975
H	0.1875983583508068 0.3713905327727703 0.0250727749716196	0.104698
H	0.1522438894289709 0.6239593819625291 0.1200583331955446	0.109790
H	0.4097506765895026 0.7483289877979959 0.1252048916308278	0.111658
H	0.3984403194246903 0.6067507999465072 0.1291168666782642	0.103299
H	0.3643689792716536 0.1756853115748508 0.2312411450636467	0.105121
H	0.5065033273706596 0.1593556288272094 0.2304197507666994	0.118593
H	0.5144106316880410 0.3074613420941013 0.0209488315774108	0.118974
H	0.3713905327727703 0.3124016416491930 0.0250727749716196	0.104698
H	0.6239593819625291 0.3477561245710303 0.1200583331955446	0.109791
H	0.7483289877979959 0.0902493164104933 0.1252048916308278	0.111656
H	0.6067507999465072 0.1015596935753145 0.1291168666782642	0.103299
H	0.1356310477283525 0.3243146614251505 0.2312411450636467	0.105122
H	0.9934966726293404 0.3406444111727868 0.2304197507666994	0.118592
H	0.9855893683119590 0.1925386709058963 0.0209488315774108	0.118975
H	0.1286094672272295 0.1875983583508068 0.0250727749716196	0.104698
H	0.8760406180374709 0.1522438894289709 0.1200583331955446	0.109790
H	0.7516710122020041 0.4097506765895026 0.1252048916308278	0.111658
H	0.8932492000534928 0.3984403194246903 0.1291168666782642	0.103299
H	0.8243146614251504 0.6356310747283515 0.2687588709363546	0.105122
H	0.8406443301727908 0.4934967266293376 0.2695802492333006	0.118592
H	0.6925386579058989 0.4855893683119593 0.4790511704225894	0.118974
H	0.6875984113508076 0.6286094942272278 0.4749272230283803	0.104698
H	0.6522438754289694 0.3760405640374735 0.3799416748044561	0.109793
H	0.9097506235895018 0.2516710392020026 0.3747951003691717	0.111657
H	0.8984402924246916 0.3932492260534873 0.3708831413217365	0.103299
H	0.6756853385748496 0.8643689252716485 0.2687588709363546	0.105122
H	0.6593556698272092 0.0065032893706566 0.2695802492333006	0.118592
H	0.8074613420941011 0.0144106306880371 0.4790511704225894	0.118973
H	0.8124015886491924 0.8713905057727722 0.4749272230283803	0.104697
H	0.8477561245710306 0.1239594489625312 0.3799416748044561	0.109796
H	0.5902493234104974 0.2483289337979916 0.3747951003691717	0.111656
H	0.6015597075753084 0.1067507869465102 0.3708831413217365	0.103297
H	0.6356310747283515 0.6756853385748496 0.2687588709363546	0.105122
H	0.4934967266293376 0.6593556698272092 0.2695802492333006	0.118593
H	0.4855893683119593 0.8074613420941011 0.4790511704225894	0.118973
H	0.6286094942272278 0.8124015886491924 0.4749272230283803	0.104698
H	0.3760405640374735 0.8477561245710306 0.3799416748044561	0.109795
H	0.2516710392020026 0.5902493234104974 0.3747951003691717	0.111656
H	0.3932492260534873 0.6015597075753084 0.3708831413217365	0.103298
H	0.8643689252716485 0.8243146614251504 0.2687588709363546	0.105122
H	0.0065032893706566 0.8406443301727908 0.2695802492333006	0.118592
H	0.0144106306880371 0.6925386579058989 0.4790511704225894	0.118975
H	0.8713905057727722 0.6875984113508076 0.4749272230283803	0.104697
H	0.1239594489625312 0.6522438754289696 0.3799416748044561	0.109795
H	0.2483289337979916 0.9097506235895018 0.3747951003691717	0.111658
H	0.1067507869465102 0.8984402924246916 0.3708831413217365	0.103299
H	0.8243146614251504 0.8643689252716485 0.7687588399363556	0.105121
H	0.8406443301727908 0.0065032893706566 0.7695802642333056	0.118592
H	0.6925386579058989 0.0144106306880371 0.9790512014225885	0.118974
H	0.6875984113508076 0.8713905057727722 0.9749271590283822	0.104698
H	0.6522438754289694 0.1239594489625312 0.8799416428044537	0.109793
H	0.9097506235895018 0.2483289337979916 0.8747950373691701	0.111657
H	0.8984402924246916 0.1067507869465102 0.8708831093217337	0.103299
H	0.6756853385748496 0.6356310747283515 0.7687588399363556	0.105122
H	0.6593556698272092 0.4934967266293376 0.7695802642333056	0.118592
H	0.8074613420941011 0.4855893683119593 0.9790512014225885	0.118973
H	0.8124015886491924 0.6286094942272278 0.9749271590283822	0.104698
H	0.8477561245710304 0.3760405640374735 0.8799416428044537	0.109794
H	0.5902493234104974 0.2516710392020026 0.8747950373691701	0.111656
H	0.6015597075753084 0.3932492260534873 0.8708831093217337	0.103298
H	0.6356310747283515 0.8243146614251504 0.7687588399363556	0.105122
H	0.4934967266293376 0.8406443301727908 0.7695802642333056	0.118592
H	0.4855893683119593 0.6925386579058989 0.9790512014225885	0.118974
H	0.6286094942272278 0.6875984113508076 0.9749271590283822	0.104698
H	0.3760405640374735 0.6522438754289696 0.8799416428044537	0.109793
H	0.2516710392020026 0.9097506235895018 0.8747950373691701	0.111657
H	0.3932492260534873 0.8984402924246916 0.8708831093217337	0.103299
H	0.8643689252716485 0.6756853385748496 0.7687588399363556	0.105121
H	0.0065032893706566 0.6593556698272092 0.7695802642333056	0.118593
H	0.0144106306880371 0.8074613420941011 0.9790512014225885	0.118974
H	0.8713905057727722 0.8124015886491924 0.9749271590283822	0.104698
H	0.1239594489625312 0.8477561245710304 0.8799416428044537	0.109795
H	0.2483289337979916 0.5902493234104974 0.8747950373691701	0.111656
H	0.1067507869465102 0.6015597075753084 0.8708831093217337	0.103299
H	0.1756853115748508 0.3643689792716536 0.7312411600636444	0.105121
H	0.1593556288272094 0.5065033273706596 0.7304197357666944	0.118593
H	0.3074613420941013 0.5144106316880410 0.5209488295774105	0.118974
H	0.3124016416491930 0.3713905327727703 0.5250727769716196	0.104698
H	0.3477561245710303 0.6239593819625291 0.6200583571955463	0.109792
H	0.0902493164104933 0.7483289877979959 0.6252049626308299	0.111655
H	0.1015596935753145 0.6067507999465072 0.6291168906782663	0.103298
H	0.3243146614251505 0.1356310477283525 0.7312411600636444	0.105122
H	0.3406444111727868 0.9934966726293404 0.7304197357666944	0.118592
H	0.1925386709058963 0.9855893683119590 0.5209488295774105	0.118974
H	0.1875983583508068 0.1286094672272295 0.5250727769716196	0.104698
H	0.1522438894289709 0.8760406180374709 0.6200583571955463	0.109790
H	0.4097506765895026 0.7516710122020041 0.6252049626308299	0.111657
H	0.3984403194246903 0.8932492000534928 0.6291168906782663	0.103300
H	0.3643689792716536 0.3243146614251505 0.7312411600636444	0.105122
H	0.5065033273706596 0.3406444111727868 0.7304197357666944	0.118592
H	0.5144106316880410 0.1925386709058963 0.5209488295774105	0.118975
H	0.3713905327727703 0.1875983583508068 0.5250727769716196	0.104698
H	0.6239593819625291 0.1522438894289709 0.6200583571955463	0.109791
H	0.7483289877979959 0.4097506765895026 0.6252049626308299	0.111656
H	0.6067507999465072 0.3984403194246903 0.6291168906782663	0.103300
H	0.1356310477283525 0.1756853115748508 0.7312411600636444	0.105122
H	0.9934966726293404 0.1593556288272094 0.7304197357666944	0.118593
H	0.9855893683119590 0.3074613420941013 0.5209488295774105	0.118974
H	0.1286094672272295 0.3124016416491930 0.5250727769716196	0.104699
H	0.8760406180374709 0.3477561245710303 0.6200583571955463	0.109792
H	0.7516710122020041 0.0902493164104933 0.6252049626308299	0.111656
H	0.8932492000534928 0.1015596935753145 0.6291168906782663	0.103299
F	0.3161110132737746 0.1563255551649087 0.3782284493998695	-0.591314
F	0.1838890137262243 0.3436744448350912 0.3782284493998695	-0.591313
F	0.3436744448350912 0.3161110132737746 0.3782284493998695	-0.591313
F	0.1563255551649087 0.1838890137262243 0.3782284493998695	-0.591313
F	0.6838889867262259 0.6563255011649114 0.1217715506001307	-0.591313
F	0.8161110132737741 0.8436744988350886 0.1217715506001307	-0.591313
F	0.6563255011649114 0.8161110132737741 0.1217715506001307	-0.591312
F	0.8436744988350886 0.6838889867262259 0.1217715506001307	-0.591314
F	0.6838889867262259 0.8436744988350885 0.6217715186001281	-0.591313
F	0.8161110132737741 0.6563255011649114 0.6217715186001281	-0.591314
F	0.6563255011649114 0.6838889867262259 0.6217715186001281	-0.591313
F	0.8436744988350886 0.8161110132737741 0.6217715186001281	-0.591313
F	0.3161110132737746 0.3436744448350912 0.8782284813998719	-0.591313
F	0.1838890137262243 0.1563255551649087 0.8782284813998719	-0.591313
F	0.3436744448350912 0.1838890137262243 0.8782284813998719	-0.591314
F	0.1563255551649087 0.3161110132737746 0.8782284813998719	-0.591312
F	0.2500000000000000 0.2500000000000000 0.2572376473972844	-0.530305
F	0.2500000000000000 0.2500000000000000 0.4990440813708223	-0.531879
F	0.7500000000000000 0.7500000000000000 0.2427623686027172	-0.530305
F	0.7500000000000000 0.7500000000000000 0.0009559256291821	-0.531878
F	0.7500000000000000 0.7500000000000000 0.7427623206027133	-0.530305
F	0.7500000000000000 0.7500000000000000 0.5009559506291807	-0.531878
F	0.2500000000000000 0.2500000000000000 0.7572376793972867	-0.530305
F	0.2500000000000000 0.2500000000000000 -0.0009559506291806	-0.531878
Co	0.2500000000000000 0.2500000000000000 0.1282128944851827	0.583014
Co	0.7500000000000000 0.7500000000000000 0.3717871215148184	0.583014
Co	0.7500000000000000 0.7500000000000000 0.8717870905148196	0.583016
Co	0.2500000000000000 0.2500000000000000 0.6282129094851804	0.583016
Sn	0.2500000000000000 0.2500000000000000 0.3780920007048004	1.888554
Sn	0.7500000000000000 0.7500000000000000 0.1219080072952004	1.888554
Sn	0.7500000000000000 0.7500000000000000 0.6219079682952008	1.888554
Sn	0.2500000000000000 0.2500000000000000 0.8780920317047992	1.888553
	  	
