#======================================================================

# CRYSTAL DATA

#----------------------------------------------------------------------

data_VESTA_phase_1


_pd_phase_name                         SnFSIX_2_Cd_i
_cell_length_a                         14.32832
_cell_length_b                         14.32832
_cell_length_c                         8.49849
_cell_angle_alpha                      90
_cell_angle_beta                       90
_cell_angle_gamma                      90
_symmetry_space_group_name_H-M         P 1
_symmetry_Int_Tables_number            1

loop_
_symmetry_equiv_pos_as_xyz
   x, y, z

loop_
   _atom_site_label
   _atom_site_fract_x
   _atom_site_fract_y
   _atom_site_fract_z
   _atom_site_charge
C	0.0000000000000000 0.3084517386091039 0.3576181946838838	-0.157741
C	0.0000000000000000 0.2116047871755479 0.3631249194775001	0.107185
C	0.5000000000000000 0.8084517386091041 0.8576182236838821	-0.157744
C	0.5000000000000000 0.7116048051755491 0.8631249194775001	0.107176
C	0.0000000000000000 0.6915482613908959 0.3576181946838838	-0.157747
C	0.0000000000000000 0.7883951948244509 0.3631249194775001	0.107178
C	0.5000000000000000 0.1915482783908939 0.8576182236838821	-0.157746
C	0.5000000000000000 0.2883951948244504 0.8631249194775001	0.107178
C	0.6915482613908959 -0.0000000000000000 0.3576181946838838	-0.157744
C	0.7883951948244509 -0.0000000000000000 0.3631249194775001	0.107179
C	0.1915482783908938 0.5000000000000000 0.8576182236838821	-0.157744
C	0.2883951948244504 0.5000000000000000 0.8631249194775001	0.107179
C	0.3084517386091039 -0.0000000000000000 0.3576181946838838	-0.157743
C	0.2116047871755479 -0.0000000000000000 0.3631249194775001	0.107190
C	0.8084517386091041 0.5000000000000000 0.8576182236838821	-0.157747
C	0.7116048051755491 0.5000000000000000 0.8631249194775001	0.107181
C	0.0000000000000000 0.3084517386091039 0.6423817763161179	-0.157736
C	0.0000000000000000 0.2116047871755479 0.6368750805224999	0.107186
C	0.5000000000000000 0.8084517386091041 0.1423818053161164	-0.157739
C	0.5000000000000000 0.7116048051755491 0.1368750655225023	0.107177
C	0.0000000000000000 0.6915482613908959 0.6423817763161179	-0.157742
C	0.0000000000000000 0.7883951948244509 0.6368750805224999	0.107179
C	0.5000000000000000 0.1915482783908938 0.1423818053161164	-0.157742
C	0.5000000000000000 0.2883951948244504 0.1368750655225023	0.107179
C	0.3084517386091039 -0.0000000000000000 0.6423817763161179	-0.157739
C	0.2116047871755479 -0.0000000000000000 0.6368750805224999	0.107191
C	0.8084517386091041 0.5000000000000000 0.1423818053161164	-0.157742
C	0.7116048051755491 0.5000000000000000 0.1368750655225023	0.107182
C	0.6915482613908959 -0.0000000000000000 0.6423817763161179	-0.157740
C	0.7883951948244509 -0.0000000000000000 0.6368750805224999	0.107180
C	0.1915482783908939 0.5000000000000000 0.1423818053161164	-0.157740
C	0.2883951948244504 0.5000000000000000 0.1368750655225023	0.107180
C	0.0000000000000000 0.4574642836565870 0.5000000000000000	-0.095174
C	0.0000000000000000 0.3587947827675496 0.5000000000000000	0.165856
C	0.5000000000000000 0.9574643176565897 0.0000000000000000	-0.095173
C	0.5000000000000000 0.8587947477675503 0.0000000000000000	0.165856
C	0.0000000000000000 0.5425357163434131 0.5000000000000000	-0.094918
C	0.0000000000000000 0.6412052522324497 0.5000000000000000	0.165825
C	0.5000000000000000 0.0425356953434077 0.0000000000000000	-0.094918
C	0.5000000000000000 0.1412052522324498 0.0000000000000000	0.165825
C	0.5425357163434131 -0.0000000000000000 0.5000000000000000	-0.095174
C	0.6412052522324497 -0.0000000000000000 0.5000000000000000	0.165856
C	0.0425356953434077 0.5000000000000000 0.0000000000000000	-0.095174
C	0.1412052522324498 0.5000000000000000 0.0000000000000000	0.165856
C	0.4574642836565870 -0.0000000000000000 0.5000000000000000	-0.094919
C	0.3587947827675496 -0.0000000000000000 0.5000000000000000	0.165825
C	0.9574643176565897 0.5000000000000000 0.0000000000000000	-0.094918
C	0.8587947477675503 0.5000000000000000 0.0000000000000000	0.165825
H	0.0000000000000000 0.3443660752508908 0.2446930699175514	0.122180
H	0.0000000000000000 0.1705180584951486 0.2550967584458109	0.096781
H	0.5000000000000000 0.8443660752508907 0.7446930699175510	0.122181
H	0.5000000000000000 0.6705180054951480 0.7550967884458135	0.096782
H	0.0000000000000000 0.6556339247491093 0.2446930699175514	0.122180
H	0.0000000000000000 0.8294819945048520 0.2550967584458109	0.096782
H	0.5000000000000000 0.1556339247491093 0.7446930699175510	0.122180
H	0.5000000000000000 0.3294819595048460 0.7550967884458135	0.096782
H	0.6556339247491093 -0.0000000000000000 0.2446930699175514	0.122181
H	0.8294819945048520 -0.0000000000000000 0.2550967584458109	0.096781
H	0.1556339247491093 0.5000000000000000 0.7446930699175510	0.122181
H	0.3294819595048460 0.5000000000000000 0.7550967884458135	0.096781
H	0.3443660752508908 -0.0000000000000000 0.2446930699175514	0.122179
H	0.1705180584951486 -0.0000000000000000 0.2550967584458109	0.096779
H	0.8443660752508907 0.5000000000000000 0.7446930699175510	0.122180
H	0.6705180054951480 0.5000000000000000 0.7550967884458135	0.096781
H	0.0000000000000000 0.3443660752508908 0.7553069300824490	0.122175
H	0.0000000000000000 0.1705180584951486 0.7449031535541888	0.096780
H	0.5000000000000000 0.8443660752508907 0.2553069300824488	0.122175
H	0.5000000000000000 0.6705180054951480 0.2449032415541890	0.096782
H	0.0000000000000000 0.6556339247491093 0.7553069300824490	0.122174
H	0.0000000000000000 0.8294819945048520 0.7449031535541888	0.096782
H	0.5000000000000000 0.1556339247491093 0.2553069300824488	0.122174
H	0.5000000000000000 0.3294819595048460 0.2449032415541890	0.096782
H	0.3443660752508908 -0.0000000000000000 0.7553069300824490	0.122174
H	0.1705180584951486 -0.0000000000000000 0.7449031535541888	0.096779
H	0.8443660752508907 0.5000000000000000 0.2553069300824488	0.122174
H	0.6705180054951480 0.5000000000000000 0.2449032415541890	0.096781
H	0.6556339247491093 -0.0000000000000000 0.7553069300824490	0.122175
H	0.8294819945048520 -0.0000000000000000 0.7449031535541888	0.096781
H	0.1556339247491093 0.5000000000000000 0.2553069300824488	0.122175
H	0.3294819595048460 0.5000000000000000 0.2449032415541890	0.096781
Cd	0.0000000000000000 -0.0000000000000000 0.5000000000000000	0.827583
Cd	0.5000000000000000 0.5000000000000000 0.0000000000000000	0.827612
Sn	0.0000000000000000 -0.0000000000000000 0.0000000000000000	1.883893
Sn	0.5000000000000000 0.5000000000000000 0.5000000000000000	1.883893
N	0.0000000000000000 0.1640525154152803 0.5000000000000000	-0.239526
N	0.5000000000000000 0.6640524974152784 0.0000000000000000	-0.239514
N	0.0000000000000000 0.8359475025847216 0.5000000000000000	-0.239510
N	0.5000000000000000 0.3359475025847212 0.0000000000000000	-0.239514
N	0.8359475025847216 -0.0000000000000000 0.5000000000000000	-0.239511
N	0.3359475025847212 0.5000000000000000 0.0000000000000000	-0.239515
N	0.1640525154152803 -0.0000000000000000 0.5000000000000000	-0.239527
N	0.6640524974152784 0.5000000000000000 0.0000000000000000	-0.239515
F	0.0000000000000000 -0.0000000000000000 0.7619610811299030	-0.534578
F	0.5000000000000000 0.5000000000000000 0.2619611701299071	-0.534582
F	0.0000000000000000 -0.0000000000000000 0.2380388448700980	-0.534578
F	0.5000000000000000 0.5000000000000000 0.7380389188700970	-0.534582
F	0.5982156884863641 0.5982156884863641 0.5000000000000000	-0.578656
F	0.5982156884863641 0.4017843115136359 0.5000000000000000	-0.578656
F	0.4017843115136359 0.5982156884863641 0.5000000000000000	-0.578656
F	0.4017843115136359 0.4017843115136359 0.5000000000000000	-0.578656
F	0.0982157054863620 0.0982157054863620 0.0000000000000000	-0.578655
F	0.9017843115136359 0.9017843115136359 0.0000000000000000	-0.578656
F	0.9017843115136359 0.0982157054863620 0.0000000000000000	-0.578656
F	0.0982157054863620 0.9017843115136359 0.0000000000000000	-0.578656
	  	
