#======================================================================

# CRYSTAL DATA

#----------------------------------------------------------------------

data_VESTA_phase_1


_pd_phase_name                         SnFSIX_14_Cd_i
_cell_length_a                         13.72504
_cell_length_b                         13.71073
_cell_length_c                         8.43356
_cell_angle_alpha                      90.61646
_cell_angle_beta                       90.51115
_cell_angle_gamma                      89.68497
_symmetry_space_group_name_H-M         P 1
_symmetry_Int_Tables_number            1

loop_
_symmetry_equiv_pos_as_xyz
   x, y, z

loop_
   _atom_site_label
   _atom_site_fract_x
   _atom_site_fract_y
   _atom_site_fract_z
   _atom_site_charge
C	0.5775436695386125 0.2623675032096750 0.3575907038592607	-0.180605
C	0.4764985469588961 0.2657909164463785 0.3589571869687802	0.106399
C	0.9341066713963972 0.2846358993915581 0.4180955462729807	-0.164252
C	0.0350228600064763 0.2784130200255475 0.4064676129226678	0.118166
C	0.2608222224622992 0.5773407935775453 0.3599219052177140	-0.179212
C	0.2638751314059685 0.4761590380089258 0.3617551100452017	0.106846
C	0.2920852147180326 0.9340852983255712 0.4151282212280404	-0.163905
C	0.2850459156441184 0.0350760791633967 0.4041936909821041	0.118170
C	0.9228770587199585 0.2400798832031135 0.1402696377335257	-0.181586
C	0.0239416578074953 0.2370816061089007 0.1385980648052897	0.106405
C	0.5662293967589290 0.2107769890567506 0.0829006742793969	-0.164009
C	0.4652958174325150 0.2174760757688736 0.0941174311519881	0.118581
C	0.2124740893287279 0.5655872282185866 0.0838489487696252	-0.164454
C	0.2189750082149363 0.4646060391975388 0.0954951914014354	0.118241
C	0.2372430300872250 0.9224982322526613 0.1421972672335408	-0.179152
C	0.2338340560754757 0.0236703471041646 0.1409016481275874	0.108179
C	0.4228403867591606 0.7413753664237913 0.6417644265672336	-0.181220
C	0.5238680915208136 0.7386085904973054 0.6400651188909404	0.107469
C	0.0658746507607058 0.7283738086324705 0.5761524949969783	-0.161752
C	0.9649665980680247 0.7332473740827147 0.5886712525803447	0.119284
C	0.7416880160580060 0.4229017937098705 0.6411495496342976	-0.181075
C	0.7392039241106385 0.5240393402457725 0.6395590912055060	0.107740
C	0.7176724730415114 0.0658893762838258 0.5787303365616222	-0.163348
C	0.7235932891049079 0.9648603853683052 0.5900193829692845	0.120823
C	0.0770155276928819 0.7569240608214824 0.8592639752447984	-0.182774
C	0.9759502777843452 0.7589637571009589 0.8614258246239224	0.108141
C	0.4338851176629038 0.7772874986538525 0.9227780816501054	-0.161696
C	0.5348260085327595 0.7717728738094587 0.9107856648683569	0.120880
C	0.7769769702451094 0.4339986602775540 0.9223021512129435	-0.162758
C	0.7715889303117904 0.5350183090942197 0.9105159405253462	0.120461
C	0.7608761740391006 0.0769371035847640 0.8570274878659530	-0.181110
C	0.7638686565516187 0.9757959540919198 0.8582263484872777	0.107591
C	0.6234357442494133 0.2351163583291775 0.2154589609551252	0.191484
C	0.8769624747152044 0.2635082924398002 0.2840530732367343	0.192996
C	0.2354265190534833 0.6230195244519884 0.2169613846159108	0.192558
C	0.2661406170542101 0.8767283108301464 0.2833730977350960	0.190747
C	0.3768278598167605 0.7608147147174018 0.7870727423089017	0.191359
C	0.1229620293631969 0.7414355566166617 0.7127947483435443	0.192708
C	0.7606201851185375 0.3768829617244608 0.7864057468764156	0.191883
C	0.7377496242604979 0.1229777026877335 0.7133449027006197	0.192509
H	0.6197292907047524 0.2774219762392944 0.4649785262647873	0.106184
H	0.4367990489259254 0.2849137348831685 0.4664678639585361	0.101983
H	0.9000596563653792 0.3047918778991662 0.5297870096690070	0.126536
H	0.0814333074517485 0.2931888055203719 0.5095551425110009	0.096218
H	0.2746333081179061 0.6199930300167855 0.4673854748538455	0.107234
H	0.2815823779998899 0.4365885888379496 0.4698917966792860	0.101590
H	0.3166392084512885 0.9001930649811988 0.5245777164252370	0.127019
H	0.3033370532049247 0.0816989438146665 0.5057078309883860	0.096164
H	0.8806189942300900 0.2276175885876119 0.0320742617721243	0.106287
H	0.0636975410227895 0.2207920675280921 0.0299668778599437	0.101580
H	0.6002700623791781 0.1876619038652249 0.9726310479990502	0.127059
H	0.4188413123925149 0.2000500164619609 -0.0078692648265936	0.096666
H	0.1908116278229202 0.5994385455385821 0.9728222730384718	0.126924
H	0.2029203641354260 0.4178987466664473 -0.0068980764634407	0.096474
H	0.2210556667752976 0.8800461012832625 0.0354204192243962	0.106801
H	0.2135544245588008 0.0633174925718701 0.0340163634927601	0.101532
H	0.3809305440537776 0.7313539276056993 0.5325236844385498	0.102399
H	0.5636694611044795 0.7252384448480919 0.5305846033591703	0.101224
H	0.0999789634440915 0.7152295320408335 0.4619591593466089	0.126760
H	0.9186391219423701 0.7249255963087649 0.4839052116755667	0.095069
H	0.7320798904914362 0.3807565168678128 0.5319241012269792	0.103617
H	0.7263448975820800 0.5638937540521308 0.5300755389606289	0.101389
H	0.6981963043591068 0.1001329952132254 0.4670418148118323	0.127329
H	0.7094565622553910 0.9185406941971818 0.4865904426085577	0.094558
H	0.1190851621680885 0.7645186779990762 0.9688386267416387	0.102987
H	0.9361784309290174 0.7691653134198828 0.9717926231845777	0.101113
H	0.3997328572157406 0.7937109841717018 0.0358588685665117	0.126764
H	0.5810667329931996 0.7830179813995678 0.0149939322449913	0.094258
H	0.7930284586617277 0.3997915918655131 0.0353681115566024	0.126692
H	0.7827023898629746 0.5813592855640131 0.0148337235103280	0.094725
H	0.7732672830137959 0.1189697702800769 0.9656146268532870	0.104216
H	0.7799477418999410 0.9359313620683093 0.9666463512170810	0.101380
N	0.7748045625748516 0.2714155046043130 0.3023723397935409	-0.103257
N	0.2749162623856934 0.7744237998200141 0.3006665467186792	-0.103401
N	0.7256202093616489 0.2267893403773364 0.1972723869660566	-0.102271
N	0.2270340756704012 0.7252708660705908 0.1993966261012620	-0.102878
N	0.2250332509742679 0.7344862580427428 0.6925051264294548	-0.101718
N	0.7297944491706427 0.2251879538738152 0.6944652020845727	-0.101838
N	0.2747468207909640 0.7681469542876711 0.8071804145273116	-0.099374
N	0.7681937971725328 0.2747241091595094 0.8054388163007207	-0.100503
N	0.4213709975281647 0.2447582304499734 0.2297093462628652	-0.233657
N	0.0790301572085755 0.2548248475722373 0.2691763582770234	-0.233167
N	0.2444281422512525 0.4208329511940355 0.2319772427581992	-0.234621
N	0.2562276143190794 0.0789214906073228 0.2695102696582320	-0.233616
N	0.5789188615855447 0.7529154736744231 0.7718375652173103	-0.234039
N	0.9208668064008384 0.7479491840821486 0.7289097204397572	-0.234199
N	0.7532028332052887 0.5791293304297263 0.7715180482600378	-0.234639
N	0.7462034422776821 0.9207339801448687 0.7274195947433358	-0.234637
F	0.3535316238474583 0.1449339224699918 0.7532647426894686	-0.568147
F	0.1478420095181029 0.3522610430335393 0.7495420391612542	-0.568662
F	0.3495822311215321 0.3475061518030166 0.8121341782949446	-0.574239
F	0.1522309660335003 0.1502609525714562 0.6871465327103156	-0.574221
F	0.6458904386690650 0.8536021941542128 0.2508585072036817	-0.566543
F	0.8520077900182630 0.6476035817543122 0.2491319292683214	-0.567788
F	0.6504238692766823 0.6520166986826139 0.1860134921138040	-0.569781
F	0.8473771333080152 0.8492002786183398 0.3140719867352703	-0.569414
F	0.2775096013614166 0.2739818689561368 0.5161719047967879	-0.539511
F	0.2237673209608889 0.2241909755745397 -0.0154103981716818	-0.538936
F	0.7236793653542222 0.7243229358405069 0.4840062039344978	-0.537984
F	0.7748276462643222 0.7762347130624961 0.0159015021537022	-0.538003
Sn	0.2508302023567661 0.2488024385034723 0.7503246577891393	1.869900
Sn	0.7489903622773735 0.7505588405806942 0.2499580016388030	1.867503
Cd	0.2502350994866827 0.2498716247545746 0.2502668973295173	0.818382
Cd	0.7499038453205872 0.7498702141170048 0.7498545284077135	0.817813
	  	
