#======================================================================

# CRYSTAL DATA

#----------------------------------------------------------------------

data_VESTA_phase_1


_pd_phase_name                         SnFSIX_15_Cu_i
_cell_length_a                         29.61398
_cell_length_b                         28.72834
_cell_length_c                         8.46854
_cell_angle_alpha                      90
_cell_angle_beta                       90
_cell_angle_gamma                      90
_symmetry_space_group_name_H-M         P 1
_symmetry_Int_Tables_number            1

loop_
_symmetry_equiv_pos_as_xyz
   x, y, z

loop_
   _atom_site_label
   _atom_site_fract_x
   _atom_site_fract_y
   _atom_site_fract_z
   _atom_site_charge
C	0.9350535877678957 0.1043056540525543 0.8872116497302129	0.104813
C	0.9026892896747604 0.0694184029823963 0.8924759093673490	-0.160210
C	0.7701077304300042 0.9363884115252427 0.8942458247807276	-0.113101
C	0.7356381269953298 0.9038053734382279 0.8940362566541832	-0.114414
C	0.5665065430083455 0.7398478936280807 0.8870866292329184	0.103447
C	0.6003932204758048 0.7731582211064127 0.8921508821262559	-0.163524
C	0.4350536197678911 0.6043056700525558 0.8872116497302129	0.104812
C	0.4026893216747626 0.5694183659823970 0.8924759093673490	-0.160210
C	0.2701076664300061 0.4363884445252421 0.8942458247807276	-0.113101
C	0.2356380949953275 0.4038054394382331 0.8940362566541832	-0.114414
C	0.0665065670083477 0.2398478766280829 0.8870866292329184	0.103449
C	0.1003931964758031 0.2731582541064120 0.8921508821262559	-0.163522
C	0.0649463802321090 0.8956943299474442 0.3872116807302118	0.104813
C	0.0973106863252378 0.9305816340176030 0.3924759413673448	-0.160211
C	0.2298922855699969 0.0636115514747576 0.3942458867807259	-0.113108
C	0.2643618890046712 0.0961945765617681 0.3940362566541831	-0.114415
C	0.4334934249916516 0.2601521563719166 0.3870866602329168	0.103449
C	0.3996067795241950 0.2268417458935878 0.3921508821262561	-0.163521
C	0.5649464122321043 0.3956943629474435 0.3872116807302118	0.104813
C	0.5973107103252396 0.4305816340176035 0.3924759413673448	-0.160211
C	0.7298922695699958 0.5636115884747573 0.3942458867807259	-0.113108
C	0.7643618730046702 0.5961946265617721 0.3940362566541831	-0.114415
C	0.9334934569916545 0.7601521063719193 0.3870866602329168	0.103447
C	0.8996067795241952 0.7268417788935873 0.3921508821262561	-0.163524
C	0.0649463802321090 0.1043056540525543 0.6127883192697881	0.104813
C	0.0973106863252378 0.0694184029823963 0.6075239966326503	-0.160210
C	0.2298922855699969 0.9363884115252427 0.6057541442192734	-0.113101
C	0.2643618890046712 0.9038053734382279 0.6059637743458158	-0.114414
C	0.4334934249916516 0.7398478936280807 0.6129132767670810	0.103447
C	0.3996067795241950 0.7731582211064127 0.6078490868737451	-0.163525
C	0.5649464122321043 0.6043056700525558 0.6127883192697881	0.104813
C	0.5973107103252396 0.5694183659823970 0.6075239966326503	-0.160210
C	0.7298922695699958 0.4363884445252421 0.6057541442192734	-0.113101
C	0.7643618730046702 0.4038054394382331 0.6059637743458158	-0.114414
C	0.9334934569916545 0.2398478766280829 0.6129132767670810	0.103450
C	0.8996067795241952 0.2731582541064120 0.6078490868737451	-0.163522
C	0.9350535877678957 0.8956943299474442 0.1127883352697892	0.104813
C	0.9026892896747604 0.9305816340176030 0.1075240356326496	-0.160211
C	0.7701077304300042 0.0636115514747576 0.1057541442192731	-0.113100
C	0.7356381269953298 0.0961945765617681 0.1059637593458113	-0.114414
C	0.5665065430083455 0.2601521563719166 0.1129133317670823	0.103449
C	0.6003932204758048 0.2268417458935878 0.1078491328737415	-0.163521
C	0.4350536197678911 0.3956943629474435 0.1127883352697892	0.104813
C	0.4026893216747626 0.4305816340176035 0.1075240356326497	-0.160211
C	0.2701076664300061 0.5636115884747573 0.1057541442192731	-0.113100
C	0.2356380949953275 0.5961946265617721 0.1059637593458113	-0.114415
C	0.0665065670083477 0.7601521063719193 0.1129133317670823	0.103447
C	0.1003931964758031 0.7268417788935873 0.1078491328737415	-0.163524
C	0.0649463802321090 0.8956943299474442 0.1127883352697892	0.104813
C	0.0973106863252378 0.9305816340176030 0.1075240356326496	-0.160211
C	0.2298922855699969 0.0636115514747576 0.1057541442192731	-0.113100
C	0.2643618890046712 0.0961945765617681 0.1059637593458113	-0.114415
C	0.4334934249916515 0.2601521563719166 0.1129133317670823	0.103449
C	0.3996067795241950 0.2268417458935878 0.1078491328737415	-0.163521
C	0.5649464122321043 0.3956943629474435 0.1127883352697892	0.104813
C	0.5973107103252396 0.4305816340176035 0.1075240356326497	-0.160211
C	0.7298922695699958 0.5636115884747573 0.1057541442192731	-0.113100
C	0.7643618730046702 0.5961946265617721 0.1059637593458113	-0.114415
C	0.9334934569916545 0.7601521063719193 0.1129133317670823	0.103447
C	0.8996067795241952 0.7268417788935873 0.1078491328737415	-0.163524
C	0.9350535877678957 0.1043056540525543 0.6127883192697881	0.104813
C	0.9026892896747604 0.0694184029823963 0.6075239966326503	-0.160210
C	0.7701077304300042 0.9363884115252427 0.6057541442192734	-0.113101
C	0.7356381269953298 0.9038053734382279 0.6059637743458158	-0.114414
C	0.5665065430083455 0.7398478936280807 0.6129132767670810	0.103448
C	0.6003932204758048 0.7731582211064127 0.6078490868737451	-0.163525
C	0.4350536197678911 0.6043056700525558 0.6127883192697881	0.104812
C	0.4026893216747626 0.5694183659823970 0.6075239966326503	-0.160210
C	0.2701076664300061 0.4363884445252421 0.6057541442192734	-0.113101
C	0.2356380949953275 0.4038054394382331 0.6059637743458158	-0.114414
C	0.0665065670083477 0.2398478766280829 0.6129132767670810	0.103450
C	0.1003931964758031 0.2731582541064120 0.6078490868737451	-0.163522
C	0.9350535877678957 0.8956943299474442 0.3872116807302118	0.104813
C	0.9026892896747604 0.9305816340176030 0.3924759413673448	-0.160211
C	0.7701077304300042 0.0636115514747576 0.3942458867807259	-0.113108
C	0.7356381269953298 0.0961945765617681 0.3940362566541831	-0.114415
C	0.5665065430083455 0.2601521563719166 0.3870866602329168	0.103449
C	0.6003932204758048 0.2268417458935878 0.3921508821262561	-0.163521
C	0.4350536197678911 0.3956943629474435 0.3872116807302118	0.104812
C	0.4026893216747626 0.4305816340176035 0.3924759413673448	-0.160211
C	0.2701076664300061 0.5636115884747573 0.3942458867807259	-0.113108
C	0.2356380949953275 0.5961946265617721 0.3940362566541831	-0.114416
C	0.0665065670083477 0.7601521063719193 0.3870866602329168	0.103447
C	0.1003931964758031 0.7268417788935873 0.3921508821262561	-0.163525
C	0.0649463802321090 0.1043056540525543 0.8872116497302129	0.104812
C	0.0973106863252378 0.0694184029823963 0.8924759093673490	-0.160210
C	0.2298922855699969 0.9363884115252427 0.8942458247807276	-0.113101
C	0.2643618890046712 0.9038053734382279 0.8940362566541832	-0.114414
C	0.4334934249916516 0.7398478936280807 0.8870866292329184	0.103447
C	0.3996067795241950 0.7731582211064127 0.8921508821262559	-0.163525
C	0.5649464122321043 0.6043056700525558 0.8872116497302129	0.104812
C	0.5973107103252396 0.5694183659823970 0.8924759093673490	-0.160211
C	0.7298922695699958 0.4363884445252421 0.8942458247807276	-0.113102
C	0.7643618730046702 0.4038054394382331 0.8940362566541832	-0.114414
C	0.9334934569916545 0.2398478766280829 0.8870866292329184	0.103450
C	0.8996067795241952 0.2731582541064120 0.8921508821262559	-0.163522
C	0.6528553941097738 0.8244623335286844 0.7500000160000013	-0.105835
C	0.8856718786726612 0.0512561698501915 0.7500000160000013	0.165801
C	0.8225492541617477 0.9867823832192558 0.7500000160000013	-0.096150
C	0.6182594318097924 0.7906730213523849 0.7500000160000013	0.171545
C	0.7877926662903488 0.9531758334295950 0.7500000160000013	0.126872
C	0.7178476925749850 0.8869574437860320 0.7500000160000013	0.138498
C	0.6829094695797502 0.8535360267271627 0.7500000160000013	-0.095473
C	0.8521615866609639 0.0163287674655485 0.7500000160000013	-0.106144
C	0.1528553781097720 0.3244623335286841 0.7500000160000013	-0.105837
C	0.3856717826726606 0.5512561818501928 0.7500000160000013	0.165801
C	0.3225492541617479 0.4867823832192555 0.7500000160000013	-0.096150
C	0.1182594238097916 0.2906730213523851 0.7500000160000013	0.171544
C	0.2877926342903528 0.4531758334295953 0.7500000160000013	0.126872
C	0.2178476765749839 0.3869574767860312 0.7500000160000013	0.138498
C	0.1829094365797511 0.3535359937271636 0.7500000160000013	-0.095472
C	0.3521615546609612 0.5163287624655443 0.7500000160000013	-0.106144
C	0.3471446378902294 0.1755376664713155 0.2500000000000000	-0.105836
C	0.1143281933273446 0.9487438181498072 0.2500000000000000	0.165801
C	0.1774507458382522 0.0132176127807439 0.2500000000000000	-0.096150
C	0.3817405681902076 0.2093269626476136 0.2500000000000000	0.171544
C	0.2122073497096528 0.0468241585704040 0.2500000000000000	0.126870
C	0.2821523074250148 0.1130425152139681 0.2500000000000000	0.138499
C	0.3170905634202490 0.1464639732728374 0.2500000000000000	-0.095472
C	0.1478384453390387 0.9836712045344566 0.2500000000000000	-0.106145
C	0.8471446058902262 0.6755376664713156 0.2500000000000000	-0.105835
C	0.6143281213273388 0.4487438511498070 0.2500000000000000	0.165801
C	0.6774507458382523 0.5132176167807442 0.2500000000000000	-0.096150
C	0.8817405681902076 0.7093269786476151 0.2500000000000000	0.171544
C	0.7122073337096512 0.5468241995704042 0.2500000000000000	0.126870
C	0.7821523074250150 0.6130425562139680 0.2500000000000000	0.138499
C	0.8170905304202498 0.6464639732728373 0.2500000000000000	-0.095473
C	0.6478384133390361 0.4836712045344560 0.2500000000000000	-0.106145
C	0.3471446378902294 0.8244623335286844 0.7500000160000013	-0.105835
C	0.1143281933273446 0.0512561698501915 0.7500000160000013	0.165801
C	0.1774507458382522 0.9867823832192558 0.7500000160000013	-0.096150
C	0.3817405681902076 0.7906730213523849 0.7500000160000013	0.171545
C	0.2122073497096528 0.9531758334295950 0.7500000160000013	0.126872
C	0.2821523074250148 0.8869574437860320 0.7500000160000013	0.138498
C	0.3170905634202490 0.8535360267271627 0.7500000160000013	-0.095473
C	0.1478384453390387 0.0163287674655485 0.7500000160000013	-0.106144
C	0.8471446058902262 0.3244623335286841 0.7500000160000013	-0.105836
C	0.6143281213273388 0.5512561818501928 0.7500000160000013	0.165801
C	0.6774507458382523 0.4867823832192555 0.7500000160000013	-0.096150
C	0.8817405681902076 0.2906730213523851 0.7500000160000013	0.171544
C	0.7122073337096512 0.4531758334295953 0.7500000160000013	0.126872
C	0.7821523074250150 0.3869574767860312 0.7500000160000013	0.138498
C	0.8170905304202498 0.3535359937271636 0.7500000160000013	-0.095473
C	0.6478384133390361 0.5163287624655443 0.7500000160000013	-0.106143
C	0.6528553941097738 0.1755376664713155 0.2500000000000000	-0.105836
C	0.8856718786726612 0.9487438181498072 0.2500000000000000	0.165801
C	0.8225492541617477 0.0132176127807439 0.2500000000000000	-0.096150
C	0.6182594318097924 0.2093269626476136 0.2500000000000000	0.171544
C	0.7877926662903488 0.0468241585704040 0.2500000000000000	0.126870
C	0.7178476925749850 0.1130425152139681 0.2500000000000000	0.138499
C	0.6829094695797502 0.1464639732728374 0.2500000000000000	-0.095473
C	0.8521615866609639 0.9836712045344566 0.2500000000000000	-0.106144
C	0.1528553781097720 0.6755376664713156 0.2500000000000000	-0.105835
C	0.3856717826726606 0.4487438511498070 0.2500000000000000	0.165801
C	0.3225492541617479 0.5132176167807442 0.2500000000000000	-0.096150
C	0.1182594238097916 0.7093269786476151 0.2500000000000000	0.171545
C	0.2877926342903528 0.5468241995704042 0.2500000000000000	0.126870
C	0.2178476765749839 0.6130425562139680 0.2500000000000000	0.138499
C	0.1829094365797511 0.6464639732728373 0.2500000000000000	-0.095473
C	0.3521615546609612 0.4836712045344560 0.2500000000000000	-0.106145
H	0.9487728837716531 0.1190487802592599 -0.0047576484515514	0.097824
H	0.8907358845330272 0.0564245611314856 0.0058080656959392	0.125020
H	0.7839524508524045 0.9493093231620332 0.0051614743165073	0.106261
H	0.7219076717591327 0.8907825326905427 0.0048360034803142	0.115469
H	0.5522246608772459 0.7257667643956788 -0.0047319027310543	0.096896
H	0.6129372825409718 0.7854545105503077 0.0054610688810613	0.130037
H	0.4487729797716536 0.6190487962592613 -0.0047576484515514	0.097826
H	0.3907358205330296 0.5564245901314917 0.0058080656959392	0.125020
H	0.2839524508524043 0.4493093231620331 0.0051614743165073	0.106261
H	0.2219076877591346 0.3907826316905477 0.0048360034803142	0.115469
H	0.0522246688772464 0.2257668133956788 -0.0047319027310543	0.096899
H	0.1129372985409660 0.2854544445503091 0.0054610688810613	0.130032
H	0.0512270562283423 0.8809512037407387 0.4952423805484474	0.097826
H	0.1092641634669693 0.9435754098685083 0.5058081006959381	0.125020
H	0.2160475811475983 0.0506906938379719 0.5051615063165097	0.106270
H	0.2780923282408666 0.1092173933094581 0.5048359994803142	0.115469
H	0.4477753391227543 0.2742331696043231 0.4952680972689459	0.096896
H	0.3870627174590282 0.2145455064496903 0.5054610998810602	0.130032
H	0.5512271162283469 0.3809512037407389 0.4952423805484474	0.097826
H	0.6092641154669728 0.4435754428685147 0.5058081006959381	0.125020
H	0.7160475491475955 0.5506906768379668 0.5051615063165097	0.106270
H	0.7780923282408673 0.6092174673094573 0.5048359994803142	0.115469
H	0.9477753391227541 0.7742332356043212 0.4952680972689459	0.096896
H	0.8870627174590282 0.7145454894496923 0.5054610998810602	0.130036
H	0.0512270562283423 0.1190487802592599 0.5047576504515514	0.097824
H	0.1092641634669693 0.0564245611314856 0.4941918993040542	0.125020
H	0.2160475811475983 0.9493093231620332 0.4948385256834925	0.106261
H	0.2780923282408666 0.8907825326905427 0.4951640005196862	0.115469
H	0.4477753391227543 0.7257667643956788 0.5047319347310572	0.096896
H	0.3870627174590282 0.7854545105503077 0.4945389311189388	0.130037
H	0.5512271162283469 0.6190487962592613 0.5047576504515514	0.097826
H	0.6092641154669728 0.5564245901314917 0.4941918993040542	0.125020
H	0.7160475491475955 0.4493093231620331 0.4948385256834925	0.106261
H	0.7780923282408673 0.3907826316905477 0.4951640005196862	0.115469
H	0.9477753391227541 0.2257668133956788 0.5047319347310572	0.096899
H	0.8870627174590282 0.2854544445503091 0.4945389311189388	0.130032
H	0.9487728837716531 0.8809512037407387 0.0047576504515514	0.097826
H	0.8907358845330272 0.9435754098685083 0.9941918683040558	0.125020
H	0.7839524508524045 0.0506906938379719 0.9948385256834930	0.106261
H	0.7219076717591327 0.1092173933094581 0.9951639695196797	0.115469
H	0.5522246608772459 0.2742331696043231 0.0047319027310541	0.096896
H	0.6129372825409718 0.2145455064496903 0.9945389311189388	0.130032
H	0.4487729797716536 0.3809512037407389 0.0047576504515514	0.097826
H	0.3907358205330296 0.4435754428685147 0.9941918683040558	0.125020
H	0.2839524508524043 0.5506906768379668 0.9948385256834930	0.106261
H	0.2219076877591346 0.6092174673094573 0.9951639695196797	0.115469
H	0.0522246688772464 0.7742332356043212 0.0047319027310541	0.096896
H	0.1129372985409660 0.7145454894496923 0.9945389311189388	0.130037
H	0.0512270562283423 0.8809512037407387 0.0047576504515514	0.097826
H	0.1092641634669693 0.9435754098685083 0.9941918683040558	0.125020
H	0.2160475811475983 0.0506906938379719 0.9948385256834930	0.106261
H	0.2780923282408666 0.1092173933094581 0.9951639695196797	0.115471
H	0.4477753391227543 0.2742331696043231 0.0047319027310541	0.096896
H	0.3870627174590282 0.2145455064496903 0.9945389311189388	0.130032
H	0.5512271162283469 0.3809512037407389 0.0047576504515514	0.097826
H	0.6092641154669728 0.4435754428685147 0.9941918683040558	0.125020
H	0.7160475491475955 0.5506906768379668 0.9948385256834930	0.106261
H	0.7780923282408673 0.6092174673094573 0.9951639695196797	0.115471
H	0.9477753391227541 0.7742332356043212 0.0047319027310541	0.096896
H	0.8870627174590282 0.7145454894496923 0.9945389311189388	0.130037
H	0.9487728837716531 0.1190487802592599 0.5047576504515514	0.097824
H	0.8907358845330272 0.0564245611314856 0.4941918993040542	0.125020
H	0.7839524508524045 0.9493093231620332 0.4948385256834925	0.106261
H	0.7219076717591327 0.8907825326905427 0.4951640005196862	0.115471
H	0.5522246608772459 0.7257667643956788 0.5047319347310572	0.096896
H	0.6129372825409718 0.7854545105503077 0.4945389311189388	0.130037
H	0.4487729797716536 0.6190487962592613 0.5047576504515514	0.097826
H	0.3907358205330296 0.5564245901314917 0.4941918993040542	0.125020
H	0.2839524508524043 0.4493093231620331 0.4948385256834925	0.106261
H	0.2219076877591346 0.3907826316905477 0.4951640005196862	0.115471
H	0.0522246688772464 0.2257668133956788 0.5047319347310572	0.096899
H	0.1129372985409660 0.2854544445503091 0.4945389311189388	0.130032
H	0.9487728837716531 0.8809512037407387 0.4952423805484474	0.097826
H	0.8907358845330272 0.9435754098685083 0.5058081006959381	0.125020
H	0.7839524508524045 0.0506906938379719 0.5051615063165097	0.106270
H	0.7219076717591327 0.1092173933094581 0.5048359994803142	0.115471
H	0.5522246608772459 0.2742331696043231 0.4952680972689459	0.096896
H	0.6129372825409718 0.2145455064496903 0.5054610998810602	0.130032
H	0.4487729797716536 0.3809512037407389 0.4952423805484474	0.097826
H	0.3907358205330296 0.4435754428685147 0.5058081006959381	0.125020
H	0.2839524508524043 0.5506906768379668 0.5051615063165097	0.106270
H	0.2219076877591346 0.6092174673094573 0.5048359994803142	0.115471
H	0.0522246688772464 0.7742332356043212 0.4952680972689459	0.096896
H	0.1129372985409660 0.7145454894496923 0.5054610998810602	0.130036
H	0.0512270562283423 0.1190487802592599 -0.0047576484515514	0.097824
H	0.1092641634669693 0.0564245611314856 0.0058080656959392	0.125020
H	0.2160475811475983 0.9493093231620332 0.0051614743165073	0.106261
H	0.2780923282408666 0.8907825326905427 0.0048360034803142	0.115471
H	0.4477753391227543 0.7257667643956788 -0.0047319027310543	0.096896
H	0.3870627174590282 0.7854545105503077 0.0054610688810613	0.130037
H	0.5512271162283469 0.6190487962592613 -0.0047576484515514	0.097826
H	0.6092641154669728 0.5564245901314917 0.0058080656959392	0.125020
H	0.7160475491475955 0.4493093231620331 0.0051614743165073	0.106261
H	0.7780923282408673 0.3907826316905477 0.0048360034803142	0.115471
H	0.9477753391227541 0.2257668133956788 -0.0047319027310543	0.096899
H	0.8870627174590282 0.2854544445503091 0.0054610688810613	0.130032
Cu	0.5000000000000000 0.6728290139040921 0.7500000160000013	0.721791
Cu	0.0000000000000000 0.1728290309040897 0.7500000160000013	0.721795
Cu	0.5000000000000000 0.3271709860959081 0.2500000000000000	0.721791
Cu	0.0000000000000000 0.8271709860959079 0.2500000000000000	0.721791
Sn	0.5000000000000000 0.6728353643971192 0.2500000000000000	1.872654
Sn	0.0000000000000000 0.1728353643971186 0.2500000000000000	1.872693
Sn	0.5000000000000000 0.3271646676028843 0.7500000160000013	1.872653
Sn	0.0000000000000000 0.8271646356028808 0.7500000160000013	1.872654
F	0.5000000000000000 0.7422374985758404 0.2500000000000000	-0.575810
F	0.5000000000000000 0.6034529498155028 0.2500000000000000	-0.572106
F	0.0000000000000000 0.2422374495758404 0.2500000000000000	-0.575810
F	0.0000000000000000 0.1034529338155016 0.2500000000000000	-0.572110
F	0.5000000000000000 0.2577625504241592 0.7500000160000013	-0.575810
F	0.5000000000000000 0.3965470171844978 0.7500000160000013	-0.572106
F	0.0000000000000000 0.7577625014241596 0.7500000160000013	-0.575810
F	0.0000000000000000 0.8965470501844972 0.7500000160000013	-0.572106
F	0.5673137033863127 0.6728206991317005 0.2500000000000000	-0.575899
F	0.0673137233863141 0.1728207321316989 0.2500000000000000	-0.575903
F	0.4326862646136849 0.3271792348683019 0.7500000160000013	-0.575899
F	0.9326862966136872 0.8271793008682995 0.7500000160000013	-0.575899
F	0.4326862646136849 0.6728206991317005 0.2500000000000000	-0.575899
F	0.9326862966136873 0.1728207321316989 0.2500000000000000	-0.575903
F	0.5673137033863128 0.3271792348683019 0.7500000160000013	-0.575899
F	0.0673137233863141 0.8271793008682995 0.7500000160000013	-0.575899
F	0.5000000000000000 0.6728054870387532 0.4890707269372058	-0.550625
F	0.0000000000000000 0.1728055040387511 0.4890707269372058	-0.550644
F	0.5000000000000000 0.3271945459612460 -0.0109292730627943	-0.550625
F	0.0000000000000000 0.8271945129612468 -0.0109292730627943	-0.550625
F	0.5000000000000000 0.6728054870387532 0.0109292690627941	-0.550625
F	0.0000000000000000 0.1728055040387511 0.0109292690627941	-0.550644
F	0.5000000000000000 0.3271945459612460 0.5109292410627987	-0.550625
F	0.0000000000000000 0.8271945129612468 0.5109292410627987	-0.550625
N	0.5496636806645007 0.7232620341396756 0.7500000160000013	-0.228380
N	0.9510613363897276 0.1216353738030180 0.7500000160000013	-0.224513
N	0.0496636446644973 0.2232620181396742 0.7500000160000013	-0.228380
N	0.4510613363897275 0.6216353578030169 0.7500000160000013	-0.224513
N	0.4503363833354980 0.2767379658603245 0.2500000000000000	-0.228381
N	0.0489386716102732 0.8783646421969831 0.2500000000000000	-0.224513
N	0.9503363193354993 0.7767379658603244 0.2500000000000000	-0.228380
N	0.5489386636102724 0.3783646421969835 0.2500000000000000	-0.224513
N	0.4503363833354980 0.7232620341396756 0.7500000160000013	-0.228380
N	0.0489386716102732 0.1216353738030180 0.7500000160000013	-0.224513
N	0.9503363193354993 0.2232620181396742 0.7500000160000013	-0.228380
N	0.5489386636102724 0.6216353578030169 0.7500000160000013	-0.224512
N	0.5496636806645007 0.2767379658603245 0.2500000000000000	-0.228381
N	0.9510613363897276 0.8783646421969831 0.2500000000000000	-0.224513
N	0.0496636446644973 0.7767379658603244 0.2500000000000000	-0.228380
N	0.4510613363897275 0.3783646421969835 0.2500000000000000	-0.224512
	  	
