#======================================================================

# CRYSTAL DATA

#----------------------------------------------------------------------

data_VESTA_phase_1


_pd_phase_name                         SnFSIX_13_Cu_i
_cell_length_a                         15.15950
_cell_length_b                         15.15717
_cell_length_c                         8.30846
_cell_angle_alpha                      90.20823
_cell_angle_beta                       89.59290
_cell_angle_gamma                      89.83547
_symmetry_space_group_name_H-M         P 1
_symmetry_Int_Tables_number            1

loop_
_symmetry_equiv_pos_as_xyz
   x, y, z

loop_
   _atom_site_label
   _atom_site_fract_x
   _atom_site_fract_y
   _atom_site_fract_z
   _atom_site_charge
C	0.5399490107260415 0.6809980652959209 0.8755208451974344	0.108468
C	0.5430501140138217 0.7727152949148086 0.8739436889791613	-0.142706
C	0.4637711180138217 0.3215415570854251 0.8821638795624781	0.106156
C	0.4609498670237254 0.2298591123758091 0.8817657385798496	-0.136670
C	0.8211927680614044 0.9730418243640778 0.3710801654484592	0.108856
C	0.7297163265529834 0.9711877804603321 0.3666918448986628	-0.130837
C	0.3215377191613327 0.5408474358608868 0.8733595071819517	0.107131
C	0.2298293412021311 0.5445235078725192 0.8713733047759786	-0.142564
C	0.1812235771791696 0.9725360279973889 0.3627223624977681	0.103688
C	0.2728958403268228 0.9713723698670721 0.3597702335382168	-0.130360
C	0.6807767511308712 0.4630729093344572 0.8874059018760923	0.107524
C	0.7723682644946133 0.4606979848136696 0.8856215753901912	-0.136767
C	0.4559434228374370 0.6815768810451205 0.1113357769559445	0.108037
C	0.4531448042643607 0.7731979176044322 0.1144295487156934	-0.133053
C	0.5391686903146966 0.3237846904473367 0.1259248345309830	0.106328
C	0.5418643308018224 0.2320727851171670 0.1305221550940844	-0.143901
C	0.1785273088187393 0.0207347454544282 0.6293889401822018	0.110353
C	0.2699257105113281 0.0218546094107956 0.6360578161707530	-0.132376
C	0.6781332768962819 0.5429187411515796 0.1275625461615024	0.108253
C	0.7698638382635453 0.5462400965011633 0.1308211949902023	-0.141982
C	0.8200155607048230 0.0276935618034902 0.6335975863031205	0.102184
C	0.7283807081621241 0.0287516984988160 0.6384280856767593	-0.130515
C	0.3199655362096163 0.4593818635066584 0.1108055611908808	0.107332
C	0.2283264824404701 0.4571966388823330 0.1133296558975248	-0.136443
C	0.9665979479069591 0.8190410037967220 0.6273244910680341	0.111495
C	0.9654851457352515 0.7274700891805244 0.6330932572562289	-0.131714
C	0.9833046189792367 0.1779726958251514 0.6357295621560642	0.103649
C	0.9809947273606386 0.2695338549429270 0.6395704002548421	-0.130524
C	0.0210674677978158 0.8175846210873610 0.3643786755020377	0.101935
C	0.0229179423604518 0.7260009159623581 0.3609278073925879	-0.130933
C	0.0301690174101297 0.1768975776906432 0.3679490499009196	0.110549
C	0.0302978800243040 0.2684517206035430 0.3621700611702325	-0.131893
C	0.0043387509222863 0.3157663483666879 0.4999953347231590	0.044946
C	0.0015547444712443 0.4125022953740393 0.4990371551080678	0.254409
C	0.4984888864953687 0.8197750459381269 0.9948129673995384	0.060223
C	0.4993979797693764 0.9172034643498849 0.9995635872611366	0.247036
C	0.9950355415857340 0.6798704827235319 0.4979479469970983	0.041239
C	0.9969910534888811 0.5829922291311315 0.4986312397902030	0.249945
C	0.5013256920870631 0.1841721380246046 0.0074573612011093	0.060161
C	0.5007293889856661 0.0866627538636738 0.0083235457902936	0.250321
C	0.6822195382378969 0.9995706784854984 0.5028127306939727	0.040319
C	0.5853927302941926 0.9976664391270865 0.5036875515345547	0.249850
C	0.1822659664917133 0.5014709746458965 0.9925173476129756	0.060579
C	0.0848320755616559 0.5024427225853626 0.9954603393091027	0.246967
C	0.3181998491707864 0.9963101119394578 0.4990863892214802	0.044768
C	0.4149350778523234 0.9960050310183397 0.5018017275050424	0.254009
C	0.8178974180839041 0.5038426852277353 0.0086510340057860	0.059694
C	0.9153936419772649 0.5037198087112313 0.0062205620665552	0.247163
H	0.5706849953784021 0.6418007024544667 0.7800031314600582	0.105511
H	0.5789173343368510 0.8062023861504810 0.7781308527541703	0.127851
H	0.4363622991823996 0.3597101011833955 0.7831666103602789	0.107448
H	0.4298166071395677 0.1945488160513323 0.7830553564782503	0.123395
H	0.8603559029349843 0.9520027000102745 0.2674295240443104	0.104720
H	0.6965603403081306 0.9483125781307618 0.2585382679943382	0.125705
H	0.3608434345061122 0.5703213877883369 0.7770522251119926	0.106559
H	0.1967746498541653 0.5796252678955213 0.7747950182779511	0.128663
H	0.1441210991623559 0.9548703090019830 0.2553759202058510	0.100096
H	0.3075040109102958 0.9525033033003396 0.2494684280435116	0.120771
H	0.6424157961376447 0.4338548830592050 0.7905165877939383	0.107804
H	0.8077508610806414 0.4280452777057580 0.7876226879340973	0.122070
H	0.4252216483204309 0.6424620686139534 0.2061004350003513	0.107434
H	0.4190250054903150 0.8078015813504802 0.2116282898480379	0.120527
H	0.5667089099047379 0.3634064880476014 0.2233552874817184	0.107267
H	0.5739572207655356 0.1993032861207682 0.2308500831248922	0.128792
H	0.1388005312000147 0.0397031212695318 0.7335988065215152	0.103866
H	0.3023432720589286 0.0413851222872814 0.7470568222176277	0.124501
H	0.6383357099735822 0.5720201580546334 0.2241385073439860	0.106581
H	0.8025198113437149 0.5803613107879311 0.2292592814870602	0.127957
H	0.8576462290322401 0.0479272861896265 0.7387844065717537	0.099886
H	0.6943030569204832 0.0508040111290398 0.7472307900878220	0.124977
H	0.3585233780527496 0.4294166126623484 0.2065784646325641	0.106795
H	0.1932747973649381 0.4240719363510625 0.2105335138141549	0.121617
H	0.9455016145684512 0.8583569641793883 0.7306678106397925	0.104880
H	0.9430497675653444 0.6944585419186292 0.7421179541587944	0.124766
H	0.9666479189769583 0.1401648565273537 0.7429919490230383	0.097974
H	0.9619872475151662 0.3035415469376715 0.7502286307836266	0.123290
H	0.0409048213328178 0.8551436855619480 0.2585664417629598	0.099060
H	0.0453332079194546 0.6918855147879666 0.2525328886545562	0.123695
H	0.0488983198912616 0.1377150726778383 0.2629469133017117	0.105686
H	0.0488520138982455 0.3016696096943524 0.2509403273686071	0.123705
N	0.9497185884328371 0.5404222647306715 0.6131497923959534	-0.134961
N	0.4212824172475876 0.0464142744181482 0.0085939635776528	-0.147253
N	0.5422087398348606 0.0444530991016667 0.6190239150629652	-0.135563
N	0.9561514604494599 0.4243085792611911 0.0024250809191888	-0.144084
N	0.0459638763166514 0.5419103909791083 0.3836052129797250	-0.133304
N	0.5793987029072241 0.0446415238669621 0.0101894393922653	-0.146468
N	0.9567889296336691 0.5824829195875159 0.0045063431841759	-0.144799
N	0.5450132152434524 0.9478028486714570 0.3906829610880539	-0.132241
N	0.0489730073213095 0.4551140341421549 0.3849110202645447	-0.131632
N	0.5787872232452158 0.9574362531786895 0.0013364284303285	-0.143635
N	0.4581628637970780 0.9465821661224397 0.3904280763158251	-0.130842
N	0.0439824619514256 0.5817664158372781 0.9949091875865850	-0.143897
N	0.9513251897880812 0.4535140195180427 0.6121801797344757	-0.132462
N	0.4207031755944482 0.9591127637892879 0.0078960930911481	-0.142103
N	0.0434311885087819 0.4236333971618382 0.0004646825527826	-0.144548
N	0.4553580053988273 0.0440014433350325 0.6173659233962406	-0.134407
N	0.0061141861272872 0.1327639240936017 0.5018476325431445	-0.214951
N	0.4980977356651958 0.6366393723007515 0.9934963468841064	-0.223471
N	0.9946118721888811 0.8630269289740479 0.4957950783625649	-0.214195
N	0.5014367434292090 0.3672062330686682 0.0029232472365225	-0.226644
N	0.8653009414377169 0.0007756157151190 0.5021569195061013	-0.214159
N	0.3653337314335039 0.4999124191238580 0.9923451605185739	-0.225645
N	0.1352012685992570 0.9960267343048655 0.4954775050139838	-0.215892
N	0.6348432885739401 0.5028416092124435 0.0067899518935853	-0.224686
Cu	0.0002606237958805 0.9979629388874036 0.4985975157440659	0.716747
Cu	0.5000841439696835 0.5018221061219361 0.9986567895725699	0.725578
Sn	-0.0003848321818600 0.9969823455155246 0.9989115342826531	1.864969
Sn	0.4996540875313529 0.5033114795827482 0.4987236985656479	1.879197
F	0.9949042138330190 0.0042754725446954 0.2402279569952644	-0.555298
F	0.5094238170404696 0.4980487286656772 0.7398592488765552	-0.561269
F	0.0046279222917283 0.9903104536816650 0.7576414809368366	-0.555372
F	0.4907921170728617 0.5078357748259517 0.2574213266488234	-0.562038
F	0.0932267170641344 0.0894349499176567 0.9958082927233308	-0.568695
F	0.5908672912373565 0.5986672611136029 0.4927282632728870	-0.582388
F	0.9058346286579391 0.9049437184069653 0.0029077054617241	-0.568127
F	0.4087428319792713 0.4079420760566388 0.5060270336092079	-0.584665
F	0.9076488939169997 0.0908280185162640 0.9742706241815873	-0.563422
F	0.4047479235720706 0.5948293301964052 0.5213865357223397	-0.581726
F	0.0920084169846106 0.9035853615396023 0.0233478176508834	-0.563298
F	0.5950772309195248 0.4123105257839408 0.4749487618249193	-0.582534
	  	
