#======================================================================

# CRYSTAL DATA

#----------------------------------------------------------------------

data_VESTA_phase_1


_pd_phase_name                         SnFSIX_16_Fe_i
_cell_length_a                         25.25096
_cell_length_b                         25.25096
_cell_length_c                         7.96721
_cell_angle_alpha                      90
_cell_angle_beta                       90
_cell_angle_gamma                      90
_symmetry_space_group_name_H-M         P 1
_symmetry_Int_Tables_number            1

loop_
_symmetry_equiv_pos_as_xyz
   x, y, z

loop_
   _atom_site_label
   _atom_site_fract_x
   _atom_site_fract_y
   _atom_site_fract_z
   _atom_site_charge
C	0.4783291886304106 0.3857062536270570 0.3717913495469968	0.097011
C	0.4775521908945914 0.3307137019604672 0.3665941325849690	-0.170844
C	0.9553619336280589 0.6126643089541095 0.9438859712897221	-0.125180
C	0.9555084865374548 0.5576518821045406 0.9444966000997468	-0.125861
C	0.5216708493695853 0.6142937843729390 0.3717913495469968	0.097011
C	0.5224478091054088 0.6692863360395288 0.3665941325849690	-0.170844
C	0.0446379903719418 0.3873356520458908 0.9438859712897221	-0.125167
C	0.0444915324625435 0.4423481558954624 0.9444966000997468	-0.125918
C	0.6142937843729390 0.4783291886304106 0.3717913495469968	0.097011
C	0.6692863360395288 0.4775521908945914 0.3665941325849690	-0.170844
C	0.3873356520458908 0.9553619336280589 0.9438859712897221	-0.125180
C	0.4423481558954625 0.9555084865374548 0.9444966000997468	-0.125861
C	0.3857062536270570 0.5216708493695853 0.3717913495469968	0.097011
C	0.3307137019604672 0.5224478091054088 0.3665941325849690	-0.170844
C	0.6126643089541095 0.0446379903719418 0.9438859712897221	-0.125168
C	0.5576518821045406 0.0444915324625435 0.9444966000997468	-0.125918
C	0.5216708493695853 0.3857062536270570 0.6282086504530029	0.097011
C	0.5224478091054088 0.3307137019604672 0.6334058354150288	-0.170844
C	0.0446379903719418 0.6126643089541095 0.0561140407102791	-0.125168
C	0.0444915324625435 0.5576518821045406 0.0555033759002511	-0.125918
C	0.4783291886304106 0.6142937843729390 0.6282086504530028	0.097011
C	0.4775521908945914 0.6692863360395288 0.6334058354150288	-0.170844
C	0.9553619336280589 0.3873356520458908 0.0561140407102791	-0.125179
C	0.9555084865374548 0.4423481558954625 0.0555033759002511	-0.125861
C	0.3857062536270570 0.4783291886304106 0.6282086504530028	0.097011
C	0.3307137019604672 0.4775521908945914 0.6334058354150288	-0.170844
C	0.6126643089541095 0.9553619336280589 0.0561140407102791	-0.125180
C	0.5576518821045406 0.9555084865374548 0.0555033759002511	-0.125861
C	0.6142937843729390 0.5216708493695853 0.6282086504530028	0.097011
C	0.6692863360395288 0.5224478091054088 0.6334058354150288	-0.170844
C	0.3873356520458908 0.0446379903719418 0.0561140407102791	-0.125167
C	0.4423481558954625 0.0444915324625435 0.0555033759002511	-0.125918
C	0.5446380283719451 0.8873356140458948 0.5561140607102735	-0.125179
C	0.5444915134625452 0.9423481558954625 0.5555033679002506	-0.125861
C	0.0216708033695886 0.1142937273729450 0.1282086504530030	0.096999
C	0.0224478071054085 0.1692862980395328 0.1334058514150297	-0.170812
C	0.4553620096280583 0.1126643569541064 0.5561140607102735	-0.125167
C	0.4555084485374585 0.0576518291045399 0.5555033679002506	-0.125918
C	0.9783291506304147 0.8857062156270610 0.1282086504530030	0.097010
C	0.9775521908945912 0.8307137019604672 0.1334058514150297	-0.170843
C	0.1126643569541064 0.5446380283719451 0.5561140607102735	-0.125179
C	0.0576518291045399 0.5444915134625452 0.5555033679002506	-0.125861
C	0.8857062156270610 0.0216708033695886 0.1282086504530030	0.096999
C	0.8307137019604672 0.0224478071054085 0.1334058514150297	-0.170812
C	0.8873356140458948 0.4553620096280583 0.5561140607102735	-0.125167
C	0.9423481558954625 0.4555084485374585 0.5555033679002506	-0.125918
C	0.1142937273729450 0.9783291506304147 0.1282086504530030	0.097010
C	0.1692862980395328 0.9775521908945912 0.1334058514150297	-0.170843
C	0.4553620096280583 0.8873356140458948 0.4438859712897220	-0.125167
C	0.4555084485374585 0.9423481558954625 0.4444966320997495	-0.125918
C	0.9783291506304147 0.1142937273729450 0.8717913815469928	0.097010
C	0.9775521908945912 0.1692862980395328 0.8665941325849685	-0.170843
C	0.5446380283719451 0.1126643569541064 0.4438859712897220	-0.125179
C	0.5444915134625452 0.0576518291045399 0.4444966320997495	-0.125861
C	0.0216708033695886 0.8857062156270610 0.8717913815469928	0.096999
C	0.0224478071054085 0.8307137019604672 0.8665941325849685	-0.170812
C	0.8873356140458948 0.5446380283719451 0.4438859712897220	-0.125179
C	0.9423481558954625 0.5444915134625452 0.4444966320997495	-0.125861
C	0.1142937273729450 0.0216708033695886 0.8717913815469928	0.096999
C	0.1692862980395328 0.0224478071054085 0.8665941325849685	-0.170812
C	0.1126643569541064 0.4553620096280583 0.4438859712897220	-0.125167
C	0.0576518291045399 0.4555084485374585 0.4444966320997495	-0.125918
C	0.8857062156270610 0.9783291506304147 0.8717913815469928	0.097010
C	0.8307137019604672 0.9775521908945912 0.8665941325849685	-0.170843
C	0.5000000000000000 0.3018536506812697 0.5000000000000000	0.172952
C	0.5000000000000000 0.2456936732200090 0.5000000000000000	-0.115606
C	0.5000000000000000 0.1973694356378522 0.5000000000000000	-0.095500
C	0.5000000000000000 0.1411729384562610 0.5000000000000000	0.124960
C	0.5000000000000000 0.0291559186832354 0.5000000000000000	0.066616
C	0.0000000000000000 0.8018536316812647 -0.0000000000000000	0.172939
C	0.0000000000000000 0.7456936532200070 -0.0000000000000000	-0.115605
C	0.0000000000000000 0.6973693976378562 -0.0000000000000000	-0.095500
C	0.0000000000000000 0.6411729004562580 -0.0000000000000000	0.124961
C	0.0000000000000000 0.5291559326832364 -0.0000000000000000	0.066617
C	0.5000000000000000 0.6981463303187322 0.5000000000000000	0.172952
C	0.5000000000000000 0.7543063847799890 0.5000000000000000	-0.115605
C	0.5000000000000000 0.8026305643621477 0.5000000000000000	-0.095500
C	0.5000000000000000 0.8588270615437389 0.5000000000000000	0.124960
C	0.5000000000000000 0.9708440673167636 0.5000000000000000	0.066617
C	0.0000000000000000 0.1981463493187304 -0.0000000000000000	0.172939
C	0.0000000000000000 0.2543063267799910 -0.0000000000000000	-0.115605
C	0.0000000000000000 0.3026305443621463 -0.0000000000000000	-0.095499
C	0.0000000000000000 0.3588270615437393 -0.0000000000000000	0.124961
C	0.0000000000000000 0.4708441053167666 -0.0000000000000000	0.066616
C	0.6981463303187322 0.5000000000000000 0.5000000000000000	0.172952
C	0.7543063847799890 0.5000000000000000 0.5000000000000000	-0.115605
C	0.8026305643621477 0.5000000000000000 0.5000000000000000	-0.095500
C	0.8588270615437389 0.5000000000000000 0.5000000000000000	0.124960
C	0.9708440673167636 0.5000000000000000 0.5000000000000000	0.066616
C	0.1981463493187304 0.0000000000000000 -0.0000000000000000	0.172939
C	0.2543063267799910 0.0000000000000000 -0.0000000000000000	-0.115605
C	0.3026305443621463 0.0000000000000000 -0.0000000000000000	-0.095499
C	0.3588270615437393 0.0000000000000000 -0.0000000000000000	0.124961
C	0.4708441053167666 0.0000000000000000 -0.0000000000000000	0.066616
C	0.3018536506812697 0.5000000000000000 0.5000000000000000	0.172952
C	0.2456936732200090 0.5000000000000000 0.5000000000000000	-0.115606
C	0.1973694356378522 0.5000000000000000 0.5000000000000000	-0.095500
C	0.1411729384562610 0.5000000000000000 0.5000000000000000	0.124960
C	0.0291559186832354 0.5000000000000000 0.5000000000000000	0.066617
C	0.8018536316812647 0.0000000000000000 -0.0000000000000000	0.172939
C	0.7456936532200070 0.0000000000000000 -0.0000000000000000	-0.115605
C	0.6973693976378562 0.0000000000000000 -0.0000000000000000	-0.095500
C	0.6411729004562580 0.0000000000000000 -0.0000000000000000	0.124961
C	0.5291559326832364 0.0000000000000000 -0.0000000000000000	0.066617
H	0.4613859563934877 0.4087905310801633 0.2690675172172133	0.098922
H	0.4598205415358256 0.3105149840743069 0.2596883548807462	0.128026
H	0.9208741499054645 0.6343579025351131 0.8987745681122736	0.111359
H	0.9210655112047201 0.5363254301701602 0.8971424145645925	0.107198
H	0.5386140436065122 0.5912094689198366 0.2690675172172133	0.098922
H	0.5401794964641778 0.6894850919256922 0.2596883548807462	0.128026
H	0.0791258310945373 0.3656420974648871 0.8987745681122736	0.111357
H	0.0789345177952784 0.4636746088298392 0.8971424145645925	0.107238
H	0.5912094689198366 0.4613859563934877 0.2690675172172133	0.098922
H	0.6894850919256922 0.4598205415358256 0.2596883548807462	0.128026
H	0.3656420974648871 0.9208741499054645 0.8987745681122736	0.111358
H	0.4636746088298392 0.9210655112047201 0.8971424145645925	0.107197
H	0.4087905310801633 0.5386140436065122 0.2690675172172133	0.098922
H	0.3105149840743069 0.5401794964641778 0.2596883548807462	0.128026
H	0.6343579025351131 0.0791258310945373 0.8987745681122736	0.111357
H	0.5363254301701602 0.0789345177952784 0.8971424145645925	0.107238
H	0.5386140436065122 0.4087905310801633 0.7309324667827856	0.098922
H	0.5401794964641778 0.3105149840743069 0.7403116451192536	0.128025
H	0.0791258310945373 0.6343579025351131 0.1012254078877241	0.111357
H	0.0789345177952784 0.5363254301701602 0.1028575854354077	0.107238
H	0.4613859563934877 0.5912094689198366 0.7309324667827856	0.098922
H	0.4598205415358256 0.6894850919256922 0.7403116451192536	0.128025
H	0.9208741499054645 0.3656420974648871 0.1012254078877241	0.111358
H	0.9210655112047201 0.4636746088298392 0.1028575854354077	0.107197
H	0.4087905310801633 0.4613859563934877 0.7309324667827856	0.098922
H	0.3105149840743069 0.4598205415358256 0.7403116451192536	0.128025
H	0.6343579025351131 0.9208741499054645 0.1012254078877241	0.111358
H	0.5363254301701602 0.9210655112047201 0.1028575854354077	0.107198
H	0.5912094689198366 0.5386140436065122 0.7309324667827856	0.098922
H	0.6894850919256922 0.5401794964641778 0.7403116451192536	0.128025
H	0.3656420974648871 0.0791258310945373 0.1012254078877241	0.111357
H	0.4636746088298392 0.0789345177952784 0.1028575854354077	0.107238
H	0.5791258500945355 0.8656420974648869 0.6012253998877237	0.111357
H	0.5789344887952799 0.9636746088298395 0.6028576174354101	0.107197
H	0.0386140536065131 0.0912094399198378 0.2309324827827867	0.098923
H	0.0401795014641745 0.1894850349256911 0.2403116771192494	0.128013
H	0.4208741879054680 0.1343579315351120 0.6012253998877237	0.111356
H	0.4210654722047207 0.0363254151701555 0.6028576174354101	0.107238
H	0.9613859563934878 0.9087906080801591 0.2309324827827867	0.098922
H	0.9598205035358222 0.8105150220743101 0.2403116771192494	0.128026
H	0.1343579315351120 0.5791258500945355 0.6012253998877237	0.111357
H	0.0363254151701555 0.5789344887952799 0.6028576174354101	0.107197
H	0.9087906080801591 0.0386140536065131 0.2309324827827867	0.098923
H	0.8105150220743101 0.0401795014641745 0.2403116771192494	0.128013
H	0.8656420974648869 0.4208741879054680 0.6012253998877237	0.111356
H	0.9636746088298395 0.4210654722047207 0.6028576174354101	0.107238
H	0.0912094399198378 0.9613859563934878 0.2309324827827867	0.098922
H	0.1894850349256911 0.9598205035358222 0.2403116771192494	0.128025
H	0.4208741879054680 0.8656420974648869 0.3987745681122740	0.111355
H	0.4210654722047207 0.9636746088298395 0.3971424465645880	0.107238
H	0.9613859563934878 0.0912094399198378 0.7690675012172118	0.098922
H	0.9598205035358222 0.1894850349256911 0.7596883228807508	0.128025
H	0.5791258500945355 0.1343579315351120 0.3987745681122740	0.111356
H	0.5789344887952799 0.0363254151701555 0.3971424465645880	0.107198
H	0.0386140536065131 0.9087906080801591 0.7690675012172118	0.098923
H	0.0401795014641745 0.8105150220743101 0.7596883228807508	0.128013
H	0.8656420974648869 0.5791258500945355 0.3987745681122740	0.111356
H	0.9636746088298395 0.5789344887952799 0.3971424465645880	0.107198
H	0.0912094399198378 0.0386140536065131 0.7690675012172118	0.098923
H	0.1894850349256911 0.0401795014641745 0.7596883228807508	0.128013
H	0.1343579315351120 0.4208741879054680 0.3987745681122740	0.111355
H	0.0363254151701555 0.4210654722047207 0.3971424465645880	0.107238
H	0.9087906080801591 0.9613859563934878 0.7690675012172118	0.098922
H	0.8105150220743101 0.9598205035358222 0.7596883228807508	0.128025
Fe	0.5000000000000000 0.5000000000000000 0.5000000000000000	0.506855
Fe	0.0000000000000000 0.0000000000000000 -0.0000000000000000	0.506856
Sn	0.5000000000000000 0.5000000000000000 -0.0000000000000000	1.879981
Sn	0.0000000000000000 0.0000000000000000 0.5000000000000000	1.879983
F	0.5000000000000000 0.5000000000000000 0.2532294798342608	-0.477806
F	0.0000000000000000 0.0000000000000000 0.7532294478342653	-0.477806
F	0.5000000000000000 0.5000000000000000 0.7467704561657410	-0.477805
F	0.0000000000000000 0.0000000000000000 0.2467705201657390	-0.477806
F	0.5557032225024241 0.5557032225024241 -0.0000000000000000	-0.561795
F	0.0557031755024240 0.0557031755024240 0.5000000000000000	-0.561795
F	0.4442968534975818 0.4442968534975819 -0.0000000000000000	-0.561795
F	0.9442968154975790 0.9442968154975790 0.5000000000000000	-0.561796
F	0.4442968534975818 0.5557032225024241 -0.0000000000000000	-0.561795
F	0.9442968154975790 0.0557031755024240 0.5000000000000000	-0.561795
F	0.5557032225024241 0.4442968534975818 -0.0000000000000000	-0.561795
F	0.0557031755024240 0.9442968154975790 0.5000000000000000	-0.561795
N	0.5000000000000000 0.4130553396917347 0.5000000000000000	-0.190686
N	0.0000000000000000 0.9130553776917384 -0.0000000000000000	-0.190685
N	0.5000000000000000 0.5869446603082648 0.5000000000000000	-0.190686
N	0.0000000000000000 0.0869446693082623 -0.0000000000000000	-0.190685
N	0.5869446603082648 0.5000000000000000 0.5000000000000000	-0.190686
N	0.0869446693082623 0.0000000000000000 -0.0000000000000000	-0.190685
N	0.4130553396917347 0.5000000000000000 0.5000000000000000	-0.190686
N	0.9130553776917384 0.0000000000000000 -0.0000000000000000	-0.190685
	  	
