#======================================================================

# CRYSTAL DATA

#----------------------------------------------------------------------

data_VESTA_phase_1


_pd_phase_name                         SnFSIX_13_Co_i
_cell_length_a                         15.18643
_cell_length_b                         15.18170
_cell_length_c                         8.19326
_cell_angle_alpha                      90.18861
_cell_angle_beta                       89.67440
_cell_angle_gamma                      89.70095
_symmetry_space_group_name_H-M         P 1
_symmetry_Int_Tables_number            1

loop_
_symmetry_equiv_pos_as_xyz
   x, y, z

loop_
   _atom_site_label
   _atom_site_fract_x
   _atom_site_fract_y
   _atom_site_fract_z
   _atom_site_charge
C	0.5405180449010062 0.6790581882585326 0.8760076707496000	0.101293
C	0.5434495685158688 0.7707801209113537 0.8741431327209895	-0.139296
C	0.4631004721756413 0.3232815223905089 0.8814439606108695	0.100107
C	0.4604557634186421 0.2315945337783608 0.8809648057969713	-0.132601
C	0.8187008505290264 0.9719670278141990 0.3700240633041016	0.107235
C	0.7275517133529941 0.9703661351902114 0.3650214808236410	-0.135027
C	0.3229478849345909 0.5414858509174507 0.8735464124161452	0.099732
C	0.2312156825412567 0.5448548407002433 0.8711939967704044	-0.139546
C	0.1838718529611472 0.9719415471095475 0.3608664559770999	0.100902
C	0.2751495796733585 0.9708273243136080 0.3578241929650748	-0.134207
C	0.6792312773965673 0.4623147317793688 0.8860444634916621	0.100261
C	0.7708392302613287 0.4602510193300760 0.8845343538688801	-0.132082
C	0.4556486806733575 0.6799208749880185 0.1124917189945649	0.101883
C	0.4529486496725808 0.7715509536927349 0.1151877006753511	-0.129302
C	0.5394454053893681 0.3250722963563976 0.1265621372189458	0.099076
C	0.5420885638556344 0.2333169656194784 0.1310504924147710	-0.140385
C	0.1810218208937756 0.0218097720786431 0.6301459494826250	0.106316
C	0.2720859156048377 0.0225210489406424 0.6377615691974974	-0.134240
C	0.6764096017618353 0.5430450614045708 0.1270970162327440	0.101759
C	0.7681278097957452 0.5463840548888629 0.1306053121207062	-0.139487
C	0.8175393592669440 0.0286036583399388 0.6347078539290520	0.100551
C	0.7262989483881314 0.0294412468235634 0.6400226254301765	-0.134592
C	0.3217678880517008 0.4592831620115788 0.1122983587530372	0.102497
C	0.2301324845762332 0.4569992763981068 0.1143573952509857	-0.133095
C	0.9642385107156923 0.8167554038182211 0.6279237909500067	0.108075
C	0.9642574726250684 0.7254928241492765 0.6349929327571544	-0.134582
C	0.9839731374112741 0.1807588569894628 0.6378567879627567	0.101397
C	0.9808558175932935 0.2719148860795605 0.6413895890630605	-0.133921
C	0.0205473353527543 0.8152118558292489 0.3628019290832270	0.100883
C	0.0230999604573860 0.7240312493177761 0.3595678760281649	-0.134181
C	0.0323936372498425 0.1795031139768890 0.3674028969179747	0.108317
C	0.0312859163421325 0.2707355091675369 0.3602977370220125	-0.134581
C	0.0043868298254742 0.3173795656566006 0.4996556690157508	0.043802
C	0.0013214060922925 0.4133678532081709 0.4985999772603069	0.255591
C	0.4985602882648756 0.8187719848458270 0.9951613582119841	0.065146
C	0.4994918052655511 0.9166092556232901 0.9995177630126069	0.248189
C	0.9948152574584893 0.6786159126709231 0.4984663604350190	0.041394
C	0.9970053889305300 0.5824818680098515 0.4992121582132927	0.248286
C	0.5012330168193092 0.1849038780462847 0.0072011897817363	0.065705
C	0.5007422629538154 0.0869477688182469 0.0079836940375291	0.250124
C	0.6807910305033511 -0.0004974954032952 0.5027642571846782	0.042309
C	0.5847365962427902 0.9975056294173117 0.5037753214661091	0.247428
C	0.1831160844027138 0.5014892379318650 0.9928612527235114	0.065788
C	0.0852492295372585 0.5024006411159782 0.9955081342644407	0.248909
C	0.3197157504660494 0.9963366218345392 0.4991133560433716	0.043658
C	0.4156878540081754 0.9959046106084884 0.5021130345363015	0.254363
C	0.8170524236345368 0.5037367417074758 0.0081143564503292	0.065171
C	0.9149456170708272 0.5036832877677808 0.0059719027886426	0.248633
H	0.5719678292873753 0.6404061190475802 0.7795088145123500	0.103729
H	0.5796574932005256 0.8036545284618344 0.7768925838375861	0.130286
H	0.4350676115329274 0.3609952520384821 0.7811164356929059	0.105704
H	0.4289056903222363 0.1969204127048385 0.7806114916990962	0.125928
H	0.8578193968652416 0.9497641047764143 0.2658242951797032	0.099068
H	0.6936543271157480 0.9472509565723095 0.2564585340446775	0.123246
H	0.3615316321478920 0.5716735025945089 0.7761010358744548	0.103968
H	0.1984729852207015 0.5802493118945601 0.7730388476621590	0.130982
H	0.1467421056678494 0.9534188834625746 0.2527825935369974	0.095915
H	0.3105164129100433 0.9516507531415023 0.2472644745988134	0.118537
H	0.6416852450992216 0.4323776630931790 0.7878517450586728	0.105662
H	0.8059213029132171 0.4272835650782170 0.7852045159655738	0.124491
H	0.4242942291654389 0.6416188518667101 0.2084830259252569	0.105421
H	0.4183139029957669 0.8058265169569563 0.2134765191300121	0.123374
H	0.5676828749979750 0.3639820863843855 0.2253464783862810	0.104815
H	0.5747115724528206 0.2008657019971925 0.2327680603530179	0.131027
H	0.1413363583048379 0.0417980990012671 0.7350812379244283	0.098912
H	0.3052162432612519 0.0420881237242592 0.7494652831368548	0.122262
H	0.6371344682643177 0.5728308546825804 0.2246682600246852	0.103958
H	0.8001467945914584 0.5809989035412717 0.2305171255979235	0.130317
H	0.8553344836990874 0.0498286410969173 0.7402638756624733	0.095150
H	0.6915839405264644 0.0517251261059270 0.7492321234068695	0.122834
H	0.3598131767461887 0.4288108475385371 0.2095470430929702	0.104114
H	0.1956874212328611 0.4233279606084955 0.2128739026306916	0.124237
H	0.9418161189992657 0.8560574812358968 0.7317382397458858	0.100089
H	0.9421299499831532 0.6917747388769631 0.7447504438328250	0.122196
H	0.9667768335999580 0.1429781854281978 0.7460075703220609	0.093366
H	0.9611358956978799 0.3066868889959128 0.7521686587203623	0.121925
H	0.0411455618913420 0.8528414154742865 0.2564337012737204	0.093951
H	0.0462069356938144 0.6892057030723835 0.2511415668604913	0.121199
H	0.0523169515046505 0.1403203227026295 0.2617209555761592	0.100326
H	0.0494705440401460 0.3046508971896885 0.2482616016142936	0.121847
N	0.9476693024493135 0.5404408825367306 0.6122430295866915	-0.148981
N	0.4216417608684038 0.0463930151335052 0.0082364318905215	-0.152948
N	0.5420726658788441 0.0462542271405829 0.6180764778137635	-0.150763
N	0.9563785760284489 0.4245879381554252 0.0024647020687664	-0.151632
N	0.0478953552283592 0.5419806487758521 0.3852703139695475	-0.148318
N	0.5791264042902808 0.0443333406109470 0.0098229962208038	-0.153521
N	0.9566088331650527 0.5821489723908827 0.0041486288739502	-0.150919
N	0.5449736392668739 0.9456164137670887 0.3921324654390262	-0.146802
N	0.0507716299048076 0.4554412549419613 0.3859082310107206	-0.146776
N	0.5785607131130648 0.9571600603599034 0.0013427463496340	-0.149413
N	0.4584059996316722 0.9445103683050895 0.3920066823899945	-0.146599
N	0.0437565869998316 0.5814241664514463 0.9949666101357761	-0.151083
N	0.9492972119480385 0.4538007070459788 0.6107032125661219	-0.147943
N	0.4211163378532449 0.9591570282298911 0.0074265222403807	-0.149002
N	0.0435880617177078 0.4239027541494376 0.0003305987152606	-0.151857
N	0.4555073678742327 0.0458439793646954 0.6166090638662511	-0.148017
N	0.0082878265293675 0.1356147887533559 0.5030985058648428	-0.212116
N	0.4983326561898653 0.6338137930047032 0.9945352447734757	-0.218522
N	0.9924983148995693 0.8605440350517362 0.4948684889816227	-0.211271
N	0.5012131719544359 0.3697331451925195 0.0030112079787263	-0.220767
N	0.8626430321964804 0.0005367592163214 0.5022848897566110	-0.210415
N	0.3679446708656394 0.5003561842067867 0.9933707523258750	-0.219966
N	0.1379251548222919 0.9965185348067462 0.4946501911858639	-0.210152
N	0.6321615347605208 0.5024657647897341 0.0057723411410159	-0.218773
Co	0.0002485553876504 0.9981342526888670 0.4985121204242899	0.696861
Co	0.4999572531073525 0.5016027567692951 0.9989634433002693	0.745510
Sn	-0.0006124867218999 0.9970777231902829 0.9984823930848447	1.863591
Sn	0.4997831697137147 0.5032183048845087 0.4988408418635357	1.875253
F	0.9967317268325608 0.0020963060123522 0.2480276643057800	-0.525070
F	0.5081982094246106 0.4977659455025460 0.7434469551236326	-0.528973
F	0.0026881176020098 0.9926223031892579 0.7488807904599787	-0.524694
F	0.4916785830059565 0.5073380514977501 0.2541481764632672	-0.530627
F	0.0925579860009287 0.0882801111623849 0.9960013886151412	-0.552816
F	0.5906984897182075 0.5977689764869055 0.4943938663466216	-0.568052
F	0.9061020187287926 0.9061925670288794 0.0009169555224112	-0.551812
F	0.4093174555220432 0.4083657922317816 0.5044648755770336	-0.570486
F	0.9083568260699834 0.0910554406476653 0.9809366608716499	-0.549430
F	0.4054356133972054 0.5948398671705620 0.5180143722017558	-0.567385
F	0.0911786258614406 0.9039146961844582 0.0156446947655357	-0.549724
F	0.5950571851663727 0.4125735164014041 0.4782867976429160	-0.568085
	  	
