#======================================================================

# CRYSTAL DATA

#----------------------------------------------------------------------

data_VESTA_phase_1


_pd_phase_name                         SnFSIX_1_Cu
_cell_length_a                         11.15607
_cell_length_b                         11.15607
_cell_length_c                         8.32240
_cell_angle_alpha                      90
_cell_angle_beta                       90
_cell_angle_gamma                      90
_symmetry_space_group_name_H-M         P 1
_symmetry_Int_Tables_number            1

loop_
_symmetry_equiv_pos_as_xyz
   x, y, z

loop_
   _atom_site_label
   _atom_site_fract_x
   _atom_site_fract_y
   _atom_site_fract_z
   _atom_site_charge
C	0.2555327699337782 0.4584764400245940 0.3717088201561578	0.102827
C	0.1310139721273325 0.4581090329202072 0.3671302004092591	-0.164376
C	0.7444673170662254 0.5415236029754060 0.3717088201561578	0.102827
C	0.8689860718726711 0.5418909670797930 0.3671302004092591	-0.164376
C	0.5415236029754060 0.2555327699337782 0.3717088201561578	0.102827
C	0.5418909670797930 0.1310139721273325 0.3671302004092591	-0.164376
C	0.4584764400245940 0.7444673170662254 0.3717088201561578	0.102827
C	0.4581090329202072 0.8689860718726711 0.3671302004092591	-0.164376
C	0.7444673170662254 0.4584764400245940 0.6282911498438394	0.102828
C	0.8689860718726711 0.4581090329202072 0.6328697705907352	-0.164375
C	0.2555327699337782 0.5415236029754060 0.6282911498438394	0.102828
C	0.1310139721273325 0.5418909670797930 0.6328697705907352	-0.164375
C	0.4584764400245940 0.2555327699337782 0.6282911498438394	0.102828
C	0.4581090329202072 0.1310139721273325 0.6328697705907352	-0.164375
C	0.5415236029754060 0.7444673170662254 0.6282911498438394	0.102828
C	0.5418909670797930 0.8689860718726711 0.6328697705907352	-0.164375
C	0.0662190206208605 0.5000000000000000 0.5000000000000000	0.100002
C	0.9337810553791388 0.5000000000000000 0.5000000000000000	0.100003
C	0.5000000000000000 0.0662190206208605 0.5000000000000000	0.100002
C	0.5000000000000000 0.9337810553791388 0.5000000000000000	0.100003
H	0.3077724055608158 0.4257081299607338 0.2700047533880336	0.101940
H	0.0853584628193553 0.4230611089039830 0.2614057367879314	0.126854
H	0.6922275514391842 0.5742918700392663 0.2700047533880336	0.101940
H	0.9146415531806460 0.5769388910960170 0.2614057367879314	0.126854
H	0.5742918700392663 0.3077724055608158 0.2700047533880336	0.101940
H	0.5769388910960170 0.0853584628193553 0.2614057367879314	0.126854
H	0.4257081299607338 0.6922275514391842 0.2700047533880336	0.101940
H	0.4230611089039830 0.9146415531806460 0.2614057367879314	0.126854
H	0.6922275514391842 0.4257081299607338 0.7299952176119675	0.101940
H	0.9146415531806460 0.4230611089039830 0.7385943222120694	0.126853
H	0.3077724055608158 0.5742918700392663 0.7299952176119675	0.101940
H	0.0853584628193553 0.5769388910960170 0.7385943222120694	0.126853
H	0.4257081299607338 0.3077724055608158 0.7299952176119675	0.101940
H	0.4230611089039830 0.0853584628193553 0.7385943222120694	0.126854
H	0.5742918700392663 0.6922275514391842 0.7299952176119675	0.101940
H	0.5769388910960170 0.9146415531806460 0.7385943222120694	0.126853
Cu	0.5000000000000000 0.5000000000000000 0.5000000000000000	0.726525
Sn	0.5000000000000000 0.5000000000000000 -0.0000000000000000	1.872601
F	0.5000000000000000 0.5000000000000000 0.7587320149330316	-0.556440
F	0.5000000000000000 0.5000000000000000 0.2412679850669688	-0.556440
F	0.3730596415127298 0.3730596415127298 -0.0000000000000000	-0.579754
F	0.6269403584872701 0.6269403584872701 -0.0000000000000000	-0.579754
F	0.6269403584872701 0.3730596415127298 -0.0000000000000000	-0.579754
F	0.3730596415127298 0.6269403584872701 -0.0000000000000000	-0.579754
N	0.3164977453061564 0.5000000000000000 0.5000000000000000	-0.226302
N	0.6835022766938453 0.5000000000000000 0.5000000000000000	-0.226301
N	0.5000000000000000 0.3164977453061564 0.5000000000000000	-0.226302
N	0.5000000000000000 0.6835022766938453 0.5000000000000000	-0.226302
	  	
