#======================================================================

# CRYSTAL DATA

#----------------------------------------------------------------------

data_VESTA_phase_1


_pd_phase_name                         SnFSIX_16_Cd_i
_cell_length_a                         25.51024
_cell_length_b                         25.51024
_cell_length_c                         8.40350
_cell_angle_alpha                      90
_cell_angle_beta                       90
_cell_angle_gamma                      90
_symmetry_space_group_name_H-M         P 1
_symmetry_Int_Tables_number            1

loop_
_symmetry_equiv_pos_as_xyz
   x, y, z

loop_
   _atom_site_label
   _atom_site_fract_x
   _atom_site_fract_y
   _atom_site_fract_z
   _atom_site_charge
C	0.4798099250057439 0.3816651947767035 0.3761551705840436	0.100174
C	0.4787870925706256 0.3272580597646764 0.3716993625940479	-0.168747
C	0.9560360760350998 0.6115404466912351 0.9445401702659405	-0.124127
C	0.9561533805654362 0.5570544722536809 0.9453458276597021	-0.125612
C	0.5201901129942524 0.6183348432232929 0.3761551705840436	0.100175
C	0.5212129074293743 0.6727419782353198 0.3716993625940479	-0.168747
C	0.0439638479649010 0.3884595143087650 0.9445401702659405	-0.124127
C	0.0438466384345623 0.4429455657463227 0.9453458276597021	-0.125612
C	0.6183348432232929 0.4798099250057439 0.3761551705840436	0.100175
C	0.6727419782353198 0.4787870925706256 0.3716993625940479	-0.168747
C	0.3884595143087650 0.9560360760350998 0.9445401702659405	-0.124127
C	0.4429455657463227 0.9561533805654362 0.9453458276597021	-0.125612
C	0.3816651947767035 0.5201901129942524 0.3761551705840436	0.100174
C	0.3272580597646764 0.5212129074293743 0.3716993625940479	-0.168747
C	0.6115404466912351 0.0439638479649010 0.9445401702659405	-0.124127
C	0.5570544722536809 0.0438466384345623 0.9453458276597021	-0.125612
C	0.5201901129942524 0.3816651947767035 0.6238448294159565	0.100175
C	0.5212129074293743 0.3272580597646764 0.6283006054059492	-0.168746
C	0.0439638479649010 0.6115404466912351 0.0554598417340603	-0.124127
C	0.0438466384345623 0.5570544722536809 0.0546541483402960	-0.125612
C	0.4798099250057439 0.6183348432232929 0.6238448294159565	0.100175
C	0.4787870925706256 0.6727419782353198 0.6283006054059492	-0.168746
C	0.9560360760350998 0.3884595143087650 0.0554598417340603	-0.124127
C	0.9561533805654362 0.4429455657463227 0.0546541483402960	-0.125612
C	0.3816651947767035 0.4798099250057439 0.6238448294159565	0.100175
C	0.3272580597646764 0.4787870925706256 0.6283006054059492	-0.168746
C	0.6115404466912351 0.9560360760350998 0.0554598417340603	-0.124127
C	0.5570544722536809 0.9561533805654362 0.0546541483402960	-0.125612
C	0.6183348432232929 0.5201901129942524 0.6238448294159565	0.100175
C	0.6727419782353198 0.5212129074293743 0.6283006054059492	-0.168746
C	0.3884595143087650 0.0439638479649010 0.0554598417340603	-0.124127
C	0.4429455657463227 0.0438466384345623 0.0546541483402960	-0.125612
C	0.5439638859649042 0.8884594763087692 0.5554598617340550	-0.124152
C	0.5438466194345638 0.9429455657463223 0.5546541403402953	-0.125703
C	0.0201900669942555 0.1183347862232986 0.1238448294159563	0.100174
C	0.0212129054293741 0.1727419402353238 0.1283006214059506	-0.168747
C	0.4560361520350988 0.1115404946912321 0.5554598617340550	-0.124127
C	0.4561533425654397 0.0570544192536798 0.5546541403402953	-0.125612
C	0.9798098870057476 0.8816651567767071 0.1238448294159563	0.100175
C	0.9787870925706257 0.8272580597646763 0.1283006214059506	-0.168747
C	0.1115404946912321 0.5439638859649042 0.5554598617340550	-0.124127
C	0.0570544192536798 0.5438466194345638 0.5546541403402953	-0.125612
C	0.8816651567767071 0.0201900669942555 0.1238448294159563	0.100175
C	0.8272580597646763 0.0212129054293741 0.1283006214059506	-0.168747
C	0.8884594763087692 0.4560361520350988 0.5554598617340550	-0.124152
C	0.9429455657463223 0.4561533425654397 0.5546541403402953	-0.125703
C	0.1183347862232986 0.9798098870057476 0.1238448294159563	0.100174
C	0.1727419402353238 0.9787870925706257 0.1283006214059506	-0.168747
C	0.4560361520350988 0.8884594763087692 0.4445401702659406	-0.124152
C	0.4561533425654397 0.9429455657463223 0.4453458596597046	-0.125703
C	0.9798098870057476 0.1183347862232986 0.8761552025840390	0.100175
C	0.9787870925706257 0.1727419402353238 0.8716993625940481	-0.168746
C	0.5439638859649042 0.1115404946912321 0.4445401702659406	-0.124127
C	0.5438466194345638 0.0570544192536798 0.4453458596597046	-0.125612
C	0.0201900669942555 0.8816651567767071 0.8761552025840390	0.100175
C	0.0212129054293741 0.8272580597646763 0.8716993625940481	-0.168746
C	0.8884594763087692 0.5439638859649042 0.4445401702659406	-0.124152
C	0.9429455657463223 0.5438466194345638 0.4453458596597046	-0.125703
C	0.1183347862232986 0.0201900669942555 0.8761552025840390	0.100175
C	0.1727419402353238 0.0212129054293741 0.8716993625940481	-0.168746
C	0.1115404946912321 0.4560361520350988 0.4445401702659406	-0.124127
C	0.0570544192536798 0.4561533425654397 0.4453458596597046	-0.125612
C	0.8816651567767071 0.9798098870057476 0.8761552025840390	0.100175
C	0.8272580597646763 0.9787870925706257 0.8716993625940481	-0.168746
C	0.5000000000000000 0.2987629005400817 0.5000000000000000	0.176400
C	0.5000000000000000 0.2431264394033978 0.5000000000000000	-0.115133
C	0.5000000000000000 0.1953156324097198 0.5000000000000000	-0.092769
C	0.5000000000000000 0.1396911267442328 0.5000000000000000	0.123799
C	0.5000000000000000 0.0288925551765939 0.5000000000000000	0.065055
C	-0.0000000000000000 0.7987628815400757 0.0000000000000000	0.176400
C	-0.0000000000000000 0.7431264194033960 0.0000000000000000	-0.115133
C	-0.0000000000000000 0.6953155944097231 0.0000000000000000	-0.092769
C	-0.0000000000000000 0.6396910887442304 0.0000000000000000	0.123800
C	-0.0000000000000000 0.5288925691765949 0.0000000000000000	0.065057
C	0.5000000000000000 0.7012370804599212 0.5000000000000000	0.176400
C	0.5000000000000000 0.7568736185966001 0.5000000000000000	-0.115134
C	0.5000000000000000 0.8046843675902808 0.5000000000000000	-0.092775
C	0.5000000000000000 0.8603088732557665 0.5000000000000000	0.123895
C	0.5000000000000000 0.9711074308234051 0.5000000000000000	0.065089
C	-0.0000000000000000 0.2012370994599186 0.0000000000000000	0.176400
C	-0.0000000000000000 0.2568735605966021 0.0000000000000000	-0.115133
C	-0.0000000000000000 0.3046843475902785 0.0000000000000000	-0.092769
C	-0.0000000000000000 0.3603088732557667 0.0000000000000000	0.123800
C	-0.0000000000000000 0.4711074688234081 0.0000000000000000	0.065057
C	0.7012370804599212 0.5000000000000000 0.5000000000000000	0.176400
C	0.7568736185966001 0.5000000000000000 0.5000000000000000	-0.115134
C	0.8046843675902808 0.5000000000000000 0.5000000000000000	-0.092775
C	0.8603088732557665 0.5000000000000000 0.5000000000000000	0.123895
C	0.9711074308234051 0.5000000000000000 0.5000000000000000	0.065089
C	0.2012370994599186 -0.0000000000000000 0.0000000000000000	0.176400
C	0.2568735605966021 -0.0000000000000000 0.0000000000000000	-0.115133
C	0.3046843475902785 -0.0000000000000000 0.0000000000000000	-0.092769
C	0.3603088732557667 -0.0000000000000000 0.0000000000000000	0.123800
C	0.4711074688234081 -0.0000000000000000 0.0000000000000000	0.065057
C	0.2987629005400817 0.5000000000000000 0.5000000000000000	0.176400
C	0.2431264394033978 0.5000000000000000 0.5000000000000000	-0.115133
C	0.1953156324097198 0.5000000000000000 0.5000000000000000	-0.092769
C	0.1396911267442328 0.5000000000000000 0.5000000000000000	0.123799
C	0.0288925551765939 0.5000000000000000 0.5000000000000000	0.065055
C	0.7987628815400757 -0.0000000000000000 0.0000000000000000	0.176400
C	0.7431264194033960 -0.0000000000000000 0.0000000000000000	-0.115133
C	0.6953155944097231 -0.0000000000000000 0.0000000000000000	-0.092769
C	0.6396910887442304 -0.0000000000000000 0.0000000000000000	0.123800
C	0.5288925691765949 -0.0000000000000000 0.0000000000000000	0.065057
H	0.4644143530127943 0.4047817700995844 0.2772972871216687	0.100661
H	0.4619226121372090 0.3072321715897089 0.2694628136050113	0.129073
H	0.9220986557187804 0.6329805795395642 0.9000858022017371	0.112214
H	0.9222681427200360 0.5357852734585548 0.8992110143936349	0.106916
H	0.5355856469872058 0.5952182299004152 0.2772972871216687	0.100661
H	0.5380774258627942 0.6927679044102897 0.2694628136050113	0.129073
H	0.0779013252812217 0.3670194204604355 0.9000858022017371	0.112214
H	0.0777318862799623 0.4642147655414451 0.8992110143936349	0.106915
H	0.5952182299004152 0.4644143530127943 0.2772972871216687	0.100661
H	0.6927679044102897 0.4619226121372090 0.2694628136050113	0.129073
H	0.3670194204604355 0.9220986557187804 0.9000858022017371	0.112214
H	0.4642147655414451 0.9222681427200360 0.8992110143936349	0.106916
H	0.4047817700995844 0.5355856469872058 0.2772972871216687	0.100660
H	0.3072321715897089 0.5380774258627942 0.2694628136050113	0.129073
H	0.6329805795395642 0.0779013252812217 0.9000858022017371	0.112214
H	0.5357852734585548 0.0777318862799623 0.8992110143936349	0.106915
H	0.5355856469872058 0.4047817700995844 0.7227026968783302	0.100660
H	0.5380774258627942 0.3072321715897089 0.7305371863949889	0.129073
H	0.0779013252812217 0.6329805795395642 0.0999141737982612	0.112214
H	0.0777318862799623 0.5357852734585548 0.1007889856063647	0.106915
H	0.4644143530127943 0.5952182299004152 0.7227026968783302	0.100661
H	0.4619226121372090 0.6927679044102897 0.7305371863949889	0.129073
H	0.9220986557187804 0.3670194204604355 0.0999141737982612	0.112214
H	0.9222681427200360 0.4642147655414451 0.1007889856063647	0.106916
H	0.4047817700995844 0.4644143530127943 0.7227026968783302	0.100661
H	0.3072321715897089 0.4619226121372090 0.7305371863949889	0.129073
H	0.6329805795395642 0.9220986557187804 0.0999141737982612	0.112214
H	0.5357852734585548 0.9222681427200360 0.1007889856063647	0.106916
H	0.5952182299004152 0.5355856469872058 0.7227026968783302	0.100660
H	0.6927679044102897 0.5380774258627942 0.7305371863949889	0.129073
H	0.3670194204604355 0.0779013252812217 0.0999141737982612	0.112214
H	0.4642147655414451 0.0777318862799623 0.1007889856063647	0.106915
H	0.5779013442812196 0.8670194204604358 0.5999141657982603	0.112258
H	0.5777318572799640 0.9642147655414449 0.6007890176063677	0.106926
H	0.0355856569872064 0.0952182009004167 0.2227027128783313	0.100661
H	0.0380774308627910 0.1927678474102888 0.2305372183949843	0.129073
H	0.4220986937187836 0.1329806085395633 0.5999141657982603	0.112214
H	0.4222681037200368 0.0357852584585496 0.6007890176063677	0.106916
H	0.9644143530127942 0.9047818470995805 0.2227027128783313	0.100661
H	0.9619225741372058 0.8072322095897126 0.2305372183949843	0.129073
H	0.1329806085395633 0.5779013442812196 0.5999141657982603	0.112214
H	0.0357852584585496 0.5777318572799640 0.6007890176063677	0.106916
H	0.9047818470995805 0.0355856569872064 0.2227027128783313	0.100661
H	0.8072322095897126 0.0380774308627910 0.2305372183949843	0.129073
H	0.8670194204604358 0.4220986937187836 0.5999141657982603	0.112258
H	0.9642147655414449 0.4222681037200368 0.6007890176063677	0.106926
H	0.0952182009004167 0.9644143530127942 0.2227027128783313	0.100660
H	0.1927678474102888 0.9619225741372058 0.2305372183949843	0.129073
H	0.4220986937187836 0.8670194204604358 0.4000858022017369	0.112258
H	0.4222681037200368 0.9642147655414449 0.3992110463936308	0.106926
H	0.9644143530127942 0.0952182009004167 0.7772972711216671	0.100660
H	0.9619225741372058 0.1927678474102888 0.7694627816050156	0.129073
H	0.5779013442812196 0.1329806085395633 0.4000858022017369	0.112214
H	0.5777318572799640 0.0357852584585496 0.3992110463936308	0.106916
H	0.0355856569872064 0.9047818470995805 0.7772972711216671	0.100661
H	0.0380774308627910 0.8072322095897126 0.7694627816050156	0.129073
H	0.8670194204604358 0.5779013442812196 0.4000858022017369	0.112258
H	0.9642147655414449 0.5777318572799640 0.3992110463936308	0.106926
H	0.0952182009004167 0.0355856569872064 0.7772972711216671	0.100661
H	0.1927678474102888 0.0380774308627910 0.7694627816050156	0.129073
H	0.1329806085395633 0.4220986937187836 0.4000858022017369	0.112214
H	0.0357852584585496 0.4222681037200368 0.3992110463936308	0.106916
H	0.9047818470995805 0.9644143530127942 0.7772972711216671	0.100661
H	0.8072322095897126 0.9619225741372058 0.7694627816050156	0.129073
Cd	0.5000000000000000 0.5000000000000000 0.5000000000000000	0.827546
Cd	-0.0000000000000000 -0.0000000000000000 0.0000000000000000	0.827546
Sn	0.5000000000000000 0.5000000000000000 0.0000000000000000	1.897618
Sn	-0.0000000000000000 -0.0000000000000000 0.5000000000000000	1.897618
F	0.5000000000000000 0.5000000000000000 0.2388219330910977	-0.536457
F	-0.0000000000000000 -0.0000000000000000 0.7388219010911024	-0.536457
F	0.5000000000000000 0.5000000000000000 0.7611780029089039	-0.536457
F	-0.0000000000000000 -0.0000000000000000 0.2611780669089024	-0.536457
F	0.5553648465786352 0.5553648465786352 0.0000000000000000	-0.588883
F	0.0553647995786348 0.0553647995786348 0.5000000000000000	-0.588883
F	0.4446352294213711 0.4446352294213711 0.0000000000000000	-0.588883
F	0.9446351914213680 0.9446351914213680 0.5000000000000000	-0.588883
F	0.4446352294213711 0.5553648465786352 0.0000000000000000	-0.588883
F	0.9446351914213680 0.0553647995786348 0.5000000000000000	-0.588883
F	0.5553648465786352 0.4446352294213711 0.0000000000000000	-0.588883
F	0.0553647995786348 0.9446351914213680 0.5000000000000000	-0.588883
N	0.5000000000000000 0.4083736960471103 0.5000000000000000	-0.242637
N	-0.0000000000000000 0.9083737340471125 0.0000000000000000	-0.242637
N	0.5000000000000000 0.5916263039528906 0.5000000000000000	-0.242637
N	-0.0000000000000000 0.0916263129528872 0.0000000000000000	-0.242638
N	0.5916263039528906 0.5000000000000000 0.5000000000000000	-0.242637
N	0.0916263129528872 -0.0000000000000000 0.0000000000000000	-0.242638
N	0.4083736960471103 0.5000000000000000 0.5000000000000000	-0.242637
N	0.9083737340471125 -0.0000000000000000 0.0000000000000000	-0.242637
	  	
