#======================================================================

# CRYSTAL DATA

#----------------------------------------------------------------------

data_VESTA_phase_1


_pd_phase_name                         SnFSIX_18_Fe
_cell_length_a                         14.37605
_cell_length_b                         13.96392
_cell_length_c                         8.26634
_cell_angle_alpha                      90
_cell_angle_beta                       95.44801
_cell_angle_gamma                      90
_symmetry_space_group_name_H-M         P 1
_symmetry_Int_Tables_number            1

loop_
_symmetry_equiv_pos_as_xyz
   x, y, z

loop_
   _atom_site_label
   _atom_site_fract_x
   _atom_site_fract_y
   _atom_site_fract_z
   _atom_site_charge
F	0.4059023591867918 0.3658716961102023 0.5023847432002989	-0.553823
F	0.5204451150257464 0.4817528137164949 0.7484085901156521	-0.515961
F	0.3987398016057846 0.5654992775237750 0.5133070201411399	-0.521507
F	0.9059023931867872 0.8658716271101995 0.5023847432002989	-0.553823
F	0.0204451410257413 0.9817527787164952 0.7484085901156521	-0.515961
F	0.8987398356057876 0.0654992435237797 0.5133070201411399	-0.521505
F	0.5940976038132090 0.3658716961102023 0.4976152567997008	-0.553823
F	0.4795548819742571 0.4817528137164949 0.2515914098843481	-0.515961
F	0.6012601943942149 0.5654992775237750 0.4866929808588639	-0.521507
F	0.0940976248132069 0.8658716271101995 0.4976152567997009	-0.553823
F	0.9795547469742564 0.9817527787164952 0.2515914098843481	-0.515961
F	0.1012601693942163 0.0654992435237797 0.4866929808588639	-0.521505
C	0.6818005580641725 0.1526673080672629 0.6653816994997254	-0.426179
C	0.7539492519308999 0.1501647762229948 0.8066579781665923	0.210015
C	0.7585074052044148 0.1968237737986149 0.9571454136360027	-0.151483
C	0.6884030421409552 0.2604891743789514 0.0155544652933544	-0.144435
C	0.6743604384635048 0.3586323513945644 0.9757089806269078	0.218307
C	0.7310870627145785 0.4199469335491607 0.8747419421726608	-0.425133
C	0.8887131258136522 0.2078215544272820 0.1979822119191305	-0.432702
C	0.8467620040574656 0.1723958902252276 0.0374114803067269	0.221144
C	0.6218481361588886 0.2384442260176517 0.1231414616277594	0.207146
C	0.6007222319508249 0.1479320709236100 0.2074868582247908	-0.424325
C	0.1818006080641696 0.6526673600672600 0.6653816994997254	-0.426178
C	0.2539492859309028 0.6501647592229894 0.8066579781665923	0.210013
C	0.2585073712044118 0.6968237397986123 0.9571454136360027	-0.151498
C	0.1884030421409550 0.7604891913789495 0.0155544652933544	-0.144433
C	0.1743604214634997 0.8586323853945671 0.9757089806269078	0.218307
C	0.2310870787145730 0.9199468985491617 0.8747419421726608	-0.425132
C	0.3887130248136475 0.7078214684272820 0.1979822119191305	-0.432709
C	0.3467620720574638 0.6723958902252277 0.0374114803067269	0.221194
C	0.1218481111588900 0.7384441400176516 0.1231414616277594	0.207146
C	0.1007223159508249 0.6479321399236124 0.2074868582247908	-0.424326
C	0.3181994389358308 0.1526673080672629 0.3346183015002782	-0.426179
C	0.2460507410690959 0.1501647762229948 0.1933419418334088	0.210015
C	0.2414926237955840 0.1968237737986149 0.0428545623640020	-0.151483
C	0.3115969538590450 0.2604891743789514 0.9844455257066488	-0.144434
C	0.3256396275365008 0.3586323513945644 0.0242910703730928	0.218307
C	0.2689129522854261 0.4199469335491607 0.1252580738273406	-0.425132
C	0.1112869571863511 0.2078215544272820 0.8020178360808734	-0.432707
C	0.1532379749425364 0.1723958902252276 0.9625885076932721	0.221145
C	0.3781518948411104 0.2384442260176517 0.8768585623722358	0.207146
C	0.3992776940491759 0.1479320709236100 0.7925130627752136	-0.424326
C	0.8181994389358308 0.6526673600672600 0.3346183015002782	-0.426178
C	0.7460507410690960 0.6501647592229894 0.1933419418334088	0.210013
C	0.7414925897955883 0.6968237397986123 0.0428545623640020	-0.151498
C	0.8115969538590445 0.7604891913789495 0.9844455257066488	-0.144434
C	0.8256395605364987 0.8586323853945671 0.0242910703730928	0.218307
C	0.7689129352854214 0.9199468985491617 0.1252580738273406	-0.425132
C	0.6112868731863512 0.7078214684272821 0.8020178360808734	-0.432703
C	0.6532379919425341 0.6723958902252277 0.9625885076932721	0.221193
C	0.8781518608411076 0.7384441400176516 0.8768585623722358	0.207146
C	0.8992777610491781 0.6479321399236124 0.7925130627752136	-0.424326
H	0.7127357679922384 0.1732496003298478 0.5538835724030208	0.152445
H	0.6280426920303358 0.2057181285016494 0.6863542163005361	0.141060
H	0.6482767514676018 0.0823425380048494 0.6433595061856791	0.133797
H	0.6871300311309460 0.4629271076067131 0.7868270005256275	0.139946
H	0.7772138133186208 0.3749655627099294 0.8084570828546743	0.138970
H	0.7749559706558353 0.4693954423883998 0.9526507907634740	0.128575
H	0.8591726088929216 0.0692566500309574 0.7048209289969153	0.275553
H	0.8928066701209887 0.1521317214668219 0.2920779625940070	0.145658
H	0.8459015505771922 0.2666912563682106 0.2386014944086309	0.135676
H	0.9599598306778424 0.2343903982268015 0.1886558661834326	0.139817
H	0.5783283767908829 0.1628010927635268 0.3283525422485807	0.146282
H	0.6627968793514751 0.1018850331151231 0.2212019431438432	0.150351
H	0.5443096773201191 0.1073657387092953 0.1387622064467265	0.130555
H	0.5223688559719124 0.3326229601179229 0.2144652623973780	0.269576
H	0.2127358189922392 0.6732494973298498 0.5538835724030208	0.152445
H	0.1280427760303353 0.7057180595016468 0.6863542163005361	0.141057
H	0.1482768014675989 0.5823424780048444 0.6433595061856791	0.133802
H	0.1871300481309439 0.9629270396067074 0.7868270005256275	0.139946
H	0.2772138473186243 0.8749655967099328 0.8084570828546743	0.138970
H	0.2749560036558344 0.9693954423883999 0.9526507907634740	0.128575
H	0.3591725748929258 0.5692566930309577 0.7048209289969153	0.275553
H	0.3928067371209912 0.6521316874668193 0.2920779625940070	0.145678
H	0.3459014825771931 0.7666912913682096 0.2386014944086309	0.135639
H	0.4599598976778375 0.7343904492267950 0.1886558661834326	0.139817
H	0.0783283687908824 0.6628011097635244 0.3283525422485807	0.146282
H	0.1627968453514727 0.6018849901151230 0.2212019431438432	0.150351
H	0.0443097133201221 0.6073656867092981 0.1387622064467265	0.130555
H	0.0223688409719149 0.8326229601179226 0.2144652623973780	0.269576
H	0.2872641630077664 0.1732496003298478 0.4461164595969745	0.152445
H	0.3719572069696599 0.2057181285016494 0.3136458486994659	0.141060
H	0.3517231775324029 0.0823425380048494 0.3566404938143210	0.133797
H	0.3128699638690569 0.4629271076067131 0.2131729674743771	0.139946
H	0.2227861816813748 0.3749655627099294 0.1915428851453230	0.138970
H	0.2250440253441715 0.4693954423883998 0.0473491822365270	0.128575
H	0.1408273921070751 0.0692566500309574 0.2951789760030802	0.275553
H	0.1071932528790080 0.1521317214668219 0.7079220694059952	0.145658
H	0.1540985134228064 0.2666912563682106 0.7613985055913691	0.135680
H	0.0400400983221622 0.2343903982268015 0.8113441658165629	0.139816
H	0.4216716532091198 0.1628010927635268 0.6716474577514191	0.146282
H	0.3372031826485298 0.1018850331151231 0.7787980088561527	0.150351
H	0.4556902876798815 0.1073657387092953 0.8612378335532770	0.130555
H	0.4776311050280877 0.3326229601179229 0.7855346906026217	0.269576
H	0.7872642300077615 0.6732494973298498 0.4461164595969745	0.152445
H	0.8719573079696642 0.7057180595016468 0.3136458486994659	0.141057
H	0.8517231775324030 0.5823424780048444 0.3566404938143210	0.133802
H	0.8128699638690572 0.9629270396067074 0.2131729674743771	0.139946
H	0.7227861816813752 0.8749655967099328 0.1915428851453230	0.138970
H	0.7250440253441714 0.9693954423883999 0.0473491822365270	0.128575
H	0.6408273831070778 0.5692566930309577 0.2951789760030802	0.275553
H	0.6071933618790069 0.6521316874668193 0.7079220694059952	0.145677
H	0.6540984464228040 0.7666912913682096 0.7613985055913691	0.135634
H	0.5400401343221582 0.7343904492267950 0.8113441658165629	0.139816
H	0.9216715862091176 0.6628011097635244 0.6716474577514191	0.146282
H	0.8372031156485280 0.6018849901151230 0.7787980088561527	0.150352
H	0.9556902876798816 0.6073656867092981 0.8612378335532770	0.130555
H	0.9776310710280922 0.8326229601179226 0.7855346906026217	0.269576
N	0.8339571974151174 0.0999291951894696 0.8052724646173988	-0.144533
N	0.6028466914314576 0.3934464265443750 0.0517167742855267	-0.267494
N	0.8919235308886607 0.1127376934271826 0.9432632748982719	-0.270471
N	0.5730278486097969 0.3197089534841325 0.1395826383464582	-0.140864
N	0.3339571974151174 0.5999291181894744 0.8052724646173988	-0.144534
N	0.1028467584314591 0.8934464265443751 0.0517167742855267	-0.267493
N	0.3919235648886633 0.6127377444271837 0.9432632748982719	-0.270482
N	0.0730278406097962 0.8197089184841332 0.1395826383464582	-0.140863
N	0.1660427845848811 0.0999291951894696 0.1947275833825979	-0.144533
N	0.3971532025685414 0.3934464265443750 0.9482832017144717	-0.267494
N	0.1080764391113371 0.1127376934271826 0.0567367051017266	-0.270471
N	0.4269721483902064 0.3197089534841325 0.8604173776535430	-0.140863
N	0.6660428015848789 0.5999291181894744 0.1947275833825979	-0.144533
N	0.8971533035685455 0.8934464265443751 0.9482832017144717	-0.267493
N	0.6080764641113424 0.6127377444271837 0.0567367051017266	-0.270482
N	0.9269721823902021 0.8197089184841332 0.8604173776535430	-0.140863
Sn	0.4999999979999998 0.4689861652898706 0.5000000000000000	1.841560
Sn	0.0000000000000000 0.9689861652898706 0.5000000000000000	1.841559
Fe	0.5000000000000000 0.5097193170281333 -0.0000000000000000	0.826510
Fe	0.0000000000000000 0.0097193240281380 -0.0000000000000000	0.826507
	  	
