#======================================================================

# CRYSTAL DATA

#----------------------------------------------------------------------

data_VESTA_phase_1


_pd_phase_name                         SnFSIX_14_Fe_i
_cell_length_a                         13.41961
_cell_length_b                         13.40582
_cell_length_c                         8.15690
_cell_angle_alpha                      87.40173
_cell_angle_beta                       87.25238
_cell_angle_gamma                      88.06664
_symmetry_space_group_name_H-M         P 1
_symmetry_Int_Tables_number            1

loop_
_symmetry_equiv_pos_as_xyz
   x, y, z

loop_
   _atom_site_label
   _atom_site_fract_x
   _atom_site_fract_y
   _atom_site_fract_z
   _atom_site_charge
C	0.5703482327987073 0.2688357869044273 0.3610043289782001	-0.176798
C	0.4668456819494387 0.2721016353711806 0.3659544848715073	0.110237
C	0.9343492940461677 0.2893334332028893 0.4129722874424988	-0.167109
C	0.0377244697310874 0.2833851393351746 0.3971937975369055	0.110315
C	0.2674797758643407 0.5702105475747471 0.3623260012711748	-0.178414
C	0.2706372815615224 0.4665984485357697 0.3680477743539883	0.113536
C	0.2965907114698961 0.9338189956432974 0.4090135420214596	-0.166460
C	0.2900866486980836 0.0372962502650422 0.3942709197471804	0.110538
C	0.9301416591942598 0.2331424534147687 0.1368262247436443	-0.178735
C	0.0336693391626138 0.2303245363903408 0.1308041367596337	0.111334
C	0.5668311314001161 0.2056294555461584 0.0892906156187512	-0.166084
C	0.4634344161246900 0.2121470641708758 0.1038044781701802	0.111359
C	0.2072122773758940 0.5656773614773056 0.0890899912978287	-0.169314
C	0.2135784169860113 0.4622400864594453 0.1044809152170790	0.110140
C	0.2299555755812525 0.9296860140130772 0.1400918326970954	-0.177506
C	0.2268732162054997 0.0332805946952218 0.1347821913119992	0.110343
C	0.4299587124513773 0.7364595960836386 0.6367393788022644	-0.178930
C	0.5334159999305487 0.7334090973910795 0.6318050514008734	0.111650
C	0.0660271866282338 0.7230244471039881 0.5793490861400825	-0.166329
C	0.9626601454830404 0.7285548760654131 0.5949736318501193	0.112812
C	0.7367707042812986 0.4301705072233231 0.6368547063681540	-0.179321
C	0.7346574280967757 0.5337357659285585 0.6317094102514141	0.114330
C	0.7117783079626465 0.0664353686409146 0.5844146127494989	-0.166007
C	0.7173614747665037 0.9629306217042962 0.5986891949686166	0.111913
C	0.0697670006838347 0.7609564631025795 0.8651503359560108	-0.180661
C	0.9662966515631339 0.7633039995659630 0.8706042556032785	0.112432
C	0.4334428384848554 0.7824717223882651 0.9187849155111024	-0.163707
C	0.5368250888003508 0.7763443845514092 0.9037362321439285	0.112881
C	0.7827515399824961 0.4338955573436529 0.9187284619390871	-0.166060
C	0.7776391035066536 0.5373745322623220 0.9035044274565851	0.112346
C	0.7661620626070802 0.0695479138660198 0.8616308077361463	-0.179052
C	0.7687299535709904 0.9660108267220058 0.8659486579512080	0.113875
C	0.6220520245956943 0.2355973033243586 0.2188864330755011	0.191204
C	0.8787779567653180 0.2626001471046542 0.2816632298311266	0.193502
C	0.2358695303388631 0.6214497536244228 0.2191071562226539	0.193572
C	0.2649241959409926 0.8782470249741621 0.2809025020787262	0.191966
C	0.3782224942141461 0.7611884617288905 0.7840272318100446	0.191950
C	0.1213471213666547 0.7405817103982902 0.7157464914752936	0.195424
C	0.7609421170147095 0.3785171973668141 0.7841916165283649	0.193256
C	0.7374884733590229 0.1215380187214662 0.7170128282368153	0.193485
H	0.6102325036484016 0.2881734769845891 0.4675760511964177	0.111017
H	0.4250666886971730 0.2963763730424651 0.4758806453174672	0.091515
H	0.8975299825913819 0.3142318567217469 0.5261204402380030	0.125087
H	0.0823356090314221 0.3035799532223944 0.4980147121540908	0.091615
H	0.2855892558818655 0.6108403945881055 0.4689373449995748	0.111756
H	0.2936675487684869 0.4251415952066258 0.4787809866312615	0.089760
H	0.3258634719017981 0.8969593650228758 0.5188053701141948	0.125437
H	0.3138738657732157 0.0818952082437177 0.4928422629335961	0.091981
H	0.8898704968693909 0.2164779427218383 0.0291798995471320	0.110561
H	0.0751732808605752 0.2089806125074670 0.0188143809924655	0.090801
H	0.6040537329604228 0.1775912300119597 0.9786267375894103	0.125199
H	0.4191312896856910 0.1895020632702485 0.0042303024661388	0.091654
H	0.1805039083651165 0.6022161446093016 0.9771757431061493	0.125708
H	0.1920068032623505 0.4175433248549412 0.0044986209009673	0.092228
H	0.2092015013799527 0.8893303651308110 0.0347789985970340	0.112129
H	0.2014430336609780 0.0749725315415252 0.0258018012717298	0.091691
H	0.3902755750924833 0.7228032111003113 0.5270545352415478	0.108134
H	0.5752359363098882 0.7152833997099884 0.5186720654657864	0.089726
H	0.1030570667090671 0.7058851988102093 0.4621866510569714	0.124378
H	0.9184407766163009 0.7161471316801665 0.4898173829958217	0.088624
H	0.7231091894396138 0.3901285127364048 0.5273566717054906	0.108812
H	0.7171582121389523 0.5756583460274667 0.5185853951243130	0.089936
H	0.6878278273899744 0.1039696709879135 0.4714887931922666	0.125334
H	0.6982570168713480 0.9188316459542412 0.4965123830635088	0.089384
H	0.1097034289546675 0.7717822362447654 0.9757832494709492	0.107416
H	0.9245116479338060 0.7777184470903278 0.9853372087528840	0.089165
H	0.3962817775823735 0.8031672970791587 0.0340938899673598	0.124551
H	0.5809521467314808 0.7917709810754088 0.0076442681770743	0.088205
H	0.8030397387519810 0.3966275938542173 0.0339902097557966	0.125053
H	0.7936192893651254 0.5817667605504909 0.0070492709215126	0.089258
H	0.7829453724582200 0.1091851343963136 0.9700259924112110	0.109435
H	0.7899028299528794 0.9238627307573879 0.9769715197937081	0.090541
N	0.7740064026712768 0.2724272267036790 0.3014449773756744	-0.114380
N	0.2756065457171061 0.7733429010973263 0.2987537456819337	-0.114945
N	0.7268632823659046 0.2253402756690540 0.1997792011033381	-0.114379
N	0.2255261632413062 0.7263131806712749 0.2008752245497010	-0.115237
N	0.2261411998643640 0.7328320665574035 0.6932739510477695	-0.110200
N	0.7288352194844127 0.2264575988255712 0.6961328166216960	-0.111915
N	0.2734034625819175 0.7694036060993409 0.8061872167370872	-0.109745
N	0.7691086719538910 0.2736398587655111 0.8055716796648562	-0.111704
N	0.4133454116967277 0.2451897778102848 0.2394443769333445	-0.250992
N	0.0875480753038064 0.2540336574074499 0.2588395909510784	-0.251567
N	0.2451616539308014 0.4125562342916128 0.2411661985652621	-0.252338
N	0.2555516056703366 0.0870916685943130 0.2597914622967006	-0.250064
N	0.5869327253197982 0.7524334766445576 0.7627686086652936	-0.249936
N	0.9126445574312247 0.7480695731069192 0.7380857636200453	-0.249497
N	0.7540499703661264 0.5873847172390565 0.7625112430503413	-0.252278
N	0.7453416404973802 0.9126518010636880 0.7369643569518353	-0.252071
F	0.3558456502661215 0.1404274660037045 0.7489471861387786	-0.552500
F	0.1481349542431669 0.3579006113821174 0.7503043137626736	-0.552157
F	0.3572790814078640 0.3491191309689383 0.7178316608954577	-0.549807
F	0.1469623311403803 0.1487677546934791 0.7787956773748087	-0.550536
F	0.6412538878656959 0.8577776353131502 0.2510912628121257	-0.548807
F	0.8546149337301158 0.6460932341943413 0.2494806407655314	-0.550395
F	0.6453268491518493 0.6492378660422460 0.2719736597337210	-0.549368
F	0.8503251645407119 0.8548915106162118 0.2265867861542755	-0.549096
F	0.2487770070327263 0.2467908430546858 0.4968207336691369	-0.507854
F	0.2536446083649769 0.2513654885518244 0.0015729833564040	-0.508299
F	0.7487280280005342 0.7499505017731085 0.5028797649963863	-0.505505
F	0.7494621926526691 0.7513180454990439 0.9969734868790576	-0.505510
Sn	0.2518730302591527 0.2490942948371758 0.7491430880468377	1.870151
Sn	0.7479492003167675 0.7518797369063390 0.2499358913978560	1.866649
Fe	0.2505046178894120 0.2497483398704511 0.2493404120077818	0.850548
Fe	0.7497651558603060 0.7500163288245143 0.7499836949153388	0.853728
	  	
