#======================================================================

# CRYSTAL DATA

#----------------------------------------------------------------------

data_VESTA_phase_1


_pd_phase_name                         SnFSIX_7_Cu
_cell_length_a                         18.91018
_cell_length_b                         18.91018
_cell_length_c                         8.52640
_cell_angle_alpha                      90
_cell_angle_beta                       90
_cell_angle_gamma                      90
_symmetry_space_group_name_H-M         P 1
_symmetry_Int_Tables_number            1

loop_
_symmetry_equiv_pos_as_xyz
   x, y, z

loop_
   _atom_site_label
   _atom_site_fract_x
   _atom_site_fract_y
   _atom_site_fract_z
   _atom_site_charge
C	0.6656255798087339 0.8695173144909069 0.6915557987161345	0.102609
C	0.6139042817428942 0.9216244902997305 0.6950066572575829	-0.169695
C	0.5812145279044101 0.8878930085453615 0.4331495942982657	-0.164422
C	0.6331950427409156 0.8363391657809535 0.4389254083213303	0.097631
C	0.8343744201912661 0.6304826855090931 0.6915557987161345	0.102609
C	0.8860957682571029 0.5783755607002702 0.6950066572575829	-0.169695
C	0.9187853710955922 0.6121070424546321 0.4331495942982657	-0.164422
C	0.8668049572590844 0.6636608342190465 0.4389254083213303	0.097631
C	0.6304826855090931 0.6656255798087339 0.6915557987161345	0.102609
C	0.5783755607002702 0.6139042817428942 0.6950066572575829	-0.169695
C	0.6121070424546321 0.5812145279044101 0.4331495942982657	-0.164422
C	0.6636608342190465 0.6331950427409156 0.4389254083213303	0.097631
C	0.8695173144909069 0.8343744201912661 0.6915557987161345	0.102610
C	0.9216244902997305 0.8860957682571028 0.6950066572575829	-0.169695
C	0.8878930085453615 0.9187853710955922 0.4331495942982657	-0.164422
C	0.8363391657809535 0.8668049572590844 0.4389254083213303	0.097631
C	0.3343743951912677 0.3695172644909027 0.3084442312838677	0.102609
C	0.3860957182571060 0.4216244902997308 0.3049933727424195	-0.169695
C	0.4187854720955902 0.3878929575453682 0.5668504057017342	-0.164422
C	0.3668049062590903 0.3363391657809539 0.5610746216786721	0.097631
C	0.1656256048087324 0.1304827225090997 0.3084442312838677	0.102609
C	0.1139042817428940 0.0783755097002693 0.3049933727424195	-0.169695
C	0.0812145089044046 0.1121070424546318 0.5668504057017342	-0.164422
C	0.1331950937409096 0.1636608222190453 0.5610746216786721	0.097631
C	0.3695172644909027 0.1656256048087324 0.3084442312838677	0.102609
C	0.4216244902997308 0.1139042817428940 0.3049933727424195	-0.169694
C	0.3878929575453682 0.0812145089044046 0.5668504057017342	-0.164422
C	0.3363391657809539 0.1331950937409096 0.5610746216786721	0.097631
C	0.1304827225090997 0.3343743951912677 0.3084442312838677	0.102609
C	0.0783755097002693 0.3860957182571060 0.3049933727424195	-0.169694
C	0.1121070424546318 0.4187854720955902 0.5668504057017342	-0.164422
C	0.1636608222190453 0.3668049062590903 0.5610746216786721	0.097631
C	0.4324805989365200 0.0706187351943653 0.4368828315027952	0.140788
C	0.4875099592514591 0.0167311830901485 0.4353573956843597	-0.120100
C	0.0675194010634800 0.4293812578056379 0.4368828315027952	0.140788
C	0.0124900087485382 0.4832687529098532 0.4353573956843597	-0.120100
C	0.4293812578056379 0.4324805989365200 0.4368828315027952	0.140788
C	0.4832687529098532 0.4875099592514591 0.4353573956843597	-0.120100
C	0.0706187351943653 0.0675194010634800 0.4368828315027952	0.140788
C	0.0167311830901485 0.0124900087485382 0.4353573956843597	-0.120100
C	0.5675194010634799 0.5706187421943623 0.5631171684972052	0.140787
C	0.5124900917485344 0.5167311970901425 0.5646426333156391	-0.120081
C	0.9324805489365231 0.9293812078056336 0.5631171684972052	0.140787
C	0.9875099592514591 0.9832688539098582 0.5646426333156391	-0.120081
C	0.5706187421943623 0.9324805489365231 0.5631171684972052	0.140787
C	0.5167311970901425 0.9875099592514591 0.5646426333156391	-0.120081
C	0.9293812078056336 0.5675194010634799 0.5631171684972052	0.140787
C	0.9832688539098582 0.5124900917485344 0.5646426333156391	-0.120081
H	0.6997216288330593 0.8595683118175752 0.7919558704180816	0.102642
H	0.6077505268949984 0.9538151615122730 0.8002150375251993	0.122890
H	0.5486265659296520 0.8920212246728504 0.3281942250518827	0.121699
H	0.6429225966070707 0.8014448261126792 0.3396995322336609	0.103050
H	0.8002783711669407 0.6404316881824248 0.7919558704180816	0.102642
H	0.8922494731050016 0.5461848894877277 0.8002150375251993	0.122890
H	0.9513734850703487 0.6079788263271503 0.3281942250518827	0.121699
H	0.8570774033929293 0.6985551738873208 0.3396995322336609	0.103050
H	0.6404316881824248 0.6997216288330593 0.7919558704180816	0.102642
H	0.5461848894877277 0.6077505268949984 0.8002150375251993	0.122890
H	0.6079788263271503 0.5486265659296520 0.3281942250518827	0.121699
H	0.6985551738873208 0.6429225966070707 0.3396995322336609	0.103050
H	0.8595683118175752 0.8002783711669407 0.7919558704180816	0.102642
H	0.9538151615122730 0.8922494731050016 0.8002150375251993	0.122890
H	0.8920212246728504 0.9513734850703487 0.3281942250518827	0.121699
H	0.8014448261126792 0.8570774033929293 0.3396995322336609	0.103050
H	0.3002783971669427 0.3595682358175761 0.2080441145819208	0.102642
H	0.3922493971049956 0.4538151105122724 0.1997849184747966	0.122889
H	0.4513734850703489 0.3920212246728504 0.6718057449481217	0.121699
H	0.3570774283929348 0.3014448521126815 0.6603004677663390	0.103050
H	0.1997216158330549 0.1404317901824261 0.2080441145819208	0.102642
H	0.1077505778949988 0.0461849054877290 0.1997849184747966	0.122889
H	0.0486265089296507 0.1079788013271519 0.6718057449481217	0.121699
H	0.1429225966070710 0.1985551358873177 0.6603004677663390	0.103050
H	0.3595682358175761 0.1997216158330549 0.2080441145819208	0.102642
H	0.4538151105122724 0.1077505778949988 0.1997849184747966	0.122889
H	0.3920212246728504 0.0486265089296507 0.6718057449481217	0.121699
H	0.3014448521126815 0.1429225966070710 0.6603004677663390	0.103050
H	0.1404317901824261 0.3002783971669427 0.2080441145819208	0.102642
H	0.0461849054877290 0.3922493971049956 0.1997849184747966	0.122889
H	0.1079788013271519 0.4513734850703489 0.6718057449481217	0.121699
H	0.1985551358873177 0.3570774283929348 0.6603004677663390	0.103050
H	0.5070855608492995 0.0012142604461854 0.3195223088414703	0.105784
H	0.9929144901507012 0.4987857115538120 0.3195223088414703	0.105784
H	0.4987857115538120 0.5070855608492995 0.3195223088414703	0.105784
H	0.0012142604461854 0.9929144901507012 0.3195223088414703	0.105784
H	0.4929144391507006 0.5012142384461907 0.6804777211585249	0.105782
H	0.0070855518493021 0.9987857115538122 0.6804777211585249	0.105782
H	0.5012142384461907 0.0070855518493021 0.6804777211585249	0.105782
H	0.9987857115538122 0.4929144391507006 0.6804777211585249	0.105782
Cu	0.2500000000000000 0.2500000000000000 0.4337128004441627	0.714539
Cu	0.7500000000000000 0.7500000000000000 0.5662871995558371	0.714539
Sn	0.2500000000000000 0.2500000000000000 0.9348095922481092	1.874134
Sn	0.7500000000000000 0.7500000000000000 0.0651903927518932	1.874134
F	0.2500000000000000 0.2500000000000000 0.1727107571235853	-0.558975
F	0.2500000000000000 0.2500000000000000 0.6966170313972109	-0.558263
F	0.7500000000000000 0.7500000000000000 0.8272892728764172	-0.558975
F	0.7500000000000000 0.7500000000000000 0.3033829686027891	-0.558263
F	0.3255941957697164 0.3237980903188600 0.9349172721000305	-0.582139
F	0.1744058292302821 0.1762019346811384 0.9349172721000305	-0.582139
F	0.1762019346811385 0.3255941957697164 0.9349172721000305	-0.582139
F	0.3237980903188600 0.1744058292302821 0.9349172721000305	-0.582139
F	0.6744058292302819 0.8237980903188601 0.0650827278999692	-0.582139
F	0.8255941707697181 0.6762019096811399 0.0650827278999692	-0.582139
F	0.8237980903188601 0.8255941707697181 0.0650827278999692	-0.582139
F	0.6762019096811399 0.6744058292302819 0.0650827278999692	-0.582139
N	0.3274991756261046 0.1749503482340470 0.4343148731396156	-0.228605
N	0.1725008493738938 0.3250496767659517 0.4343148731396156	-0.228605
N	0.3250496767659517 0.3274991756261046 0.4343148731396156	-0.228605
N	0.1749503482340470 0.1725008493738938 0.4343148731396156	-0.228605
N	0.6725008243738950 0.6749503232340485 0.5656851268603839	-0.228605
N	0.8274991756261050 0.8250496767659515 0.5656851268603839	-0.228605
N	0.6749503232340485 0.8274991756261050 0.5656851268603839	-0.228605
N	0.8250496767659515 0.6725008243738950 0.5656851268603839	-0.228605
	  	
