#======================================================================

# CRYSTAL DATA

#----------------------------------------------------------------------

data_VESTA_phase_1


_pd_phase_name                         SnFSIX_18_Ni
_cell_length_a                         14.01744
_cell_length_b                         13.77481
_cell_length_c                         8.31247
_cell_angle_alpha                      90
_cell_angle_beta                       95.36362
_cell_angle_gamma                      90
_symmetry_space_group_name_H-M         P 1
_symmetry_Int_Tables_number            1

loop_
_symmetry_equiv_pos_as_xyz
   x, y, z

loop_
   _atom_site_label
   _atom_site_fract_x
   _atom_site_fract_y
   _atom_site_fract_z
   _atom_site_charge
F	0.4033537966221152 0.3642675816257481 0.4983319171966533	-0.552886
F	0.5191753322256656 0.4838223547775006 0.7464648498865923	-0.531597
F	0.3953002376248917 0.5663436275620281 0.5123712710495626	-0.517359
F	0.9033538306221108 0.8642675126257459 0.4983319171966533	-0.552885
F	0.0191753582256609 0.9838223197775008 0.7464648498865923	-0.531597
F	0.8953002716248943 0.0663435935620331 0.5123712710495626	-0.517359
F	0.5966461663778854 0.3642675816257481 0.5016680828033468	-0.552885
F	0.4808246647743373 0.4838223547775006 0.2535351501134079	-0.531597
F	0.6046997583751083 0.5663436275620281 0.4876287299504412	-0.517359
F	0.0966461873778835 0.8642675126257459 0.5016680828033468	-0.552886
F	0.9808245297743372 0.9838223197775008 0.2535351501134079	-0.531597
F	0.1046997333751095 0.0663435935620331 0.4876287299504412	-0.517359
C	0.6827874190206754 0.1524958083020185 0.6658345355079561	-0.425556
C	0.7561326010912855 0.1494593548233382 0.8072057324887270	0.212028
C	0.7608507088962471 0.1967883721926749 0.9568056419557832	-0.152311
C	0.6892955061286490 0.2616156182867723 0.0150547400521109	-0.141461
C	0.6736416431124641 0.3605654639764917 0.9732442120420078	0.220628
C	0.7312728268878896 0.4227509867842000 0.8718778447441070	-0.428234
C	0.8927875020458325 0.2061071366468258 0.1978588058997651	-0.435019
C	0.8502587812724409 0.1699809118939074 0.0383366844425089	0.219615
C	0.6221119085315648 0.2392609542705291 0.1242825559307511	0.212624
C	0.6011174285414504 0.1479983406928449 0.2103072527056204	-0.425200
C	0.1827874690206724 0.6524958603020153 0.6658345355079561	-0.425557
C	0.2561326350912880 0.6494593378233325 0.8072057324887270	0.212027
C	0.2608506748962446 0.6967883381926724 0.9568056419557832	-0.152308
C	0.1892955061286491 0.7616156352867699 0.0150547400521109	-0.141463
C	0.1736416261124590 0.8605654979764946 0.9732442120420078	0.220627
C	0.2312728428878839 0.9227509517842005 0.8718778447441070	-0.428234
C	0.3927874010458274 0.7061070506468260 0.1978588058997651	-0.435013
C	0.3502588492724394 0.6699809118939074 0.0383366844425089	0.219623
C	0.1221118835315662 0.7392608682705289 0.1242825559307511	0.212632
C	0.1011175125414500 0.6479984096928471 0.2103072527056204	-0.425151
C	0.3172125779793278 0.1524958083020185 0.3341654654920471	-0.425556
C	0.2438673919087106 0.1494593548233382 0.1927941875112738	0.212027
C	0.2391493201037516 0.1967883721926749 0.0431943340442215	-0.152308
C	0.3107044898713505 0.2616156182867723 0.9849452509478918	-0.141463
C	0.3263584228875419 0.3605654639764917 0.0267558389579927	0.220627
C	0.2687271881121150 0.4227509867842000 0.1281221712558945	-0.428234
C	0.1072125809541709 0.2061071366468258 0.8021412421002387	-0.435014
C	0.1497411977275611 0.1699809118939074 0.9616633035574899	0.219624
C	0.3778881224684343 0.2392609542705291 0.8757174680692439	0.212632
C	0.3988824974585509 0.1479983406928449 0.7896926682943836	-0.425148
C	0.8172125779793279 0.6524958603020153 0.3341654654920471	-0.425556
C	0.7438673919087103 0.6494593378233325 0.1927941875112738	0.212028
C	0.7391492861037561 0.6967883381926724 0.0431943340442215	-0.152311
C	0.8107044898713507 0.7616156352867699 0.9849452509478918	-0.141461
C	0.8263583558875394 0.8605654979764946 0.0267558389579927	0.220627
C	0.7687271711121102 0.9227509517842005 0.1281221712558945	-0.428234
C	0.6072124969541710 0.7061070506468260 0.8021412421002387	-0.435020
C	0.6497412147275587 0.6699809118939074 0.9616633035574899	0.219615
C	0.8778880884684314 0.7392608682705289 0.8757174680692439	0.212624
C	0.8988825644585525 0.6479984096928471 0.7896926682943836	-0.425197
H	0.7152616150896888 0.1728156596796556 0.5553851795606354	0.153796
H	0.6278740826009200 0.2067392192192632 0.6853337983583975	0.139467
H	0.6481073024361953 0.0814170220599016 0.6437944647772127	0.133775
H	0.6858476948162684 0.4669507210253227 0.7860896400599677	0.141760
H	0.7779452046531894 0.3773283327949331 0.8043188454307110	0.141154
H	0.7768312151751396 0.4722390139900624 0.9495967178740348	0.129461
H	0.8629814770961428 0.0660136367425006 0.7070807889327004	0.275350
H	0.8966877242067337 0.1498691964503363 0.2913983655871992	0.146719
H	0.8487438504986610 0.2658826076340547 0.2373526476242133	0.135634
H	0.9658308475567053 0.2329079429313608 0.1885975411600620	0.141187
H	0.5777026888834654 0.1640849057620202 0.3298632223451206	0.147583
H	0.6648999050785872 0.1016521169526812 0.2255809077922474	0.153044
H	0.5435838675856920 0.1062608030187247 0.1425435298850122	0.132041
H	0.5186170051562619 0.3341846506731211 0.2131738645979598	0.270456
H	0.2152616660896889 0.6728155566796576 0.5553851795606354	0.153795
H	0.1278741666009201 0.7067391502192611 0.6853337983583975	0.139467
H	0.1481073524361919 0.5814169620598968 0.6437944647772127	0.133775
H	0.1858477118162664 0.9669506530253167 0.7860896400599677	0.141760
H	0.2779452386531924 0.8773283667949361 0.8043188454307110	0.141154
H	0.2768312481751387 0.9722390139900615 0.9495967178740348	0.129460
H	0.3629814430961475 0.5660136797425006 0.7070807889327004	0.275350
H	0.3966877912067361 0.6498691624503337 0.2913983655871992	0.146711
H	0.3487437824986627 0.7658826426340545 0.2373526476242133	0.135640
H	0.4658309145567004 0.7329079939313542 0.1885975411600620	0.141175
H	0.0777026808834649 0.6640849227620177 0.3298632223451206	0.147576
H	0.1648998710785843 0.6016520739526815 0.2255809077922474	0.153056
H	0.0435839035856950 0.6062607510187275 0.1425435298850122	0.131985
H	0.0186169901562644 0.8341846506731212 0.2131738645979598	0.270456
H	0.2847383159103169 0.1728156596796556 0.4446148524393602	0.153795
H	0.3721258163990749 0.2067392192192632 0.3146662666416045	0.139464
H	0.3518926265638100 0.0814170220599016 0.3562055352227877	0.133777
H	0.3141523001837348 0.4669507210253227 0.2139103279400364	0.141759
H	0.2220547903468064 0.3773283327949331 0.1956811225692865	0.141156
H	0.2231687808248673 0.4722390139900624 0.0504032551259668	0.129459
H	0.1370185239038533 0.0660136367425006 0.2929191160672949	0.275350
H	0.1033121987932630 0.1498691964503363 0.7086016664128035	0.146711
H	0.1512562135013371 0.2658826076340547 0.7626473523757864	0.135643
H	0.0341690814432992 0.2329079429313608 0.8114024908399334	0.141177
H	0.4222973411165369 0.1640849057620202 0.6701367776548792	0.147572
H	0.3351001569214182 0.1016521169526812 0.7744190442077491	0.153055
H	0.4564160974143091 0.1062608030187247 0.8574565101149909	0.131980
H	0.4813829558437385 0.3341846506731211 0.7868260884020400	0.270455
H	0.7847383829103111 0.6728155566796576 0.4446148524393602	0.153795
H	0.8721259173990800 0.7067391502192611 0.3146662666416045	0.139463
H	0.8518926265638095 0.5814169620598968 0.3562055352227877	0.133778
H	0.8141523001837347 0.9669506530253167 0.2139103279400364	0.141759
H	0.7220547903468066 0.8773283667949361 0.1956811225692865	0.141156
H	0.7231687808248671 0.9722390139900615 0.0504032551259668	0.129458
H	0.6370185149038565 0.5660136797425006 0.2929191160672949	0.275349
H	0.6033123077932618 0.6498691624503337 0.7086016664128035	0.146719
H	0.6512561465013352 0.7658826426340545 0.7626473523757864	0.135636
H	0.5341691174432953 0.7329079939313542 0.8114024908399334	0.141191
H	0.9222972741165351 0.6640849227620177 0.6701367776548792	0.147579
H	0.8351000899214159 0.6016520739526815 0.7744190442077491	0.153043
H	0.9564160974143087 0.6062607510187275 0.8574565101149909	0.132036
H	0.9813829218437428 0.8341846506731212 0.7868260884020400	0.270454
N	0.8371524351765011 0.0967618777182722 0.8073310231931936	-0.149805
N	0.6002871726526599 0.3954673070687073 0.0497411057225193	-0.261670
N	0.8956818507955138 0.1083169008007790 0.9455309907766570	-0.259832
N	0.5714636625195306 0.3212404209847702 0.1402025685762913	-0.146675
N	0.3371524351765011 0.5967618007182766 0.8073310231931936	-0.149805
N	0.1002872396526622 0.8954673070687065 0.0497411057225193	-0.261669
N	0.3956818847955162 0.6083169518007795 0.9455309907766570	-0.259834
N	0.0714636545195305 0.8212403859847710 0.1402025685762913	-0.146679
N	0.1628475468234974 0.0967618777182722 0.1926690248068032	-0.149804
N	0.3997127213473383 0.3954673070687073 0.9502588702774787	-0.261669
N	0.1043181192044842 0.1083169008007790 0.0544689892233414	-0.259834
N	0.4285363344804721 0.3212404209847702 0.8597974474237099	-0.146678
N	0.6628475638234953 0.5967618007182766 0.1926690248068032	-0.149805
N	0.8997128223473433 0.8954673070687065 0.9502588702774787	-0.261669
N	0.6043181442044894 0.6083169518007795 0.0544689892233414	-0.259831
N	0.9285363684804684 0.8212403859847710 0.8597974474237099	-0.146674
Sn	0.4999999979999998 0.4691108365931010 0.5000000000000000	1.838739
Sn	-0.0000000000000000 0.9691108365931009 0.5000000000000000	1.838739
Ni	0.5000000000000000 0.5064316417242123 -0.0000000000000000	0.803832
Ni	-0.0000000000000000 0.0064316487242167 -0.0000000000000000	0.803832
	  	
