#======================================================================

# CRYSTAL DATA

#----------------------------------------------------------------------

data_VESTA_phase_1


_pd_phase_name                         SnFSIX_18_Co
_cell_length_a                         14.20378
_cell_length_b                         13.77254
_cell_length_c                         8.34131
_cell_angle_alpha                      90
_cell_angle_beta                       95.27773
_cell_angle_gamma                      90
_symmetry_space_group_name_H-M         P 1
_symmetry_Int_Tables_number            1

loop_
_symmetry_equiv_pos_as_xyz
   x, y, z

loop_
   _atom_site_label
   _atom_site_fract_x
   _atom_site_fract_y
   _atom_site_fract_z
   _atom_site_charge
F	0.4044008290945508 0.3632468272207722 0.5028265705548780	-0.554734
F	0.5202192390456535 0.4805475510752340 0.7455551851801069	-0.537492
F	0.3973263286633574 0.5658626711050024 0.5126281549154145	-0.519848
F	0.9044008630945463 0.8632467582207705 0.5028265705548780	-0.554734
F	0.0202192650456488 0.9805475160752345 0.7455551851801069	-0.537492
F	0.8973263626633599 0.0658626371050065 0.5126281549154145	-0.519848
F	0.5955991339054499 0.3632468272207722 0.4971734294451218	-0.554734
F	0.4797807579543496 0.4805475510752340 0.2544448148198935	-0.537492
F	0.6026736673366426 0.5658626711050024 0.4873718460845891	-0.519848
F	0.0955991549054481 0.8632467582207705 0.4971734294451218	-0.554734
F	0.9797806229543493 0.9805475160752345 0.2544448148198934	-0.537492
F	0.1026736423366439 0.0658626371050065 0.4873718460845891	-0.519848
C	0.6819462384174623 0.1528548266091889 0.6659193954380030	-0.425221
C	0.7552621490005597 0.1499729593610691 0.8050815980116099	0.212797
C	0.7599475919887109 0.1966160426985912 0.9548176297442373	-0.149908
C	0.6891703139378916 0.2610989356680037 0.0137174628815505	-0.145035
C	0.6743669509122131 0.3603802175803639 0.9733169125381852	0.223182
C	0.7314462832610378 0.4225872165562243 0.8724616418134871	-0.427204
C	0.8904239621558118 0.2056624053132890 0.1943184402153869	-0.436516
C	0.8489058645729874 0.1711515416810150 0.0340960822319659	0.221749
C	0.6224388723610446 0.2388742021601501 0.1221467221984402	0.212615
C	0.6015076090707496 0.1477451746906948 0.2081748571242102	-0.425471
C	0.1819462884174594 0.6528548786091862 0.6659193954380030	-0.425221
C	0.2552621830005626 0.6499729423610635 0.8050815980116099	0.212797
C	0.2599475579887078 0.6966160086985889 0.9548176297442373	-0.149908
C	0.1891703139378919 0.7610989526680011 0.0137174628815505	-0.145035
C	0.1743669339122082 0.8603802515803667 0.9733169125381852	0.223182
C	0.2314462992610326 0.9225871815562248 0.8724616418134871	-0.427204
C	0.3904238611558067 0.7056623193132892 0.1943184402153869	-0.436516
C	0.3489059325729862 0.6711515416810149 0.0340960822319659	0.221749
C	0.1224388473610463 0.7388741161601502 0.1221467221984402	0.212615
C	0.1015076930707497 0.6477452436906971 0.2081748571242102	-0.425471
C	0.3180537585825408 0.1528548266091889 0.3340806055620006	-0.425221
C	0.2447378439994363 0.1499729593610691 0.1949183219883908	0.212797
C	0.2400524370112882 0.1966160426985912 0.0451823462557682	-0.149908
C	0.3108296820621078 0.2610989356680037 0.9862825281184526	-0.145035
C	0.3256331150877924 0.3603802175803639 0.0266831384618154	0.223182
C	0.2685537317389665 0.4225872165562243 0.1275383741865143	-0.427203
C	0.1095761208441917 0.2056624053132890 0.8056816077846174	-0.436515
C	0.1510941144270141 0.1711515416810150 0.9659039057680326	0.221749
C	0.3775611586389541 0.2388742021601501 0.8778533018015551	0.212615
C	0.3984923169292511 0.1477451746906948 0.7918250638757938	-0.425471
C	0.8180537585825410 0.6528548786091862 0.3340806055620006	-0.425220
C	0.7447378439994362 0.6499729423610635 0.1949183219883908	0.212797
C	0.7400524030112923 0.6966160086985889 0.0451823462557682	-0.149908
C	0.8108296820621080 0.7610989526680011 0.9862825281184526	-0.145035
C	0.8256330480877904 0.8603802515803667 0.0266831384618154	0.223182
C	0.7685537147389621 0.9225871815562248 0.1275383741865143	-0.427203
C	0.6095760368441917 0.7056623193132892 0.8056816077846174	-0.436515
C	0.6510941314270122 0.6711515416810149 0.9659039057680328	0.221749
C	0.8775611246389516 0.7388741161601502 0.8778533018015551	0.212615
C	0.8984923839292533 0.6477452436906971 0.7918250638757938	-0.425471
H	0.7129643050025561 0.1731195414020634 0.5547928886036376	0.153663
H	0.6281321499270579 0.2071563727362890 0.6872490427425082	0.140499
H	0.6474610981554195 0.0817844691379846 0.6450157871251039	0.133688
H	0.6864563735573881 0.4663122123144011 0.7866682679662422	0.141275
H	0.7778355624394392 0.3771795585001285 0.8057292988234419	0.140473
H	0.7761430237448346 0.4723157413496100 0.9496359540442146	0.128945
H	0.8615223514674792 0.0686590298127382 0.7023856593385780	0.276209
H	0.8933492175097710 0.1484435869170135 0.2861313711219911	0.146419
H	0.8472392905827558 0.2653881777704078 0.2347761285098547	0.137743
H	0.9628921313089027 0.2319603479253421 0.1870985329994813	0.140870
H	0.5786269171357374 0.1640122822387444 0.3275329331410051	0.147493
H	0.6644231948105721 0.1012981771698086 0.2229947284393125	0.151902
H	0.5445981353185881 0.1059683825617228 0.1410948799528121	0.131705
H	0.5218307405865714 0.3344140187470514 0.2131068697662704	0.269170
H	0.2129643560025569 0.6731194384020659 0.5547928886036376	0.153662
H	0.1281322339270578 0.7071563037362871 0.6872490427425082	0.140499
H	0.1474611481554159 0.5817844091379797 0.6450157871251039	0.133688
H	0.1864563905573857 0.9663121443143953 0.7866682679662422	0.141275
H	0.2778355964394417 0.8771795925001318 0.8057292988234419	0.140473
H	0.2761430567448335 0.9723157413496102 0.9496359540442146	0.128945
H	0.3615223174674835 0.5686590728127383 0.7023856593385780	0.276209
H	0.3933492845097734 0.6484435529170099 0.2861313711219911	0.146419
H	0.3472392225827570 0.7653882127704073 0.2347761285098547	0.137743
H	0.4628921983088979 0.7319603989253359 0.1870985329994813	0.140870
H	0.0786269091357366 0.6640122992387423 0.3275329331410051	0.147493
H	0.1644231608105692 0.6012981341698086 0.2229947284393125	0.151902
H	0.0445981713185915 0.6059683305617254 0.1410948799528121	0.131705
H	0.0218307255865737 0.8344140187470511 0.2131068697662704	0.269170
H	0.2870356259974486 0.1731195414020634 0.4452071433963581	0.153662
H	0.3718677490729368 0.2071563727362890 0.3127510222574933	0.140499
H	0.3525388308445859 0.0817844691379846 0.3549842128748963	0.133685
H	0.3135436214426153 0.4663122123144011 0.2133317000337629	0.141275
H	0.2221644325605572 0.3771795585001285 0.1942706691765549	0.140472
H	0.2238569722551721 0.4723157413496100 0.0503640189557869	0.128944
H	0.1384776495325175 0.0686590298127382 0.2976142456614175	0.276209
H	0.1066507054902258 0.1484435869170135 0.7138686608780114	0.146419
H	0.1527607734172425 0.2653881777704078 0.7652238714901454	0.137742
H	0.0371077976911018 0.2319603479253421 0.8129014990005141	0.140868
H	0.4213731128642653 0.1640122822387444 0.6724670668589949	0.147493
H	0.3355768671894331 0.1012981771698086 0.7770052235606839	0.151901
H	0.4554018296814122 0.1059683825617228 0.8589051600471912	0.131704
H	0.4781692204134288 0.3344140187470514 0.7868930832337292	0.269170
H	0.7870356929974437 0.6731194384020659 0.4452071433963581	0.153662
H	0.8718678500729420 0.7071563037362871 0.3127510222574933	0.140499
H	0.8525388308445853 0.5817844091379797 0.3549842128748963	0.133686
H	0.8135436214426151 0.9663121443143953 0.2133317000337629	0.141275
H	0.7221644325605568 0.8771795925001318 0.1942706691765549	0.140472
H	0.7238569722551722 0.9723157413496102 0.0503640189557869	0.128944
H	0.6384776405325201 0.5686590728127383 0.2976142456614175	0.276209
H	0.6066508144902245 0.6484435529170099 0.7138686608780114	0.146418
H	0.6527607064172404 0.7653882127704073 0.7652238714901454	0.137742
H	0.5371078336910979 0.7319603989253359 0.8129014990005141	0.140868
H	0.9213730458642631 0.6640122992387423 0.6724670668589949	0.147493
H	0.8355768001894310 0.6012981341698086 0.7770052235606839	0.151902
H	0.9554018296814125 0.6059683305617254 0.8589051600471912	0.131704
H	0.9781691864134332 0.8344140187470511 0.7868930832337292	0.269170
N	0.8360892441430302 0.0988918486918827 0.8029170912832843	-0.145647
N	0.6020748941136527 0.3955965381105236 0.0496048061465970	-0.276199
N	0.8944723978175009 0.1110210214069361 0.9397757224608450	-0.281824
N	0.5728726672610478 0.3210472651215043 0.1384139789659569	-0.143194
N	0.3360892441430303 0.5988917716918869 0.8029170912832843	-0.145647
N	0.1020749611136550 0.8955965381105238 0.0496048061465970	-0.276199
N	0.3944724318175040 0.6110210724069370 0.9397757224608450	-0.281824
N	0.0728726592610471 0.8210472301215049 0.1384139789659569	-0.143193
N	0.1639107378569683 0.0988918486918827 0.1970829567167122	-0.145647
N	0.3979249998863453 0.3955965381105236 0.9503951698534008	-0.276199
N	0.1055275721824964 0.1110210214069361 0.0602242575391537	-0.281824
N	0.4271273297389557 0.3210472651215043 0.8615860370340443	-0.143194
N	0.6639107548569662 0.5988917716918869 0.1970829567167122	-0.145647
N	0.8979251008863505 0.8955965381105238 0.9503951698534008	-0.276199
N	0.6055275971825023 0.6110210724069370 0.0602242575391537	-0.281823
N	0.9271273637389512 0.8210472301215049 0.8615860370340443	-0.143193
Sn	0.4999999979999998 0.4675905400767280 0.5000000000000000	1.842189
Sn	0.0000000000000000 0.9675905400767285 0.5000000000000000	1.842189
Co	0.5000000000000000 0.5087913456557769 0.0000000000000000	0.873614
Co	0.0000000000000000 0.0087913526557805 0.0000000000000000	0.873614
	  	
