#======================================================================

# CRYSTAL DATA

#----------------------------------------------------------------------

data_VESTA_phase_1


_pd_phase_name                         SnFSIX_6_Fe_i
_cell_length_a                         17.88405
_cell_length_b                         17.88405
_cell_length_c                         15.94436
_cell_angle_alpha                      90
_cell_angle_beta                       90
_cell_angle_gamma                      90
_symmetry_space_group_name_H-M         P 1
_symmetry_Int_Tables_number            1

loop_
_symmetry_equiv_pos_as_xyz
   x, y, z

loop_
   _atom_site_label
   _atom_site_fract_x
   _atom_site_fract_y
   _atom_site_fract_z
   _atom_site_charge
N	0.2439234161792035 0.1282173901525656 0.1281150484131542	-0.253402
N	0.2560765838207965 0.3717826238474356 0.1281150484131542	-0.253403
N	0.3717826238474356 0.2439234161792035 0.1281150484131542	-0.253402
N	0.1282173901525656 0.2560765838207965 0.1281150484131542	-0.253403
N	0.7560765568207980 0.6282174031525702 0.3718849365868479	-0.253402
N	0.7439234431792020 0.8717825968474298 0.3718849365868479	-0.253401
N	0.6282174031525702 0.7439234431792020 0.3718849365868479	-0.253401
N	0.8717825968474298 0.7560765568207980 0.3718849365868479	-0.253401
N	0.7560765568207980 0.8717825968474298 0.8718849365868480	-0.253401
N	0.7439234431792020 0.6282174031525702 0.8718849365868480	-0.253403
N	0.6282174031525702 0.7560765568207980 0.8718849365868480	-0.253402
N	0.8717825968474298 0.7439234431792020 0.8718849365868480	-0.253402
N	0.2439234161792035 0.3717826238474356 0.6281150634131520	-0.253402
N	0.2560765838207965 0.1282173901525656 0.6281150634131520	-0.253404
N	0.3717826238474356 0.2560765838207965 0.6281150634131520	-0.253404
N	0.1282173901525656 0.2439234161792035 0.6281150634131520	-0.253402
C	0.2010418313850979 0.0920033665701834 0.1844549543724762	0.103142
C	0.1930742489836127 0.0147548110474058 0.1842300331395942	-0.179142
C	0.2325250555848918 0.9720231048860306 0.1251590793068608	0.109821
C	0.2779243662345984 0.0102938842343979 0.0676640297365773	-0.178822
C	0.2813447263605849 0.0878521180556865 0.0704668424833773	0.105804
C	0.2267380995793271 0.8898860490606613 0.1239043105612624	0.062025
C	0.2906590565800400 0.8462296319070662 0.1209623537638725	-0.174046
C	0.2861809343329808 0.7673591298442746 0.1220649737365660	0.085774
C	0.1489724774855236 0.7783662923206400 0.1246053363382503	-0.124078
C	0.1553006721645348 0.8549802941110345 0.1268153218343805	-0.135585
C	0.2989581286149058 0.4079966464298140 0.1844549543724762	0.103157
C	0.3069257110163842 0.4852451699525962 0.1842300331395942	-0.179184
C	0.2674749444151082 0.5279768951139694 0.1251590793068608	0.109836
C	0.2220756467653993 0.4897061127655982 0.0676640297365773	-0.178823
C	0.2186552876394161 0.4121478889443176 0.0704668424833773	0.105803
C	0.2732619004206728 0.6101139509393387 0.1239043105612624	0.062023
C	0.2093409844199599 0.6537703680929338 0.1209623537638725	-0.174044
C	0.2138190386670205 0.7326408701557254 0.1220649737365660	0.085770
C	0.3510275085144753 0.7216337076793600 0.1246053363382503	-0.124082
C	0.3446993278354652 0.6450197058889655 0.1268153218343805	-0.135584
C	0.4079966464298140 0.2010418313850979 0.1844549543724762	0.103142
C	0.4852451699525962 0.1930742489836127 0.1842300331395942	-0.179142
C	0.5279768951139694 0.2325250555848918 0.1251590793068608	0.109821
C	0.4897061127655982 0.2779243662345984 0.0676640297365773	-0.178821
C	0.4121478889443176 0.2813447263605849 0.0704668424833773	0.105803
C	0.6101139509393387 0.2267380995793271 0.1239043105612624	0.062026
C	0.6537703680929338 0.2906590565800400 0.1209623537638725	-0.174044
C	0.7326408701557254 0.2861809343329808 0.1220649737365660	0.085774
C	0.7216337076793600 0.1489724774855236 0.1246053363382503	-0.124078
C	0.6450197058889655 0.1553006721645348 0.1268153218343805	-0.135584
C	0.0920033665701834 0.2989581286149058 0.1844549543724762	0.103157
C	0.0147548110474058 0.3069257110163842 0.1842300331395942	-0.179184
C	0.9720231048860306 0.2674749444151082 0.1251590793068608	0.109836
C	0.0102938842343979 0.2220756467653993 0.0676640297365773	-0.178824
C	0.0878521180556865 0.2186552876394161 0.0704668424833773	0.105805
C	0.8898860490606613 0.2732619004206728 0.1239043105612624	0.062023
C	0.8462296319070662 0.2093409844199599 0.1209623537638725	-0.174045
C	0.7673591298442746 0.2138190386670205 0.1220649737365660	0.085770
C	0.7783662923206400 0.3510275085144753 0.1246053363382503	-0.124082
C	0.8549802941110345 0.3446993278354652 0.1268153218343805	-0.135585
C	0.7989581816148996 0.5920033535701859 0.3155450616275250	0.103143
C	0.8069257640163850 0.5147547760473992 0.3157699358604069	-0.179142
C	0.7674749444151083 0.4720231048860302 0.3748408886931364	0.109821
C	0.7220756067654031 0.5102939412343991 0.4323359742634231	-0.178823
C	0.7186552476394131 0.5878521650556868 0.4295331975166189	0.105803
C	0.7732619804206722 0.3898861020606619 0.3760956814387370	0.062025
C	0.7093409704199587 0.3462295789070659 0.3790376382361270	-0.174044
C	0.7138190656670190 0.2673590498442751 0.3779350262634339	0.085773
C	0.8510275355144810 0.2783662653206415 0.3753946476617485	-0.124079
C	0.8446992748354645 0.3549802681110318 0.3731847101656223	-0.135587
C	0.7010418183851004 0.9079966464298141 0.3155450616275250	0.103141
C	0.6930742359836150 0.9852451699525964 0.3157699358604069	-0.179142
C	0.7325250555848917 0.0279769011139702 0.3748408886931364	0.109822
C	0.7779243932345969 0.9897061127655983 0.4323359742634231	-0.178822
C	0.7813447523605869 0.9121479419443185 0.4295331975166189	0.105803
C	0.7267380195793278 0.1101139249393368 0.3760956814387370	0.062025
C	0.7906590295800413 0.1537704080929296 0.3790376382361270	-0.174044
C	0.7861809343329810 0.2326409231557263 0.3779350262634339	0.085769
C	0.6489724644855190 0.2216337216793609 0.3753946476617485	-0.124082
C	0.6553007251645355 0.1450197058889658 0.3731847101656223	-0.135584
C	0.5920033535701859 0.7010418183851004 0.3155450616275250	0.103143
C	0.5147547760473992 0.6930742359836150 0.3157699358604069	-0.179143
C	0.4720231048860302 0.7325250555848917 0.3748408886931364	0.109822
C	0.5102939412343991 0.7779243932345969 0.4323359742634231	-0.178822
C	0.5878521650556868 0.7813447523605869 0.4295331975166189	0.105803
C	0.3898861020606619 0.7267380195793278 0.3760956814387370	0.062024
C	0.3462295789070659 0.7906590295800413 0.3790376382361270	-0.174045
C	0.2673590498442751 0.7861809343329810 0.3779350262634339	0.085773
C	0.2783662653206415 0.6489724644855190 0.3753946476617485	-0.124079
C	0.3549802681110318 0.6553007251645355 0.3731847101656223	-0.135586
C	0.9079966464298141 0.7989581816148996 0.3155450616275250	0.103141
C	0.9852451699525964 0.8069257640163850 0.3157699358604069	-0.179141
C	0.0279769011139702 0.7674749444151083 0.3748408886931364	0.109821
C	0.9897061127655983 0.7220756067654031 0.4323359742634231	-0.178823
C	0.9121479419443185 0.7186552476394131 0.4295331975166189	0.105803
C	0.1101139249393368 0.7732619804206722 0.3760956814387370	0.062025
C	0.1537704080929296 0.7093409704199587 0.3790376382361270	-0.174044
C	0.2326409231557263 0.7138190656670190 0.3779350262634339	0.085770
C	0.2216337216793609 0.8510275355144810 0.3753946476617485	-0.124082
C	0.1450197058889658 0.8446992748354645 0.3731847101656223	-0.135584
C	0.7989581816148996 0.9079966464298141 0.8155450296275225	0.103141
C	0.8069257640163850 0.9852451699525964 0.8157699988604086	-0.179141
C	0.7674749444151083 0.0279769011139702 0.8748409526931346	0.109822
C	0.7220756067654031 0.9897061127655983 0.9323359432634239	-0.178823
C	0.7186552476394131 0.9121479419443185 0.9295331655166165	0.105802
C	0.7732619804206722 0.1101139249393368 0.8760956814387371	0.062025
C	0.7093409704199587 0.1537704080929296 0.8790376702361297	-0.174044
C	0.7138190656670190 0.2326409231557263 0.8779350582634297	0.085773
C	0.8510275355144810 0.2216337216793609 0.8753947106617502	-0.124080
C	0.8446992748354645 0.1450197058889658 0.8731847421656175	-0.135585
C	0.7010418183851004 0.5920033535701859 0.8155450296275225	0.103143
C	0.6930742359836150 0.5147547760473992 0.8157699988604086	-0.179142
C	0.7325250555848917 0.4720231048860302 0.8748409526931346	0.109820
C	0.7779243932345969 0.5102939412343991 0.9323359432634239	-0.178822
C	0.7813447523605869 0.5878521650556868 0.9295331655166165	0.105804
C	0.7267380195793278 0.3898861020606619 0.8760956814387371	0.062025
C	0.7906590295800413 0.3462295789070659 0.8790376702361297	-0.174045
C	0.7861809343329810 0.2673590498442751 0.8779350582634297	0.085770
C	0.6489724644855190 0.2783662653206415 0.8753947106617502	-0.124081
C	0.6553007251645355 0.3549802681110318 0.8731847421656175	-0.135586
C	0.5920033535701859 0.7989581816148996 0.8155450296275225	0.103142
C	0.5147547760473992 0.8069257640163850 0.8157699988604086	-0.179141
C	0.4720231048860302 0.7674749444151083 0.8748409526931346	0.109821
C	0.5102939412343991 0.7220756067654031 0.9323359432634239	-0.178823
C	0.5878521650556868 0.7186552476394131 0.9295331655166165	0.105803
C	0.3898861020606619 0.7732619804206722 0.8760956814387371	0.062025
C	0.3462295789070659 0.7093409704199587 0.8790376702361297	-0.174045
C	0.2673590498442751 0.7138190656670190 0.8779350582634297	0.085773
C	0.2783662653206415 0.8510275355144810 0.8753947106617502	-0.124080
C	0.3549802681110318 0.8446992748354645 0.8731847421656175	-0.135586
C	0.9079966464298141 0.7010418183851004 0.8155450296275225	0.103142
C	0.9852451699525964 0.6930742359836150 0.8157699988604086	-0.179142
C	0.0279769011139702 0.7325250555848917 0.8748409526931346	0.109820
C	0.9897061127655983 0.7779243932345969 0.9323359432634239	-0.178821
C	0.9121479419443185 0.7813447523605869 0.9295331655166165	0.105803
C	0.1101139249393368 0.7267380195793278 0.8760956814387371	0.062025
C	0.1537704080929296 0.7906590295800413 0.8790376702361297	-0.174044
C	0.2326409231557263 0.7861809343329810 0.8779350582634297	0.085770
C	0.2216337216793609 0.6489724644855190 0.8753947106617502	-0.124081
C	0.1450197058889658 0.6553007251645355 0.8731847421656175	-0.135584
C	0.2010418313850979 0.4079966464298140 0.6844549703724775	0.103140
C	0.1930742489836127 0.4852451699525962 0.6842300011395914	-0.179142
C	0.2325250555848918 0.5279768951139694 0.6251590473068654	0.109822
C	0.2779243662345984 0.4897061127655982 0.5676640567365761	-0.178821
C	0.2813447263605849 0.4121478889443176 0.5704668344833835	0.105803
C	0.2267380995793271 0.6101139509393387 0.6239043185612629	0.062025
C	0.2906590565800400 0.6537703680929338 0.6209623297638703	-0.174046
C	0.2861809343329808 0.7326408701557254 0.6220649417365703	0.085773
C	0.1489724774855236 0.7216337076793600 0.6246052893382498	-0.124080
C	0.1553006721645348 0.6450197058889655 0.6268152578343825	-0.135584
C	0.2989581286149058 0.0920033665701834 0.6844549703724775	0.103159
C	0.3069257110163842 0.0147548110474058 0.6842300011395914	-0.179184
C	0.2674749444151082 0.9720231048860306 0.6251590473068654	0.109834
C	0.2220756467653993 0.0102938842343979 0.5676640567365761	-0.178824
C	0.2186552876394161 0.0878521180556865 0.5704668344833835	0.105805
C	0.2732619004206728 0.8898860490606613 0.6239043185612629	0.062023
C	0.2093409844199599 0.8462296319070662 0.6209623297638703	-0.174045
C	0.2138190386670205 0.7673591298442746 0.6220649417365703	0.085770
C	0.3510275085144753 0.7783662923206400 0.6246052893382498	-0.124082
C	0.3446993278354652 0.8549802941110345 0.6268152578343825	-0.135586
C	0.4079966464298140 0.2989581286149058 0.6844549703724775	0.103157
C	0.4852451699525962 0.3069257110163842 0.6842300011395914	-0.179183
C	0.5279768951139694 0.2674749444151082 0.6251590473068654	0.109834
C	0.4897061127655982 0.2220756467653993 0.5676640567365761	-0.178823
C	0.4121478889443176 0.2186552876394161 0.5704668344833835	0.105804
C	0.6101139509393387 0.2732619004206728 0.6239043185612629	0.062024
C	0.6537703680929338 0.2093409844199599 0.6209623297638703	-0.174045
C	0.7326408701557254 0.2138190386670205 0.6220649417365703	0.085773
C	0.7216337076793600 0.3510275085144753 0.6246052893382498	-0.124080
C	0.6450197058889655 0.3446993278354652 0.6268152578343825	-0.135585
C	0.0920033665701834 0.2010418313850979 0.6844549703724775	0.103142
C	0.0147548110474058 0.1930742489836127 0.6842300011395914	-0.179143
C	0.9720231048860306 0.2325250555848918 0.6251590473068654	0.109822
C	0.0102938842343979 0.2779243662345984 0.5676640567365761	-0.178822
C	0.0878521180556865 0.2813447263605849 0.5704668344833835	0.105803
C	0.8898860490606613 0.2267380995793271 0.6239043185612629	0.062024
C	0.8462296319070662 0.2906590565800400 0.6209623297638703	-0.174046
C	0.7673591298442746 0.2861809343329808 0.6220649417365703	0.085770
C	0.7783662923206400 0.1489724774855236 0.6246052893382498	-0.124082
C	0.8549802941110345 0.1553006721645348 0.6268152578343825	-0.135586
H	0.1731025548056034 0.1263199749468580 0.2316006119731210	0.096049
H	0.1578415155860849 0.9878927992903456 0.2312286110861774	0.114322
H	0.3089006159148872 0.9798663990543087 0.0196246320151483	0.115464
H	0.3141532962051241 0.1191571885829177 0.0246445894052780	0.095112
H	0.3456846515281277 0.8727609260477710 0.1202985772353414	0.108355
H	0.0939952937228565 0.7518533132718395 0.1252648801633453	0.109387
H	0.1054301624745038 0.8901513151884589 0.1288736875597957	0.100190
H	0.3268974181943979 0.3736800520531477 0.2316006119731210	0.096047
H	0.3421585244139114 0.5121072007096544 0.2312286110861774	0.114341
H	0.1910993970851104 0.5201336009456913 0.0196246320151483	0.115464
H	0.1858467037948759 0.3808428114170825 0.0246445894052780	0.095112
H	0.1543153624718734 0.6272390739522290 0.1202985772353414	0.108355
H	0.4060046992771394 0.7481466867281605 0.1252648801633453	0.109389
H	0.3945698505255010 0.6098486848115411 0.1288736875597957	0.100190
H	0.3736800520531477 0.1731025548056034 0.2316006119731210	0.096048
H	0.5121072007096544 0.1578415155860849 0.2312286110861774	0.114323
H	0.5201336009456913 0.3089006159148872 0.0196246320151483	0.115464
H	0.3808428114170825 0.3141532962051241 0.0246445894052780	0.095112
H	0.6272390739522290 0.3456846515281277 0.1202985772353414	0.108355
H	0.7481466867281605 0.0939952937228565 0.1252648801633453	0.109387
H	0.6098486848115411 0.1054301624745038 0.1288736875597957	0.100190
H	0.1263199749468580 0.3268974181943979 0.2316006119731210	0.096048
H	0.9878927992903456 0.3421585244139114 0.2312286110861774	0.114340
H	0.9798663990543087 0.1910993970851104 0.0196246320151483	0.115464
H	0.1191571885829177 0.1858467037948759 0.0246445894052780	0.095112
H	0.8727609260477710 0.1543153624718734 0.1202985772353414	0.108354
H	0.7518533132718395 0.4060046992771394 0.1252648801633453	0.109389
H	0.8901513151884589 0.3945698505255010 0.1288736875597957	0.100190
H	0.8268974181943979 0.6263200019468568 0.2683994040268805	0.096049
H	0.8421584434139153 0.4878928532903428 0.2687713889138225	0.114323
H	0.6910993840851130 0.4798663990543083 0.4803753699848516	0.115464
H	0.6858467567948767 0.6191572155829164 0.4753554085947220	0.095112
H	0.6543153484718723 0.3727608720477736 0.3797014307646592	0.108353
H	0.9060046462771386 0.2518533402718379 0.3747351118366541	0.109389
H	0.8945698235255023 0.3901513411884536 0.3711263204402050	0.100191
H	0.6731025818056021 0.8736799980531432 0.2683994040268805	0.096049
H	0.6578415565860847 0.0121071627096514 0.2687713889138225	0.114323
H	0.8089006159148870 0.0201335999456880 0.4803753699848516	0.115464
H	0.8141532432051233 0.8808427844170836 0.4753554085947220	0.095111
H	0.8456846515281277 0.1272391409522311 0.3797014307646592	0.108356
H	0.5939953007228606 0.2481466327281562 0.3747351118366541	0.109388
H	0.6054301764744977 0.1098486718115438 0.3711263204402050	0.100189
H	0.6263200019468568 0.6731025818056021 0.2683994040268805	0.096049
H	0.4878928532903428 0.6578415565860847 0.2687713889138225	0.114323
H	0.4798663990543083 0.8089006159148870 0.4803753699848516	0.115463
H	0.6191572155829164 0.8141532432051233 0.4753554085947220	0.095112
H	0.3727608720477736 0.8456846515281277 0.3797014307646592	0.108354
H	0.2518533402718379 0.5939953007228606 0.3747351118366541	0.109388
H	0.3901513411884536 0.6054301764744977 0.3711263204402050	0.100189
H	0.8736799980531432 0.8268974181943979 0.2683994040268805	0.096049
H	0.0121071627096514 0.8421584434139153 0.2687713889138225	0.114322
H	0.0201335999456880 0.6910993840851130 0.4803753699848516	0.115465
H	0.8808427844170836 0.6858467567948767 0.4753554085947220	0.095111
H	0.1272391409522311 0.6543153484718723 0.3797014307646592	0.108354
H	0.2481466327281562 0.9060046462771386 0.3747351118366541	0.109389
H	0.1098486718115438 0.8945698235255023 0.3711263204402050	0.100191
H	0.8268974181943979 0.8736799980531432 0.7683993730268813	0.096049
H	0.8421584434139153 0.0121071627096514 0.7687714039138275	0.114322
H	0.6910993840851130 0.0201335999456880 0.9803754009848512	0.115465
H	0.6858467567948767 0.8808427844170836 0.9753553445947237	0.095112
H	0.6543153484718723 0.1272391409522311 0.8797013987646566	0.108355
H	0.9060046462771386 0.2481466327281562 0.8747350488366524	0.109389
H	0.8945698235255023 0.1098486718115438 0.8711262884402022	0.100190
H	0.6731025818056021 0.6263200019468568 0.7683993730268813	0.096050
H	0.6578415565860847 0.4878928532903428 0.7687714039138275	0.114323
H	0.8089006159148870 0.4798663990543083 0.9803754009848512	0.115464
H	0.8141532432051233 0.6191572155829164 0.9753553445947237	0.095112
H	0.8456846515281277 0.3727608720477736 0.8797013987646566	0.108355
H	0.5939953007228606 0.2518533402718379 0.8747350488366524	0.109388
H	0.6054301764744977 0.3901513411884536 0.8711262884402022	0.100189
H	0.6263200019468568 0.8268974181943979 0.7683993730268813	0.096050
H	0.4878928532903428 0.8421584434139153 0.7687714039138275	0.114322
H	0.4798663990543083 0.6910993840851130 0.9803754009848512	0.115465
H	0.6191572155829164 0.6858467567948767 0.9753553445947237	0.095112
H	0.3727608720477736 0.6543153484718723 0.8797013987646566	0.108354
H	0.2518533402718379 0.9060046462771386 0.8747350488366524	0.109389
H	0.3901513411884536 0.8945698235255023 0.8711262884402022	0.100189
H	0.8736799980531432 0.6731025818056021 0.7683993730268813	0.096049
H	0.0121071627096514 0.6578415565860847 0.7687714039138275	0.114323
H	0.0201335999456880 0.8089006159148870 0.9803754009848512	0.115465
H	0.8808427844170836 0.8141532432051233 0.9753553445947237	0.095111
H	0.1272391409522311 0.8456846515281277 0.8797013987646566	0.108355
H	0.2481466327281562 0.5939953007228606 0.8747350488366524	0.109388
H	0.1098486718115438 0.6054301764744977 0.8711262884402022	0.100190
H	0.1731025548056034 0.3736800520531477 0.7316006269731187	0.096049
H	0.1578415155860849 0.5121072007096544 0.7312285960861725	0.114323
H	0.3089006159148872 0.5201336009456913 0.5196246300151478	0.115465
H	0.3141532962051241 0.3808428114170825 0.5246445914052781	0.095112
H	0.3456846515281277 0.6272390739522290 0.6202986012353434	0.108355
H	0.0939952937228565 0.7481466867281605 0.6252649511633476	0.109388
H	0.1054301624745038 0.6098486848115411 0.6288737115597978	0.100189
H	0.3268974181943979 0.1263199749468580 0.7316006269731187	0.096048
H	0.3421585244139114 0.9878927992903456 0.7312285960861725	0.114341
H	0.1910993970851104 0.9798663990543087 0.5196246300151478	0.115465
H	0.1858467037948759 0.1191571885829177 0.5246445914052781	0.095112
H	0.1543153624718734 0.8727609260477710 0.6202986012353434	0.108353
H	0.4060046992771394 0.7518533132718395 0.6252649511633476	0.109390
H	0.3945698505255010 0.8901513151884589 0.6288737115597978	0.100192
H	0.3736800520531477 0.3268974181943979 0.7316006269731187	0.096048
H	0.5121072007096544 0.3421585244139114 0.7312285960861725	0.114341
H	0.5201336009456913 0.1910993970851104 0.5196246300151478	0.115466
H	0.3808428114170825 0.1858467037948759 0.5246445914052781	0.095111
H	0.6272390739522290 0.1543153624718734 0.6202986012353434	0.108354
H	0.7481466867281605 0.4060046992771394 0.6252649511633476	0.109389
H	0.6098486848115411 0.3945698505255010 0.6288737115597978	0.100191
H	0.1263199749468580 0.1731025548056034 0.7316006269731187	0.096049
H	0.9878927992903456 0.1578415155860849 0.7312285960861725	0.114323
H	0.9798663990543087 0.3089006159148872 0.5196246300151478	0.115464
H	0.1191571885829177 0.3141532962051241 0.5246445914052781	0.095112
H	0.8727609260477710 0.3456846515281277 0.6202986012353434	0.108354
H	0.7518533132718395 0.0939952937228565 0.6252649511633476	0.109389
H	0.8901513151884589 0.1054301624745038 0.6288737115597978	0.100189
F	0.3120330366146400 0.1576995835559953 0.3783942433610421	-0.581272
F	0.1879669903853587 0.3423004164440047 0.3783942433610421	-0.581271
F	0.3423004164440047 0.3120330366146400 0.3783942433610421	-0.581271
F	0.1576995835559953 0.1879669903853587 0.3783942433610421	-0.581271
F	0.6879669633853601 0.6576995295559976 0.1216057566389577	-0.581271
F	0.8120330366146399 0.8423004704440024 0.1216057566389577	-0.581271
F	0.6576995295559976 0.8120330366146399 0.1216057566389577	-0.581270
F	0.8423004704440024 0.6879669633853601 0.1216057566389577	-0.581272
F	0.6879669633853601 0.8423004704440024 0.6216057246389552	-0.581271
F	0.8120330366146399 0.6576995295559976 0.6216057246389552	-0.581272
F	0.6576995295559976 0.6879669633853601 0.6216057246389552	-0.581271
F	0.8423004704440024 0.8120330366146399 0.6216057246389552	-0.581271
F	0.3120330366146400 0.3423004164440047 0.8783942753610448	-0.581271
F	0.1879669903853587 0.1576995835559953 0.8783942753610448	-0.581271
F	0.3423004164440047 0.1879669903853587 0.8783942753610448	-0.581272
F	0.1576995835559953 0.3120330366146400 0.8783942753610448	-0.581270
F	0.2500000000000000 0.2500000000000000 0.2518181068898367	-0.500778
F	0.2500000000000000 0.2500000000000000 0.5047793443765274	-0.501745
F	0.7500000000000000 0.7500000000000000 0.2481819091101646	-0.500778
F	0.7500000000000000 0.7500000000000000 -0.0047793373765233	-0.501745
F	0.7500000000000000 0.7500000000000000 0.7481818611101607	-0.500779
F	0.7500000000000000 0.7500000000000000 0.4952206876234752	-0.501744
F	0.2500000000000000 0.2500000000000000 0.7518181388898393	-0.500779
F	0.2500000000000000 0.2500000000000000 0.0047793123765247	-0.501745
Fe	0.2500000000000000 0.2500000000000000 0.1283239807226750	0.782486
Fe	0.7500000000000000 0.7500000000000000 0.3716760352773263	0.782487
Fe	0.7500000000000000 0.7500000000000000 0.8716760042773275	0.782489
Fe	0.2500000000000000 0.2500000000000000 0.6283239957226725	0.782488
Sn	0.2500000000000000 0.2500000000000000 0.3782914647540022	1.903650
Sn	0.7500000000000000 0.7500000000000000 0.1217085432459984	1.903651
Sn	0.7500000000000000 0.7500000000000000 0.6217085042459989	1.903651
Sn	0.2500000000000000 0.2500000000000000 0.8782914957540011	1.903650
	  	
