#======================================================================

# CRYSTAL DATA

#----------------------------------------------------------------------

data_VESTA_phase_1


_pd_phase_name                         SnFSIX_15_Cd_i
_cell_length_a                         30.31926
_cell_length_b                         29.72295
_cell_length_c                         8.48871
_cell_angle_alpha                      90
_cell_angle_beta                       90
_cell_angle_gamma                      90
_symmetry_space_group_name_H-M         P 1
_symmetry_Int_Tables_number            1

loop_
_symmetry_equiv_pos_as_xyz
   x, y, z

loop_
   _atom_site_label
   _atom_site_fract_x
   _atom_site_fract_y
   _atom_site_fract_z
   _atom_site_charge
C	0.9298099986006343 0.0990569358297683 0.8870209748930064	0.106646
C	0.8985018849439831 0.0649925072888868 0.8924785828794493	-0.164781
C	0.7695184655855801 0.9361134963896003 0.8937754231601476	-0.115200
C	0.7360447612827395 0.9044248394951833 0.8935575775377814	-0.114798
C	0.5716742606563224 0.7452097820705513 0.8869365342974922	0.103164
C	0.6048351108610209 0.7773837943870304 0.8921672471622346	-0.165945
C	0.4298100306006289 0.5990569518297697 0.8870209748930064	0.106578
C	0.3985019169439855 0.5649924702888872 0.8924785828794493	-0.164793
C	0.2695184015855818 0.4361135293895994 0.8937754231601476	-0.115183
C	0.2360447292827369 0.4044249054951890 0.8935575775377814	-0.114923
C	0.0716742846563243 0.2452097650705540 0.8869365342974922	0.103165
C	0.1048350868610192 0.2773838273870300 0.8921672471622346	-0.165945
C	0.0701899693993708 0.9009430481702303 0.3870210058930054	0.106579
C	0.1014980910560152 0.9350075297111128 0.3924786148794445	-0.164794
C	0.2304815504144211 0.0638864666104003 0.3937754851601455	-0.115183
C	0.2639552547172616 0.0955751105048123 0.3935575775377816	-0.114924
C	0.4283257073436750 0.2547902679294450 0.3869365652974908	0.103164
C	0.3951648891389790 0.2226161726129700 0.3921672471622343	-0.165945
C	0.5701900013993657 0.4009430811702295 0.3870210058930054	0.106579
C	0.6014981150560169 0.4350075297111126 0.3924786148794445	-0.164794
C	0.7304815344144199 0.5638865036103997 0.3937754851601455	-0.115199
C	0.7639552387172605 0.5955751605048167 0.3935575775377816	-0.114798
C	0.9283257393436776 0.7547902179294487 0.3869365652974908	0.103163
C	0.8951648891389791 0.7226162056129696 0.3921672471622343	-0.165945
C	0.0701899693993708 0.0990569358297683 0.6129789941069946	0.106646
C	0.1014980910560152 0.0649925072888868 0.6075213231205501	-0.164781
C	0.2304815504144211 0.9361134963896003 0.6062245458398534	-0.115200
C	0.2639552547172616 0.9044248394951833 0.6064424534622176	-0.114798
C	0.4283257073436750 0.7452097820705513 0.6130633717025071	0.103164
C	0.3951648891389790 0.7773837943870304 0.6078327218377664	-0.165945
C	0.5701900013993657 0.5990569518297697 0.6129789941069946	0.106579
C	0.6014981150560169 0.5649924702888872 0.6075213231205500	-0.164793
C	0.7304815344144199 0.4361135293895994 0.6062245458398534	-0.115183
C	0.7639552387172605 0.4044249054951890 0.6064424534622176	-0.114923
C	0.9283257393436776 0.2452097650705540 0.6130633717025071	0.103165
C	0.8951648891389791 0.2773838273870300 0.6078327218377664	-0.165945
C	0.9298099986006343 0.9009430481702303 0.1129790101069959	0.106579
C	0.8985018849439831 0.9350075297111128 0.1075213621205500	-0.164794
C	0.7695184655855801 0.0638864666104003 0.1062245458398535	-0.115182
C	0.7360447612827395 0.0955751105048123 0.1064424384622125	-0.114923
C	0.5716742606563224 0.2547902679294450 0.1130634267025083	0.103164
C	0.6048351108610209 0.2226161726129700 0.1078327678377634	-0.165944
C	0.4298100306006289 0.4009430811702295 0.1129790101069959	0.106579
C	0.3985019169439855 0.4350075297111126 0.1075213621205500	-0.164794
C	0.2695184015855818 0.5638865036103997 0.1062245458398535	-0.115199
C	0.2360447292827369 0.5955751605048167 0.1064424384622125	-0.114798
C	0.0716742846563243 0.7547902179294487 0.1130634267025083	0.103163
C	0.1048350868610192 0.7226162056129696 0.1078327678377634	-0.165945
C	0.0701899693993708 0.9009430481702303 0.1129790101069960	0.106579
C	0.1014980910560152 0.9350075297111128 0.1075213621205500	-0.164794
C	0.2304815504144211 0.0638864666104003 0.1062245458398535	-0.115182
C	0.2639552547172616 0.0955751105048123 0.1064424384622125	-0.114924
C	0.4283257073436750 0.2547902679294450 0.1130634267025083	0.103164
C	0.3951648891389790 0.2226161726129700 0.1078327678377634	-0.165944
C	0.5701900013993657 0.4009430811702295 0.1129790101069960	0.106579
C	0.6014981150560169 0.4350075297111126 0.1075213621205500	-0.164794
C	0.7304815344144199 0.5638865036103997 0.1062245458398535	-0.115199
C	0.7639552387172605 0.5955751605048167 0.1064424384622125	-0.114798
C	0.9283257393436776 0.7547902179294487 0.1130634267025083	0.103164
C	0.8951648891389791 0.7226162056129696 0.1078327678377634	-0.165944
C	0.9298099986006343 0.0990569358297683 0.6129789941069946	0.106647
C	0.8985018849439831 0.0649925072888868 0.6075213231205501	-0.164781
C	0.7695184655855801 0.9361134963896003 0.6062245458398534	-0.115200
C	0.7360447612827395 0.9044248394951833 0.6064424534622176	-0.114798
C	0.5716742606563224 0.7452097820705513 0.6130633717025071	0.103164
C	0.6048351108610209 0.7773837943870304 0.6078327218377664	-0.165945
C	0.4298100306006289 0.5990569518297697 0.6129789941069946	0.106579
C	0.3985019169439855 0.5649924702888872 0.6075213231205501	-0.164793
C	0.2695184015855818 0.4361135293895994 0.6062245458398534	-0.115183
C	0.2360447292827369 0.4044249054951890 0.6064424534622176	-0.114923
C	0.0716742846563243 0.2452097650705540 0.6130633717025071	0.103166
C	0.1048350868610192 0.2773838273870300 0.6078327218377664	-0.165945
C	0.9298099986006343 0.9009430481702303 0.3870210058930054	0.106579
C	0.8985018849439831 0.9350075297111128 0.3924786148794445	-0.164794
C	0.7695184655855801 0.0638864666104003 0.3937754851601455	-0.115182
C	0.7360447612827395 0.0955751105048123 0.3935575775377816	-0.114924
C	0.5716742606563224 0.2547902679294450 0.3869365652974908	0.103164
C	0.6048351108610209 0.2226161726129700 0.3921672471622343	-0.165944
C	0.4298100306006289 0.4009430811702295 0.3870210058930054	0.106579
C	0.3985019169439855 0.4350075297111126 0.3924786148794445	-0.164794
C	0.2695184015855818 0.5638865036103997 0.3937754851601455	-0.115199
C	0.2360447292827369 0.5955751605048167 0.3935575775377816	-0.114798
C	0.0716742846563243 0.7547902179294487 0.3869365652974908	0.103164
C	0.1048350868610192 0.7226162056129696 0.3921672471622343	-0.165944
C	0.0701899693993708 0.0990569358297683 0.8870209748930064	0.106646
C	0.1014980910560152 0.0649925072888868 0.8924785828794494	-0.164781
C	0.2304815504144211 0.9361134963896003 0.8937754231601476	-0.115200
C	0.2639552547172616 0.9044248394951833 0.8935575775377814	-0.114798
C	0.4283257073436750 0.7452097820705513 0.8869365342974922	0.103164
C	0.3951648891389790 0.7773837943870304 0.8921672471622346	-0.165945
C	0.5701900013993657 0.5990569518297697 0.8870209748930064	0.106579
C	0.6014981150560169 0.5649924702888872 0.8924785828794494	-0.164793
C	0.7304815344144199 0.4361135293895994 0.8937754231601476	-0.115183
C	0.7639552387172605 0.4044249054951890 0.8935575775377814	-0.114923
C	0.9283257393436776 0.2452097650705540 0.8869365342974922	0.103166
C	0.8951648891389791 0.2773838273870300 0.8921672471622346	-0.165945
C	0.6558869516367974 0.8270281736134439 0.7500000160000013	-0.104812
C	0.8820526641192876 0.0474240437839075 0.7500000160000013	0.166639
C	0.8205584943989391 0.9849518235356559 0.7500000160000013	-0.097103
C	0.6222002999744777 0.7942488373232578 0.7500000160000013	0.170654
C	0.7867284112535310 0.9523806305813671 0.7500000160000013	0.127261
C	0.7188212384128101 0.8879999360255387 0.7500000160000013	0.139152
C	0.6849700813216189 0.8554123769552827 0.7500000160000013	-0.098204
C	0.8494574162433621 0.0135429889408331 0.7500000160000013	-0.108198
C	0.1558869356367965 0.3270281736134439 0.7500000160000013	-0.104817
C	0.3820525681192868 0.5474240557839082 0.7500000160000013	0.166728
C	0.3205584943989394 0.4849518235356557 0.7500000160000013	-0.097126
C	0.1222002919744775 0.2942488373232578 0.7500000160000013	0.170653
C	0.2867283792535359 0.4523806305813671 0.7500000160000013	0.127380
C	0.2188212224128082 0.3879999690255376 0.7500000160000013	0.139215
C	0.1849700483216200 0.3554123439552835 0.7500000160000013	-0.098204
C	0.3494573842433589 0.5135429839408292 0.7500000160000013	-0.108200
C	0.3441130803632051 0.1729718263865561 0.2500000000000000	-0.104814
C	0.1179474078807183 0.9525759442160918 0.2500000000000000	0.166728
C	0.1794415056010605 0.0150481724643437 0.2500000000000000	-0.097126
C	0.3777997000255218 0.2057511466767410 0.2500000000000000	0.170653
C	0.2132716047464701 0.0476193614186322 0.2500000000000000	0.127379
C	0.2811787615871905 0.1120000229744618 0.2500000000000000	0.139215
C	0.3150299516783800 0.1445876230447174 0.2500000000000000	-0.098205
C	0.1505426157566409 0.9864569830591717 0.2500000000000000	-0.108201
C	0.8441130483632026 0.6729718263865561 0.2500000000000000	-0.104812
C	0.6179473358807124 0.4525759772160907 0.2500000000000000	0.166729
C	0.6794415056010609 0.5150481764643441 0.2500000000000000	-0.097098
C	0.8777997000255223 0.7057511626767422 0.2500000000000000	0.170654
C	0.7132715887464690 0.5476194024186321 0.2500000000000000	0.127260
C	0.7811787615871899 0.6120000639744613 0.2500000000000000	0.139152
C	0.8150299186783811 0.6445876230447173 0.2500000000000000	-0.098204
C	0.6505425837566379 0.4864569830591715 0.2500000000000000	-0.108207
C	0.3441130803632051 0.8270281736134439 0.7500000160000013	-0.104813
C	0.1179474078807183 0.0474240437839075 0.7500000160000013	0.166639
C	0.1794415056010605 0.9849518235356559 0.7500000160000013	-0.097103
C	0.3777997000255218 0.7942488373232578 0.7500000160000013	0.170654
C	0.2132716047464701 0.9523806305813671 0.7500000160000013	0.127262
C	0.2811787615871905 0.8879999360255387 0.7500000160000013	0.139152
C	0.3150299516783800 0.8554123769552827 0.7500000160000013	-0.098204
C	0.1505426157566409 0.0135429889408331 0.7500000160000013	-0.108198
C	0.8441130483632026 0.3270281736134439 0.7500000160000013	-0.104816
C	0.6179473358807124 0.5474240557839082 0.7500000160000013	0.166728
C	0.6794415056010609 0.4849518235356557 0.7500000160000013	-0.097127
C	0.8777997000255223 0.2942488373232578 0.7500000160000013	0.170653
C	0.7132715887464690 0.4523806305813671 0.7500000160000013	0.127380
C	0.7811787615871899 0.3879999690255376 0.7500000160000013	0.139214
C	0.8150299186783811 0.3554123439552835 0.7500000160000013	-0.098205
C	0.6505425837566379 0.5135429839408292 0.7500000160000013	-0.108200
C	0.6558869516367974 0.1729718263865561 0.2500000000000000	-0.104813
C	0.8820526641192876 0.9525759442160918 0.2500000000000000	0.166728
C	0.8205584943989391 0.0150481724643437 0.2500000000000000	-0.097126
C	0.6222002999744777 0.2057511466767410 0.2500000000000000	0.170653
C	0.7867284112535310 0.0476193614186322 0.2500000000000000	0.127379
C	0.7188212384128101 0.1120000229744618 0.2500000000000000	0.139215
C	0.6849700813216189 0.1445876230447174 0.2500000000000000	-0.098206
C	0.8494574162433621 0.9864569830591717 0.2500000000000000	-0.108200
C	0.1558869356367965 0.6729718263865561 0.2500000000000000	-0.104812
C	0.3820525681192868 0.4525759772160907 0.2500000000000000	0.166729
C	0.3205584943989394 0.5150481764643441 0.2500000000000000	-0.097098
C	0.1222002919744775 0.7057511626767422 0.2500000000000000	0.170654
C	0.2867283792535359 0.5476194024186321 0.2500000000000000	0.127260
C	0.2188212224128082 0.6120000639744613 0.2500000000000000	0.139152
C	0.1849700483216200 0.6445876230447173 0.2500000000000000	-0.098204
C	0.3494573842433589 0.4864569830591715 0.2500000000000000	-0.108207
H	0.9430315176268111 0.1134554040030247 -0.0045556792252278	0.095670
H	0.8868058431860875 0.0521455823367828 0.0051335627661696	0.121891
H	0.7829337276222292 0.9487774346292599 0.0042987460572632	0.108419
H	0.7226570161245967 0.8917631313638107 0.0039754434757251	0.115390
H	0.5576177622174353 0.7316514142485555 -0.0046343615939822	0.095441
H	0.6172847970935185 0.7893245256159637 0.0048638183858887	0.127421
H	0.4430316136268119 0.6134554200030259 -0.0045556792252278	0.095675
H	0.3868057791860897 0.5521456113367887 0.0051335627661696	0.121913
H	0.2829337276222296 0.4487774346292601 0.0042987460572632	0.108425
H	0.2226570321245981 0.3917632303638153 0.0039754434757251	0.115413
H	0.0576177702174362 0.2316514632485560 -0.0046343615939822	0.095441
H	0.1172848130935129 0.2893244596159653 0.0048638183858887	0.127421
H	0.0569684223731839 0.8865445799969741 0.4954443497747710	0.095675
H	0.1131942048139091 0.9478543886632113 0.5051335977661686	0.121913
H	0.2170663043777732 0.0512225823707448 0.5042987780572659	0.108425
H	0.2773429838754034 0.1082367946361904 0.5039754394757251	0.115413
H	0.4423822377825645 0.2683485197514465 0.4953656384060177	0.095441
H	0.3827152029064814 0.2106754913840342 0.5048638493858872	0.127420
H	0.5569684823731889 0.3865445799969739 0.4954443497747710	0.095675
H	0.6131941568139125 0.4478544216632173 0.5051335977661686	0.121913
H	0.7170662723777708 0.5512225653707401 0.5042987780572659	0.108419
H	0.7773429838754033 0.6082368686361893 0.5039754394757251	0.115390
H	0.9423822377825647 0.7683485857514445 0.4953656384060177	0.095441
H	0.8827152029064815 0.7106754743840363 0.5048638493858872	0.127420
H	0.0569684223731839 0.1134554040030247 0.5045556812252279	0.095670
H	0.1131942048139091 0.0521455823367828 0.4948664022338240	0.121891
H	0.2170663043777732 0.9487774346292599 0.4957012539427366	0.108419
H	0.2773429838754034 0.8917631313638107 0.4960245605242753	0.115390
H	0.4423822377825645 0.7316514142485555 0.5046343935939849	0.095441
H	0.3827152029064814 0.7893245256159637 0.4951361816141112	0.127421
H	0.5569684823731889 0.6134554200030259 0.5045556812252279	0.095675
H	0.6131941568139125 0.5521456113367887 0.4948664022338240	0.121913
H	0.7170662723777708 0.4487774346292601 0.4957012539427366	0.108425
H	0.7773429838754033 0.3917632303638153 0.4960245605242753	0.115413
H	0.9423822377825647 0.2316514632485560 0.5046343935939849	0.095441
H	0.8827152029064815 0.2893244596159653 0.4951361816141112	0.127421
H	0.9430315176268111 0.8865445799969741 0.0045556812252280	0.095675
H	0.8868058431860875 0.9478543886632113 0.9948663712338253	0.121913
H	0.7829337276222292 0.0512225823707448 0.9957012539427368	0.108425
H	0.7226570161245967 0.1082367946361904 0.9960245295242688	0.115413
H	0.5576177622174353 0.2683485197514465 0.0046343615939822	0.095441
H	0.6172847970935185 0.2106754913840342 0.9951361816141118	0.127420
H	0.4430316136268119 0.3865445799969739 0.0045556812252280	0.095675
H	0.3868057791860897 0.4478544216632173 0.9948663712338253	0.121913
H	0.2829337276222296 0.5512225653707401 0.9957012539427368	0.108419
H	0.2226570321245981 0.6082368686361893 0.9960245295242688	0.115390
H	0.0576177702174362 0.7683485857514445 0.0046343615939822	0.095441
H	0.1172848130935129 0.7106754743840363 0.9951361816141118	0.127420
H	0.0569684223731839 0.8865445799969741 0.0045556812252280	0.095675
H	0.1131942048139091 0.9478543886632113 0.9948663712338253	0.121913
H	0.2170663043777732 0.0512225823707448 0.9957012539427368	0.108425
H	0.2773429838754034 0.1082367946361904 0.9960245295242688	0.115413
H	0.4423822377825645 0.2683485197514465 0.0046343615939822	0.095441
H	0.3827152029064814 0.2106754913840342 0.9951361816141118	0.127420
H	0.5569684823731889 0.3865445799969739 0.0045556812252280	0.095675
H	0.6131941568139125 0.4478544216632173 0.9948663712338253	0.121913
H	0.7170662723777708 0.5512225653707401 0.9957012539427368	0.108419
H	0.7773429838754033 0.6082368686361893 0.9960245295242688	0.115390
H	0.9423822377825647 0.7683485857514445 0.0046343615939822	0.095441
H	0.8827152029064815 0.7106754743840363 0.9951361816141118	0.127421
H	0.9430315176268111 0.1134554040030247 0.5045556812252279	0.095670
H	0.8868058431860875 0.0521455823367828 0.4948664022338240	0.121891
H	0.7829337276222292 0.9487774346292599 0.4957012539427366	0.108419
H	0.7226570161245967 0.8917631313638107 0.4960245605242753	0.115390
H	0.5576177622174353 0.7316514142485555 0.5046343935939849	0.095441
H	0.6172847970935185 0.7893245256159637 0.4951361816141112	0.127421
H	0.4430316136268119 0.6134554200030259 0.5045556812252279	0.095675
H	0.3868057791860897 0.5521456113367887 0.4948664022338240	0.121913
H	0.2829337276222296 0.4487774346292601 0.4957012539427366	0.108425
H	0.2226570321245981 0.3917632303638153 0.4960245605242753	0.115413
H	0.0576177702174362 0.2316514632485560 0.5046343935939849	0.095441
H	0.1172848130935129 0.2893244596159653 0.4951361816141112	0.127421
H	0.9430315176268111 0.8865445799969741 0.4954443497747710	0.095675
H	0.8868058431860875 0.9478543886632113 0.5051335977661686	0.121913
H	0.7829337276222292 0.0512225823707448 0.5042987780572659	0.108425
H	0.7226570161245967 0.1082367946361904 0.5039754394757251	0.115413
H	0.5576177622174353 0.2683485197514465 0.4953656384060177	0.095441
H	0.6172847970935185 0.2106754913840342 0.5048638493858872	0.127420
H	0.4430316136268119 0.3865445799969739 0.4954443497747710	0.095675
H	0.3868057791860897 0.4478544216632173 0.5051335977661686	0.121913
H	0.2829337276222296 0.5512225653707401 0.5042987780572659	0.108419
H	0.2226570321245981 0.6082368686361893 0.5039754394757251	0.115390
H	0.0576177702174362 0.7683485857514445 0.4953656384060177	0.095441
H	0.1172848130935129 0.7106754743840363 0.5048638493858872	0.127420
H	0.0569684223731839 0.1134554040030247 -0.0045556792252278	0.095670
H	0.1131942048139091 0.0521455823367828 0.0051335627661696	0.121891
H	0.2170663043777732 0.9487774346292599 0.0042987460572632	0.108419
H	0.2773429838754034 0.8917631313638107 0.0039754434757251	0.115390
H	0.4423822377825645 0.7316514142485555 -0.0046343615939822	0.095441
H	0.3827152029064814 0.7893245256159637 0.0048638183858887	0.127421
H	0.5569684823731889 0.6134554200030259 -0.0045556792252278	0.095675
H	0.6131941568139125 0.5521456113367887 0.0051335627661696	0.121913
H	0.7170662723777708 0.4487774346292601 0.0042987460572632	0.108425
H	0.7773429838754033 0.3917632303638153 0.0039754434757251	0.115413
H	0.9423822377825647 0.2316514632485560 -0.0046343615939822	0.095441
H	0.8827152029064815 0.2893244596159653 0.0048638183858887	0.127421
Cd	0.5000000000000000 0.6730623042753799 0.7500000160000013	0.832459
Cd	0.0000000000000000 0.1730623212753778 0.7500000160000013	0.832461
Cd	0.5000000000000000 0.3269376957246200 0.2500000000000000	0.832459
Cd	0.0000000000000000 0.8269376957246201 0.2500000000000000	0.832459
Sn	0.5000000000000000 0.6728584042206671 0.2500000000000000	1.889341
Sn	0.0000000000000000 0.1728584042206668 0.2500000000000000	1.889341
Sn	0.5000000000000000 0.3271416277793358 0.7500000160000013	1.889341
Sn	0.0000000000000000 0.8271415957793329 0.7500000160000013	1.889341
F	0.5000000000000000 0.7398105914019069 0.2500000000000000	-0.581065
F	0.5000000000000000 0.6059516805649849 0.2500000000000000	-0.578192
F	0.0000000000000000 0.2398105424019061 0.2500000000000000	-0.581065
F	0.0000000000000000 0.1059516645649840 0.2500000000000000	-0.578192
F	0.5000000000000000 0.2601894575980941 0.7500000160000013	-0.581064
F	0.5000000000000000 0.3940482864350154 0.7500000160000013	-0.578192
F	0.0000000000000000 0.7601894085980931 0.7500000160000013	-0.581064
F	0.0000000000000000 0.8940483194350151 0.7500000160000013	-0.578192
F	0.5656288194479266 0.6728151594136872 0.2500000000000000	-0.581322
F	0.0656288394479284 0.1728151924136868 0.2500000000000000	-0.581322
F	0.4343711485520705 0.3271847745863140 0.7500000160000013	-0.581322
F	0.9343711805520734 0.8271848405863128 0.7500000160000013	-0.581322
F	0.4343711485520705 0.6728151594136872 0.2500000000000000	-0.581322
F	0.9343711805520734 0.1728151924136868 0.2500000000000000	-0.581322
F	0.5656288194479268 0.3271847745863140 0.7500000160000013	-0.581322
F	0.0656288394479284 0.8271848405863128 0.7500000160000013	-0.581322
F	0.5000000000000000 0.6729979710071893 0.4883452552080779	-0.533397
F	0.0000000000000000 0.1729979880071872 0.4883452552080779	-0.533398
F	0.5000000000000000 0.3270020619928099 -0.0116547447919219	-0.533397
F	0.0000000000000000 0.8270020289928107 -0.0116547447919219	-0.533397
F	0.5000000000000000 0.6729979710071893 0.0116547407919216	-0.533397
F	0.0000000000000000 0.1729979880071872 0.0116547407919216	-0.533398
F	0.5000000000000000 0.3270020619928099 0.5116547127919263	-0.533397
F	0.0000000000000000 0.8270020289928107 0.5116547127919263	-0.533397
N	0.5553092240441150 0.7292664151516732 0.7500000160000013	-0.245474
N	0.9452043871170679 0.1159380386258100 0.7500000160000013	-0.243105
N	0.0553091880441125 0.2292663991516722 0.7500000160000013	-0.245474
N	0.4452043871170685 0.6159380226258087 0.7500000160000013	-0.243084
N	0.4446908399558826 0.2707335848483263 0.2500000000000000	-0.245474
N	0.0547956208829324 0.8840619773741913 0.2500000000000000	-0.243084
N	0.9446907759558850 0.7707335848483268 0.2500000000000000	-0.245473
N	0.5547956128829321 0.3840619773741915 0.2500000000000000	-0.243083
N	0.4446908399558826 0.7292664151516732 0.7500000160000013	-0.245474
N	0.0547956208829324 0.1159380386258100 0.7500000160000013	-0.243105
N	0.9446907759558850 0.2292663991516722 0.7500000160000013	-0.245474
N	0.5547956128829321 0.6159380226258087 0.7500000160000013	-0.243084
N	0.5553092240441150 0.2707335848483263 0.2500000000000000	-0.245474
N	0.9452043871170679 0.8840619773741913 0.2500000000000000	-0.243084
N	0.0553091880441125 0.7707335848483268 0.2500000000000000	-0.245473
N	0.4452043871170685 0.3840619773741915 0.2500000000000000	-0.243083
	  	
