#======================================================================

# CRYSTAL DATA

#----------------------------------------------------------------------

data_VESTA_phase_1


_pd_phase_name                         SnFSIX_2_Co
_cell_length_a                         13.90746
_cell_length_b                         13.90746
_cell_length_c                         8.17154
_cell_angle_alpha                      90
_cell_angle_beta                       90
_cell_angle_gamma                      90
_symmetry_space_group_name_H-M         P 1
_symmetry_Int_Tables_number            1

loop_
_symmetry_equiv_pos_as_xyz
   x, y, z

loop_
   _atom_site_label
   _atom_site_fract_x
   _atom_site_fract_y
   _atom_site_fract_z
   _atom_site_charge
C	0.5308981593676634 0.7022622140728728 0.1320498398590755	0.097344
C	0.5317262582508376 0.8020703246639321 0.1373651584282063	-0.163847
C	0.4691019106323353 0.2977377859271268 0.1320498398590755	0.097342
C	0.4682737067491627 0.1979296573360662 0.1373651584282063	-0.163845
C	0.2977377859271268 0.5308981593676634 0.1320498398590755	0.097344
C	0.1979296573360662 0.5317262582508376 0.1373651584282063	-0.163847
C	0.7022622140728728 0.4691019106323353 0.1320498398590755	0.097342
C	0.8020703246639321 0.4682737067491627 0.1373651584282063	-0.163845
C	0.4691019106323353 0.7022622140728728 0.8679501601409245	0.097344
C	0.4682737067491627 0.8020703246639321 0.8626348115717912	-0.163847
C	0.5308981593676634 0.2977377859271268 0.8679501601409245	0.097342
C	0.5317262582508376 0.1979296573360662 0.8626348115717912	-0.163844
C	0.7022622140728728 0.5308981593676634 0.8679501601409245	0.097342
C	0.8020703246639321 0.5317262582508376 0.8626348115717912	-0.163844
C	0.2977377859271268 0.4691019106323353 0.8679501601409245	0.097344
C	0.1979296573360662 0.4682737067491627 0.8626348115717912	-0.163847
C	0.5000000000000000 0.1456161581904901 -0.0000000000000000	0.169652
C	0.5000000000000000 0.0438378698334981 -0.0000000000000000	-0.092527
C	0.5000000000000000 0.8543838418095104 -0.0000000000000000	0.169620
C	0.5000000000000000 0.9561620731665080 -0.0000000000000000	-0.092277
C	0.8543838418095104 0.5000000000000000 -0.0000000000000000	0.169652
C	0.9561620731665080 0.5000000000000000 -0.0000000000000000	-0.092527
C	0.1456161581904901 0.5000000000000000 -0.0000000000000000	0.169620
C	0.0438378698334981 0.5000000000000000 -0.0000000000000000	-0.092277
H	0.5552600867926843 0.6603174078686804 0.2370227580581862	0.101663
H	0.5568375758258707 0.8388209554712454 0.2470029788838506	0.131899
H	0.4447399132073155 0.3396825221313213 0.2370227580581862	0.101663
H	0.4431624591741283 0.1611789745287558 0.2470029788838506	0.131900
H	0.3396825221313213 0.5552600867926843 0.2370227580581862	0.101663
H	0.1611789745287558 0.5568375758258707 0.2470029788838506	0.131899
H	0.6603174078686804 0.4447399132073155 0.2370227580581862	0.101663
H	0.8388209554712454 0.4431624591741283 0.2470029788838506	0.131900
H	0.4447399132073155 0.6603174078686804 0.7629772419418137	0.101663
H	0.4431624591741283 0.8388209554712454 0.7529970511161517	0.131898
H	0.5552600867926843 0.3396825221313213 0.7629772419418137	0.101663
H	0.5568375758258707 0.1611789745287558 0.7529970511161517	0.131898
H	0.6603174078686804 0.5552600867926843 0.7629772419418137	0.101663
H	0.8388209554712454 0.5568375758258707 0.7529970511161517	0.131899
H	0.3396825221313213 0.4447399132073155 0.7629772419418137	0.101663
H	0.1611789745287558 0.4431624591741283 0.7529970511161517	0.131897
Co	0.5000000000000000 0.5000000000000000 -0.0000000000000000	0.586665
Sn	0.5000000000000000 0.5000000000000000 0.5000000000000000	1.865327
F	0.5000000000000000 0.5000000000000000 0.7474339484218363	-0.523042
F	0.5000000000000000 0.5000000000000000 0.2525660815781590	-0.523042
F	0.6012657079203547 0.6012657079203547 0.5000000000000000	-0.569740
F	0.3987343270796450 0.6012657079203547 0.5000000000000000	-0.569740
F	0.3987343270796450 0.3987343270796450 0.5000000000000000	-0.569740
F	0.6012657079203547 0.3987343270796450 0.5000000000000000	-0.569740
N	0.5000000000000000 0.3471807327632203 -0.0000000000000000	-0.193089
N	0.5000000000000000 0.6528192322367801 -0.0000000000000000	-0.193089
N	0.6528192322367801 0.5000000000000000 -0.0000000000000000	-0.193089
N	0.3471807327632203 0.5000000000000000 -0.0000000000000000	-0.193089
	  	
