#======================================================================

# CRYSTAL DATA

#----------------------------------------------------------------------

data_VESTA_phase_1


_pd_phase_name                         SnFSIX_5_Fe_i
_cell_length_a                         20.06682
_cell_length_b                         20.06682
_cell_length_c                         16.04991
_cell_angle_alpha                      90
_cell_angle_beta                       90
_cell_angle_gamma                      90
_symmetry_space_group_name_H-M         P 1
_symmetry_Int_Tables_number            1

loop_
_symmetry_equiv_pos_as_xyz
   x, y, z

loop_
   _atom_site_label
   _atom_site_fract_x
   _atom_site_fract_y
   _atom_site_fract_z
   _atom_site_charge
F	0.3272374061345594 0.1879957858664653 0.3512319486215669	-0.570634
F	0.1727625818654397 0.3120042141335346 0.3512319486215669	-0.570637
F	0.3120042141335346 0.3272374061345594 0.3512319486215669	-0.570636
F	0.1879957858664653 0.1727625818654397 0.3512319486215669	-0.570635
F	0.6727626178654355 0.6879958098664675 0.1487680513784330	-0.570635
F	0.8272373821345645 0.8120041901335325 0.1487680513784330	-0.570636
F	0.6879958098664675 0.8272373821345645 0.1487680513784330	-0.570636
F	0.8120041901335325 0.6727626178654355 0.1487680513784330	-0.570634
F	0.6727626178654355 0.8120041901335326 0.6487680833784356	-0.570638
F	0.8272373821345645 0.6879958098664674 0.6487680833784356	-0.570634
F	0.6879958098664674 0.6727626178654355 0.6487680833784356	-0.570635
F	0.8120041901335326 0.8272373821345645 0.6487680833784356	-0.570636
F	0.3272374061345594 0.3120042141335346 0.8512319166215644	-0.570636
F	0.1727625818654397 0.1879957858664653 0.8512319166215644	-0.570635
F	0.3120042141335346 0.1727625818654397 0.8512319166215644	-0.570635
F	0.1879957858664653 0.3272374061345594 0.8512319166215644	-0.570637
F	0.2500000000000000 0.2500000000000000 0.4772517312563965	-0.500744
F	0.2500000000000000 0.2500000000000000 0.2247066303587392	-0.502594
F	0.7500000000000000 0.7500000000000000 0.0227482957436021	-0.500744
F	0.7500000000000000 0.7500000000000000 0.2752933536412594	-0.502594
F	0.7500000000000000 0.7500000000000000 0.5227482997436023	-0.500742
F	0.7500000000000000 0.7500000000000000 0.7752933536412596	-0.502595
F	0.2500000000000000 0.2500000000000000 0.9772517002563976	-0.500742
F	0.2500000000000000 0.2500000000000000 0.7247066463587404	-0.502595
N	0.3589649073293567 0.2475351043283837 0.6013261401681232	-0.253222
N	0.1410350926706433 0.2524648956716161 0.6013261401681232	-0.253223
N	0.2524648956716161 0.3589649073293567 0.6013261401681232	-0.253224
N	0.2475351043283837 0.1410350926706433 0.6013261401681232	-0.253222
N	0.6410351166706454 0.7475350803283818 0.8986738598318768	-0.253223
N	0.8589648833293546 0.7524649196716182 0.8986738598318768	-0.253223
N	0.7475350803283818 0.8589648833293546 0.8986738598318768	-0.253224
N	0.7524649196716182 0.6410351166706454 0.8986738598318768	-0.253222
N	0.6410351166706454 0.7524649196716182 0.3986738908318758	-0.253221
N	0.8589648833293546 0.7475350803283818 0.3986738908318758	-0.253220
N	0.7475350803283818 0.6410351166706454 0.3986738908318758	-0.253220
N	0.7524649196716182 0.8589648833293546 0.3986738908318758	-0.253222
N	0.3589649073293567 0.2524648956716161 0.1013261401681233	-0.253220
N	0.1410350926706433 0.2475351043283837 0.1013261401681233	-0.253220
N	0.2524648956716161 0.1410350926706433 0.1013261401681233	-0.253220
N	0.2475351043283837 0.3589649073293567 0.1013261401681233	-0.253221
C	0.3921757886423849 0.2183645556303863 0.6645410486590527	0.103681
C	0.4612898248041469 0.2170249358893150 0.6685186648823689	-0.176756
C	0.4990041556747282 0.2471090951802400 0.6051601335530227	0.105550
C	0.4637376083989743 0.2770364151639275 0.5394581749958484	-0.178953
C	0.3945189575574776 0.2761703423032370 0.5397261927237741	0.105878
C	0.5723709587658163 0.2478039918748197 0.6082239928549468	0.054537
C	0.6081914505758333 0.1922896566814016 0.6373774869901936	-0.130380
C	0.6774537149139230 0.1930489729249605 0.6397749401896849	-0.125191
C	0.7133332779664374 0.2497681868294826 0.6147402483985936	0.067805
C	0.6774458090701695 0.3056278280065838 0.5869335967025273	-0.120211
C	0.6082476187906122 0.3044008503633682 0.5828337714469513	-0.125666
C	0.1078241873576202 0.2816354683696157 0.6645410486590527	0.103682
C	0.0387101151958553 0.2829750881106869 0.6685186648823689	-0.176758
C	0.0009958233252736 0.2528909048197601 0.6051601335530227	0.105547
C	0.0362624186010245 0.2229635848360724 0.5394581749958484	-0.178948
C	0.1054810064425195 0.2238296816967649 0.5397261927237741	0.105876
C	0.9276289932341868 0.2521959841251782 0.6082239928549468	0.054538
C	0.8918085974241635 0.3077103783185977 0.6373774869901936	-0.130377
C	0.8225462850860770 0.3069510390750335 0.6397749401896849	-0.125190
C	0.7866667220335626 0.2502317891705155 0.6147402483985936	0.067803
C	0.8225542379298308 0.1943721719934162 0.5869335967025273	-0.120206
C	0.8917524772093887 0.1955991846366311 0.5828337714469513	-0.125666
C	0.2816354683696157 0.3921757886423849 0.6645410486590527	0.103683
C	0.2829750881106869 0.4612898248041469 0.6685186648823689	-0.176759
C	0.2528909048197601 0.4990041556747282 0.6051601335530227	0.105549
C	0.2229635848360724 0.4637376083989743 0.5394581749958484	-0.178950
C	0.2238296816967649 0.3945189575574776 0.5397261927237741	0.105880
C	0.2521959841251782 0.5723709587658163 0.6082239928549468	0.054537
C	0.3077103783185977 0.6081914505758333 0.6373774869901936	-0.130380
C	0.3069510390750335 0.6774537149139230 0.6397749401896849	-0.125192
C	0.2502317891705155 0.7133332779664374 0.6147402483985936	0.067803
C	0.1943721719934162 0.6774458090701695 0.5869335967025273	-0.120210
C	0.1955991846366311 0.6082476187906122 0.5828337714469513	-0.125667
C	0.2183645556303863 0.1078241873576202 0.6645410486590527	0.103681
C	0.2170249358893150 0.0387101151958553 0.6685186648823689	-0.176756
C	0.2471090951802400 0.0009958233252736 0.6051601335530227	0.105549
C	0.2770364151639275 0.0362624186010245 0.5394581749958484	-0.178950
C	0.2761703423032370 0.1054810064425195 0.5397261927237741	0.105876
C	0.2478039918748197 0.9276289932341868 0.6082239928549468	0.054538
C	0.1922896566814016 0.8918085974241635 0.6373774869901936	-0.130377
C	0.1930489729249605 0.8225462850860770 0.6397749401896849	-0.125190
C	0.2497681868294826 0.7866667220335626 0.6147402483985936	0.067805
C	0.3056278280065838 0.8225542379298308 0.5869335967025273	-0.120208
C	0.3044008503633682 0.8917524772093887 0.5828337714469513	-0.125664
C	0.6078241873576204 0.7183646036303830 0.8354589513409473	0.103680
C	0.5387101271958565 0.7170249598893096 0.8314813351176311	-0.176755
C	0.5009958443252714 0.7471091431802368 0.8948398664469773	0.105548
C	0.5362624876010267 0.7770363671639234 0.9605418250041516	-0.178952
C	0.6054810664425174 0.7761703663032318 0.9602738072762259	0.105876
C	0.4276290412341838 0.7478040638748185 0.8917760071450532	0.054538
C	0.3918085494241669 0.6922896216814024 0.8626225130098064	-0.130377
C	0.3225462130860712 0.6930489369249646 0.8602250598103151	-0.125191
C	0.2866667700335664 0.7497682108294846 0.8852597516014064	0.067804
C	0.3225541429298265 0.8056278280065838 0.9130664032974727	-0.120209
C	0.3917524052093828 0.8044007793633660 0.9171662285530487	-0.125664
C	0.8921758126423796 0.7816353963696170 0.8354589513409473	0.103683
C	0.9612898728041435 0.7829750401106904 0.8314813351176311	-0.176760
C	0.9990042036747254 0.7528908568197632 0.8948398664469773	0.105550
C	0.9637375603989773 0.7229636328360766 0.9605418250041516	-0.178949
C	0.8945189335574826 0.7238296336967682 0.9602738072762259	0.105878
C	0.0723709947658121 0.7521959361251815 0.8917760071450532	0.054536
C	0.1081914385758322 0.8077103783185976 0.8626225130098064	-0.130378
C	0.1774537629139268 0.8069510150750385 0.8602250598103151	-0.125192
C	0.2133332299664336 0.7502317891705154 0.8852597516014064	0.067804
C	0.1774458330701716 0.6943721719934162 0.9130664032974727	-0.120208
C	0.1082475947906172 0.6955991736366337 0.9171662285530487	-0.125670
C	0.7183646036303830 0.8921758126423796 0.8354589513409473	0.103685
C	0.7170249598893096 0.9612898728041435 0.8314813351176311	-0.176757
C	0.7471091431802368 0.9990042036747255 0.8948398664469773	0.105549
C	0.7770363671639234 0.9637375603989773 0.9605418250041516	-0.178952
C	0.7761703663032318 0.8945189335574826 0.9602738072762259	0.105879
C	0.7478040638748185 0.0723709947658121 0.8917760071450532	0.054537
C	0.6922896216814024 0.1081914385758322 0.8626225130098064	-0.130379
C	0.6930489369249646 0.1774537629139268 0.8602250598103151	-0.125191
C	0.7497682108294846 0.2133332299664336 0.8852597516014064	0.067804
C	0.8056278280065838 0.1774458330701716 0.9130664032974727	-0.120208
C	0.8044007793633660 0.1082475947906172 0.9171662285530487	-0.125668
C	0.7816353963696170 0.6078241873576204 0.8354589513409473	0.103680
C	0.7829750401106904 0.5387101271958565 0.8314813351176311	-0.176758
C	0.7528908568197632 0.5009958443252714 0.8948398664469773	0.105549
C	0.7229636328360766 0.5362624876010267 0.9605418250041516	-0.178948
C	0.7238296336967682 0.6054810664425174 0.9602738072762259	0.105877
C	0.7521959361251815 0.4276290412341838 0.8917760071450532	0.054538
C	0.8077103783185976 0.3918085494241669 0.8626225130098064	-0.130376
C	0.8069510150750385 0.3225462130860712 0.8602250598103151	-0.125192
C	0.7502317891705154 0.2866667700335664 0.8852597516014064	0.067804
C	0.6943721719934162 0.3225541429298265 0.9130664032974727	-0.120209
C	0.6955991736366337 0.3917524052093828 0.9171662285530487	-0.125665
C	0.6078241873576204 0.7816353963696170 0.3354589823409464	0.103682
C	0.5387101271958565 0.7829750401106904 0.3314813351176310	-0.176760
C	0.5009958443252714 0.7528908568197632 0.3948398664469772	0.105557
C	0.5362624876010267 0.7229636328360766 0.4605418560041575	-0.178949
C	0.6054810664425174 0.7238296336967682 0.4602738072762259	0.105876
C	0.4276290412341838 0.7521959361251815 0.3917760071450532	0.054501
C	0.3918085494241669 0.8077103783185976 0.3626224820098075	-0.130331
C	0.3225462130860712 0.8069510150750385 0.3602250908103137	-0.125216
C	0.2866667700335664 0.7502317891705154 0.3852596576014058	0.067806
C	0.3225541429298265 0.6943721719934162 0.4130664342974716	-0.120210
C	0.3917524052093828 0.6955991736366337 0.4171662285530487	-0.125654
C	0.8921758126423796 0.7183646036303830 0.3354589823409464	0.103681
C	0.9612898728041435 0.7170249598893096 0.3314813351176310	-0.176758
C	0.9990042036747255 0.7471091431802368 0.3948398664469772	0.105560
C	0.9637375603989773 0.7770363671639234 0.4605418560041575	-0.178954
C	0.8945189335574826 0.7761703663032318 0.4602738072762259	0.105879
C	0.0723709947658121 0.7478040638748185 0.3917760071450532	0.054500
C	0.1081914385758322 0.6922896216814024 0.3626224820098075	-0.130333
C	0.1774537629139268 0.6930489369249646 0.3602250908103137	-0.125217
C	0.2133332299664336 0.7497682108294846 0.3852596576014058	0.067807
C	0.1774458330701716 0.8056278280065838 0.4130664342974716	-0.120213
C	0.1082475947906172 0.8044007793633660 0.4171662285530487	-0.125656
C	0.7183646036303830 0.6078241873576204 0.3354589823409464	0.103682
C	0.7170249598893096 0.5387101271958565 0.3314813351176310	-0.176758
C	0.7471091431802368 0.5009958443252713 0.3948398664469772	0.105558
C	0.7770363671639234 0.5362624876010267 0.4605418560041575	-0.178951
C	0.7761703663032318 0.6054810664425174 0.4602738072762259	0.105876
C	0.7478040638748185 0.4276290412341838 0.3917760071450532	0.054501
C	0.6922896216814024 0.3918085494241669 0.3626224820098075	-0.130330
C	0.6930489369249646 0.3225462130860712 0.3602250908103137	-0.125215
C	0.7497682108294846 0.2866667700335664 0.3852596576014058	0.067809
C	0.8056278280065838 0.3225541429298265 0.4130664342974716	-0.120212
C	0.8044007793633660 0.3917524052093828 0.4171662285530487	-0.125653
C	0.7816353963696170 0.8921758126423796 0.3354589823409464	0.103684
C	0.7829750401106904 0.9612898728041435 0.3314813351176310	-0.176760
C	0.7528908568197632 0.9990042036747254 0.3948398664469772	0.105558
C	0.7229636328360766 0.9637375603989773 0.4605418560041575	-0.178952
C	0.7238296336967682 0.8945189335574826 0.4602738072762259	0.105880
C	0.7521959361251815 0.0723709947658121 0.3917760071450532	0.054500
C	0.8077103783185976 0.1081914385758322 0.3626224820098075	-0.130334
C	0.8069510150750385 0.1774537629139268 0.3602250908103137	-0.125217
C	0.7502317891705154 0.2133332299664336 0.3852596576014058	0.067804
C	0.6943721719934162 0.1774458330701716 0.4130664342974716	-0.120212
C	0.6955991736366337 0.1082475947906172 0.4171662285530487	-0.125657
C	0.3921757886423849 0.2816354683696157 0.1645410336590550	0.103683
C	0.4612898248041469 0.2829750881106869 0.1685186338823700	-0.176760
C	0.4990041556747282 0.2528909048197601 0.1051601335530228	0.105550
C	0.4637376083989743 0.2229635848360724 0.0394581399958492	-0.178949
C	0.3945189575574776 0.2238296816967649 0.0397261847237736	0.105877
C	0.5723709587658163 0.2521959841251782 0.1082239848549462	0.054536
C	0.6081914505758333 0.3077103783185977 0.1373774869901938	-0.130378
C	0.6774537149139230 0.3069510390750335 0.1397748931896849	-0.125193
C	0.7133332779664374 0.2502317891705155 0.1147403193985959	0.067806
C	0.6774458090701695 0.1943721719934162 0.0869335807025260	-0.120210
C	0.6082476187906122 0.1955991846366311 0.0828337864469488	-0.125667
C	0.1078241873576202 0.2183645556303863 0.1645410336590550	0.103680
C	0.0387101151958553 0.2170249358893150 0.1685186338823700	-0.176754
C	0.0009958233252736 0.2471090951802400 0.1051601335530228	0.105548
C	0.0362624186010245 0.2770364151639275 0.0394581399958492	-0.178952
C	0.1054810064425195 0.2761703423032370 0.0397261847237736	0.105877
C	0.9276289932341868 0.2478039918748197 0.1082239848549462	0.054538
C	0.8918085974241635 0.1922896566814016 0.1373774869901938	-0.130377
C	0.8225462850860770 0.1930489729249605 0.1397748931896849	-0.125192
C	0.7866667220335626 0.2497681868294826 0.1147403193985959	0.067803
C	0.8225542379298308 0.3056278280065838 0.0869335807025260	-0.120209
C	0.8917524772093887 0.3044008503633682 0.0828337864469488	-0.125663
C	0.2816354683696157 0.1078241873576202 0.1645410336590550	0.103680
C	0.2829750881106869 0.0387101151958553 0.1685186338823700	-0.176758
C	0.2528909048197601 0.0009958233252736 0.1051601335530228	0.105550
C	0.2229635848360724 0.0362624186010245 0.0394581399958492	-0.178948
C	0.2238296816967649 0.1054810064425195 0.0397261847237736	0.105877
C	0.2521959841251782 0.9276289932341868 0.1082239848549462	0.054537
C	0.3077103783185977 0.8918085974241635 0.1373774869901938	-0.130376
C	0.3069510390750335 0.8225462850860770 0.1397748931896849	-0.125193
C	0.2502317891705155 0.7866667220335626 0.1147403193985959	0.067805
C	0.1943721719934162 0.8225542379298308 0.0869335807025260	-0.120210
C	0.1955991846366311 0.8917524772093887 0.0828337864469488	-0.125664
C	0.2183645556303863 0.3921757886423849 0.1645410336590550	0.103685
C	0.2170249358893150 0.4612898248041469 0.1685186338823700	-0.176756
C	0.2471090951802400 0.4990041556747282 0.1051601335530228	0.105549
C	0.2770364151639275 0.4637376083989743 0.0394581399958492	-0.178952
C	0.2761703423032370 0.3945189575574776 0.0397261847237736	0.105878
C	0.2478039918748197 0.5723709587658163 0.1082239848549462	0.054537
C	0.1922896566814016 0.6081914505758333 0.1373774869901938	-0.130379
C	0.1930489729249605 0.6774537149139230 0.1397748931896849	-0.125192
C	0.2497681868294826 0.7133332779664374 0.1147403193985959	0.067803
C	0.3056278280065838 0.6774458090701695 0.0869335807025260	-0.120209
C	0.3044008503633682 0.6082476187906122 0.0828337864469488	-0.125666
H	0.3620991227606591 0.1964215817136946 0.7141037957988644	0.093199
H	0.4854425548938209 0.1942909750260150 0.7222706087753354	0.115036
H	0.4899185021930462 0.2998624215122009 0.4872523553138151	0.114855
H	0.3661869593910254 0.2984802615925055 0.4888106830983305	0.092808
H	0.5811680112308675 0.1477446206893544 0.6568657776423026	0.099869
H	0.7043818203414463 0.1495072833902007 0.6625404425854424	0.101932
H	0.7043343235873997 0.3497767147806988 0.5659776790477006	0.102537
H	0.5813383763752900 0.3481962432765640 0.5607681399285743	0.103486
H	0.1379008412393377 0.3035784422863074 0.7141037957988644	0.093197
H	0.0145574511061725 0.3057090489739870 0.7222706087753354	0.115039
H	0.0100814868069563 0.2001375904878001 0.4872523553138151	0.114852
H	0.1338130646089765 0.2015197264074935 0.4888106830983306	0.092809
H	0.9188320357691329 0.3522553793106457 0.6568657776423026	0.099869
H	0.7956181796585537 0.3504927046097984 0.6625404425854424	0.101932
H	0.7956656764126003 0.1502232972193022 0.5659776790477006	0.102541
H	0.9186616236247100 0.1518037447234421 0.5607681399285743	0.103489
H	0.3035784422863074 0.3620991227606591 0.7141037957988644	0.093199
H	0.3057090489739870 0.4854425548938209 0.7222706087753354	0.115039
H	0.2001375904878001 0.4899185021930462 0.4872523553138151	0.114853
H	0.2015197264074935 0.3661869593910254 0.4888106830983306	0.092808
H	0.3522553793106457 0.5811680112308675 0.6568657776423026	0.099867
H	0.3504927046097984 0.7043818203414463 0.6625404425854424	0.101931
H	0.1502232972193022 0.7043343235873997 0.5659776790477006	0.102539
H	0.1518037447234421 0.5813383763752900 0.5607681399285743	0.103489
H	0.1964215817136946 0.1379008412393377 0.7141037957988644	0.093198
H	0.1942909750260150 0.0145574511061725 0.7222706087753354	0.115036
H	0.2998624215122009 0.0100814868069563 0.4872523553138151	0.114853
H	0.2984802615925055 0.1338130646089765 0.4888106830983306	0.092809
H	0.1477446206893544 0.9188320357691329 0.6568657776423026	0.099869
H	0.1495072833902007 0.7956181796585537 0.6625404425854424	0.101933
H	0.3497767147806988 0.7956656764126003 0.5659776790477006	0.102539
H	0.3481962432765640 0.9186616236247100 0.5607681399285743	0.103486
H	0.6379008292393368 0.6964215817136945 0.7858962042011356	0.093198
H	0.5145573971061752 0.6942909510260129 0.7777293912246646	0.115036
H	0.5100814978069537 0.7998624215122008 0.0127476296861801	0.114853
H	0.6338130406089747 0.7984802375925035 0.0111893449016716	0.092807
H	0.4188319887691321 0.6477446206893545 0.8431342223576974	0.099869
H	0.2956182036585560 0.6495072953902016 0.8374595574145576	0.101933
H	0.2956656764126002 0.8497767147806986 0.9340223209522994	0.102539
H	0.4186616716247069 0.8481962672765592 0.9392318600714257	0.103488
H	0.8620992187606601 0.8035784662863095 0.7858962042011356	0.093198
H	0.9854425068938240 0.8057090489739871 0.7777293912246646	0.115038
H	0.9899184541930495 0.7001375784877992 0.0127476296861801	0.114855
H	0.8661868633910245 0.7015197624074965 0.0111893449016716	0.092810
H	0.0811680112308677 0.8522553793106455 0.8431342223576974	0.099867
H	0.2043817963414442 0.8504927046097984 0.8374595574145576	0.101931
H	0.2043343235873998 0.6502233332192983 0.9340223209522994	0.102540
H	0.0813383703752894 0.6518037327234408 0.9392318600714257	0.103487
H	0.6964215817136945 0.8620992187606601 0.7858962042011356	0.093198
H	0.6942909510260129 0.9854425068938240 0.7777293912246646	0.115037
H	0.7998624215122008 0.9899184541930495 0.0127476296861801	0.114856
H	0.7984802375925035 0.8661868633910245 0.0111893449016716	0.092810
H	0.6477446206893545 0.0811680112308677 0.8431342223576974	0.099869
H	0.6495072953902016 0.2043817963414442 0.8374595574145576	0.101932
H	0.8497767147806986 0.2043343235873998 0.9340223209522994	0.102539
H	0.8481962672765592 0.0813383703752894 0.9392318600714257	0.103486
H	0.8035784662863095 0.6379008292393368 0.7858962042011356	0.093198
H	0.8057090489739871 0.5145573971061752 0.7777293912246646	0.115037
H	0.7001375784877992 0.5100814978069537 0.0127476296861801	0.114852
H	0.7015197624074965 0.6338130406089747 0.0111893449016716	0.092807
H	0.8522553793106455 0.4188319887691321 0.8431342223576974	0.099866
H	0.8504927046097984 0.2956182036585560 0.8374595574145576	0.101932
H	0.6502233332192983 0.2956656764126002 0.9340223209522994	0.102541
H	0.6518037327234408 0.4186616716247069 0.9392318600714257	0.103488
H	0.6379008292393368 0.8035784662863095 0.2858962362011315	0.093197
H	0.5145573971061752 0.8057090489739871 0.2777294222246638	0.115038
H	0.5100814978069537 0.7001375784877992 0.5127476136861858	0.114852
H	0.6338130406089747 0.7015197624074965 0.5111893169016692	0.092808
H	0.4188319887691321 0.8522553793106455 0.3431341913576985	0.099865
H	0.2956182036585560 0.8504927046097984 0.3374595254145549	0.101934
H	0.2956656764126002 0.6502233332192983 0.4340223519522983	0.102543
H	0.4186616716247069 0.6518037327234408 0.4392319220714239	0.103486
H	0.8620992187606601 0.6964215817136945 0.2858962362011315	0.093199
H	0.9854425068938240 0.6942909510260129 0.2777294222246638	0.115036
H	0.9899184541930495 0.7998624215122008 0.5127476136861858	0.114855
H	0.8661868633910245 0.7984802375925035 0.5111893169016692	0.092808
H	0.0811680112308677 0.6477446206893545 0.3431341913576985	0.099865
H	0.2043817963414442 0.6495072953902016 0.3374595254145549	0.101934
H	0.2043343235873998 0.8497767147806986 0.4340223519522983	0.102538
H	0.0813383703752894 0.8481962672765592 0.4392319220714239	0.103483
H	0.6964215817136945 0.6379008292393368 0.2858962362011315	0.093197
H	0.6942909510260129 0.5145573971061752 0.2777294222246638	0.115036
H	0.7998624215122008 0.5100814978069537 0.5127476136861858	0.114853
H	0.7984802375925035 0.6338130406089747 0.5111893169016692	0.092808
H	0.6477446206893545 0.4188319887691321 0.3431341913576985	0.099866
H	0.6495072953902016 0.2956182036585560 0.3374595254145549	0.101936
H	0.8497767147806986 0.2956656764126002 0.4340223519522983	0.102541
H	0.8481962672765592 0.4186616716247069 0.4392319220714239	0.103483
H	0.8035784662863095 0.8620992187606601 0.2858962362011315	0.093198
H	0.8057090489739871 0.9854425068938240 0.2777294222246638	0.115038
H	0.7001375784877992 0.9899184541930495 0.5127476136861858	0.114854
H	0.7015197624074965 0.8661868633910245 0.5111893169016692	0.092808
H	0.8522553793106455 0.0811680112308677 0.3431341913576985	0.099864
H	0.8504927046097984 0.2043817963414442 0.3374595254145549	0.101933
H	0.6502233332192983 0.2043343235873998 0.4340223519522983	0.102541
H	0.6518037327234408 0.0813383703752894 0.4392319220714239	0.103486
H	0.3620991227606591 0.3035784422863074 0.2141037957988642	0.093198
H	0.4854425548938209 0.3057090489739870 0.2222706237753401	0.115037
H	0.4899185021930462 0.2001375904878001 0.9872524173138203	0.114853
H	0.3661869593910254 0.2015197264074935 0.9888106520983317	0.092809
H	0.5811680112308675 0.3522553793106457 0.1568657926423002	0.099866
H	0.7043818203414463 0.3504927046097984 0.1625404895854427	0.101932
H	0.7043343235873997 0.1502232972193022 0.0659776400477010	0.102540
H	0.5813383763752900 0.1518037447234421 0.0607681009285746	0.103485
H	0.1379008412393377 0.1964215817136946 0.2141037957988642	0.093198
H	0.0145574511061725 0.1942909750260150 0.2222706237753401	0.115036
H	0.0100814868069563 0.2998624215122009 0.9872524173138203	0.114852
H	0.1338130646089765 0.2984802615925055 0.9888106520983317	0.092807
H	0.9188320357691329 0.1477446206893544 0.1568657926423002	0.099868
H	0.7956181796585537 0.1495072833902007 0.1625404895854427	0.101934
H	0.7956656764126003 0.3497767147806988 0.0659776400477010	0.102539
H	0.9186616236247100 0.3481962432765640 0.0607681009285746	0.103486
H	0.3035784422863074 0.1379008412393377 0.2141037957988642	0.093198
H	0.3057090489739870 0.0145574511061725 0.2222706237753401	0.115036
H	0.2001375904878001 0.0100814868069563 0.9872524173138203	0.114851
H	0.2015197264074935 0.1338130646089765 0.9888106520983317	0.092807
H	0.3522553793106457 0.9188320357691329 0.1568657926423002	0.099865
H	0.3504927046097984 0.7956181796585537 0.1625404895854427	0.101933
H	0.1502232972193022 0.7956656764126003 0.0659776400477010	0.102541
H	0.1518037447234421 0.9186616236247100 0.0607681009285746	0.103486
H	0.1964215817136946 0.3620991227606591 0.2141037957988642	0.093198
H	0.1942909750260150 0.4854425548938209 0.2222706237753401	0.115037
H	0.2998624215122009 0.4899185021930462 0.9872524173138203	0.114855
H	0.2984802615925055 0.3661869593910254 0.9888106520983317	0.092809
H	0.1477446206893544 0.5811680112308675 0.1568657926423002	0.099868
H	0.1495072833902007 0.7043818203414463 0.1625404895854427	0.101933
H	0.3497767147806988 0.7043343235873997 0.0659776400477010	0.102538
H	0.3481962432765640 0.5813383763752900 0.0607681009285746	0.103484
Fe	0.2500000000000000 0.2500000000000000 0.6007800917559090	0.794041
Fe	0.7500000000000000 0.7500000000000000 0.8992199082440910	0.794041
Fe	0.7500000000000000 0.7500000000000000 0.3992198462440930	0.794037
Fe	0.2500000000000000 0.2500000000000000 0.1007801147559073	0.794037
Sn	0.2500000000000000 0.2500000000000000 0.3510234846867138	1.888645
Sn	0.7500000000000000 0.7500000000000000 0.1489765303132837	1.888645
Sn	0.7500000000000000 0.7500000000000000 0.6489766083132833	1.888644
Sn	0.2500000000000000 0.2500000000000000 0.8510233916867167	1.888645
	  	
