#======================================================================

# CRYSTAL DATA

#----------------------------------------------------------------------

data_VESTA_phase_1


_pd_phase_name                         SnFSIX_4_Cd_i
_cell_length_a                         24.42511
_cell_length_b                         21.21267
_cell_length_c                         9.41147
_cell_angle_alpha                      90
_cell_angle_beta                       90
_cell_angle_gamma                      90
_symmetry_space_group_name_H-M         P 1
_symmetry_Int_Tables_number            1

loop_
_symmetry_equiv_pos_as_xyz
   x, y, z

loop_
   _atom_site_label
   _atom_site_fract_x
   _atom_site_fract_y
   _atom_site_fract_z
   _atom_site_charge
C	0.4099096476789169 0.5939003505702077 0.6283677395195288	0.105541
C	0.3677759325083190 0.5499975457409690 0.6260276268367356	-0.170761
C	0.2755880206229692 0.4501380345574298 0.6255081588414559	-0.117024
C	0.2317956284250949 0.4084439214027911 0.6243246239588320	-0.114260
C	0.1348704178358300 0.3240782775138104 0.6228570371615830	-0.167616
C	0.0895803916219226 0.2845496278176828 0.6265949760394738	0.098773
C	0.9099097306789130 0.0939003615702125 0.6283677395195288	0.105518
C	0.8677758905083224 0.0499974877409707 0.6260276268367356	-0.170764
C	0.7755880416229741 0.9501380815574303 0.6255081588414559	-0.117024
C	0.7317956084250935 0.9084439674027877 0.6243246239588320	-0.114260
C	0.6348704178358300 0.8240783245138114 0.6228570371615830	-0.167616
C	0.5895803766219178 0.7845497208176799 0.6265949760394738	0.098773
C	0.5900903523210832 0.4060996034297881 0.1283677475195299	0.105518
C	0.6322241094916776 0.4500025002590355 0.1260276418367333	-0.170765
C	0.7244119583770259 0.5498619184425697 0.1255081668414566	-0.117038
C	0.7682043915749065 0.5915560785972090 0.1243246319588327	-0.114261
C	0.8651295821641700 0.6759217224861890 0.1228570441615867	-0.167616
C	0.9104196233780822 0.7154503261823204 0.1265949910394720	0.098772
C	0.0900903633210876 0.9060996964297926 0.1283677475195299	0.105542
C	0.1322240674916811 0.9500024082590343 0.1260276418367333	-0.170761
C	0.2244120003770289 0.0498619654425701 0.1255081668414566	-0.117024
C	0.2682043505749064 0.0915560555972106 0.1243246319588327	-0.114260
C	0.3651296241641736 0.1759217334861867 0.1228570441615867	-0.167615
C	0.4104196233780820 0.2154503961823192 0.1265949910394720	0.098772
C	0.5900903523210832 0.5939003505702077 0.8716322294804721	0.105542
C	0.6322241094916776 0.5499975457409690 0.8739723421632654	-0.170761
C	0.7244119583770259 0.4501380345574298 0.8744918721585431	-0.117024
C	0.7682043915749065 0.4084439214027911 0.8756754070411670	-0.114260
C	0.8651295821641700 0.3240782775138104 0.8771429938384160	-0.167616
C	0.9104196233780822 0.2845496278176829 0.8734050549605253	0.098773
C	0.0900903633210876 0.0939003615702125 0.8716322294804721	0.105518
C	0.1322240674916811 0.0499974877409707 0.8739723421632654	-0.170765
C	0.2244120003770289 0.9501380815574303 0.8744918721585431	-0.117024
C	0.2682043505749064 0.9084439674027877 0.8756754070411670	-0.114260
C	0.3651296241641736 0.8240783245138114 0.8771429938384160	-0.167616
C	0.4104196233780820 0.7845497208176799 0.8734050549605252	0.098772
C	0.4099096476789169 0.4060996034297881 0.3716322604804708	0.105518
C	0.3677759325083190 0.4500025002590355 0.3739723421632652	-0.170765
C	0.2755880206229692 0.5498619184425697 0.3744918411585439	-0.117038
C	0.2317956284250949 0.5915560785972090 0.3756753450411691	-0.114261
C	0.1348704178358300 0.6759217224861890 0.3771429318384115	-0.167616
C	0.0895803916219226 0.7154503261823204 0.3734049929605267	0.098772
C	0.9099097306789130 0.9060996964297926 0.3716322604804708	0.105542
C	0.8677758905083224 0.9500024082590343 0.3739723421632652	-0.170761
C	0.7755880416229741 0.0498619654425701 0.3744918411585439	-0.117024
C	0.7317956084250935 0.0915560555972106 0.3756753450411691	-0.114260
C	0.6348704178358300 0.1759217334861867 0.3771429318384115	-0.167615
C	0.5895803766219178 0.2154503961823192 0.3734049929605267	0.098772
C	0.5900903523210832 0.4060996034297881 0.3716322604804708	0.105519
C	0.6322241094916776 0.4500025002590355 0.3739723421632652	-0.170765
C	0.7244119583770259 0.5498619184425697 0.3744918411585439	-0.117038
C	0.7682043915749065 0.5915560785972090 0.3756753450411691	-0.114261
C	0.8651295821641700 0.6759217224861890 0.3771429318384115	-0.167616
C	0.9104196233780822 0.7154503261823204 0.3734049929605267	0.098774
C	0.0900903633210876 0.9060996964297926 0.3716322604804708	0.105542
C	0.1322240674916811 0.9500024082590343 0.3739723421632652	-0.170761
C	0.2244120003770289 0.0498619654425701 0.3744918411585439	-0.117024
C	0.2682043505749064 0.0915560555972106 0.3756753450411691	-0.114260
C	0.3651296241641737 0.1759217334861867 0.3771429318384114	-0.167616
C	0.4104196233780820 0.2154503961823192 0.3734049929605267	0.098773
C	0.4099096476789169 0.5939003505702077 0.8716322294804721	0.105542
C	0.3677759325083190 0.5499975457409690 0.8739723421632654	-0.170761
C	0.2755880206229692 0.4501380345574298 0.8744918721585431	-0.117024
C	0.2317956284250949 0.4084439214027911 0.8756754070411670	-0.114260
C	0.1348704178358300 0.3240782775138104 0.8771429938384160	-0.167616
C	0.0895803916219226 0.2845496278176829 0.8734050549605252	0.098774
C	0.9099097306789130 0.0939003615702125 0.8716322294804721	0.105519
C	0.8677758905083224 0.0499974877409707 0.8739723421632654	-0.170764
C	0.7755880416229741 0.9501380815574303 0.8744918721585431	-0.117024
C	0.7317956084250935 0.9084439674027877 0.8756754070411670	-0.114260
C	0.6348704178358300 0.8240783245138114 0.8771429938384160	-0.167617
C	0.5895803766219178 0.7845497208176799 0.8734050549605252	0.098774
C	0.4099096476789169 0.4060996034297881 0.1283677475195298	0.105519
C	0.3677759325083190 0.4500025002590355 0.1260276418367333	-0.170765
C	0.2755880206229692 0.5498619184425697 0.1255081668414566	-0.117038
C	0.2317956284250949 0.5915560785972090 0.1243246319588327	-0.114261
C	0.1348704178358300 0.6759217224861890 0.1228570441615867	-0.167616
C	0.0895803916219226 0.7154503261823204 0.1265949910394720	0.098774
C	0.9099097306789130 0.9060996964297926 0.1283677475195299	0.105543
C	0.8677758905083224 0.9500024082590343 0.1260276418367333	-0.170761
C	0.7755880416229741 0.0498619654425701 0.1255081668414566	-0.117024
C	0.7317956084250935 0.0915560555972106 0.1243246319588327	-0.114260
C	0.6348704178358300 0.1759217334861867 0.1228570441615867	-0.167616
C	0.5895803766219178 0.2154503961823192 0.1265949910394720	0.098774
C	0.5900903523210832 0.5939003505702077 0.6283677395195288	0.105543
C	0.6322241094916776 0.5499975457409690 0.6260276268367356	-0.170761
C	0.7244119583770259 0.4501380345574298 0.6255081588414559	-0.117024
C	0.7682043915749065 0.4084439214027911 0.6243246239588320	-0.114260
C	0.8651295821641700 0.3240782775138104 0.6228570371615830	-0.167616
C	0.9104196233780822 0.2845496278176829 0.6265949760394737	0.098774
C	0.0900903633210876 0.0939003615702125 0.6283677395195288	0.105519
C	0.1322240674916811 0.0499974877409707 0.6260276268367356	-0.170765
C	0.2244120003770289 0.9501380815574303 0.6255081588414559	-0.117024
C	0.2682043505749064 0.9084439674027877 0.6243246239588320	-0.114260
C	0.3651296241641736 0.8240783245138114 0.6228570371615830	-0.167616
C	0.4104196233780820 0.7845497208176799 0.6265949760394738	0.098774
C	0.3443753330072947 0.5239947662816071 0.7500000149999977	0.115654
C	0.2992337077512759 0.4753423924165979 0.7500000149999977	0.070519
C	0.2072926490790071 0.3870307053054847 0.7500000149999977	0.066587
C	0.1591332169324440 0.3449218929687046 0.7500000149999977	0.104506
C	0.8443752910072984 0.0239947492816096 0.7500000149999977	0.115696
C	0.7992337697512740 0.9753423454165977 0.7500000149999977	0.070514
C	0.7072926490790066 0.8870307283054834 0.7500000149999977	0.066587
C	0.6591332169324445 0.8449218239687023 0.7500000149999977	0.104506
C	0.6556246669927053 0.4760052797183893 0.2500000000000000	0.115697
C	0.7007662302487260 0.5246576075834020 0.2500000000000000	0.070515
C	0.7927073509209934 0.6129693186945170 0.2500000000000000	0.066589
C	0.8408668240675624 0.6550780840312972 0.2500000000000000	0.104506
C	0.1556246779927028 0.9760053267183899 0.2500000000000000	0.115654
C	0.2007663132487220 0.0246576105833989 0.2500000000000000	0.070518
C	0.2927073509209929 0.1129692716945166 0.2500000000000000	0.066588
C	0.3408667830675556 0.1550781180312998 0.2500000000000000	0.104506
C	0.6556246669927053 0.5239947662816071 0.7500000149999977	0.115654
C	0.7007662302487260 0.4753423924165979 0.7500000149999977	0.070518
C	0.7927073509209934 0.3870307053054847 0.7500000149999977	0.066587
C	0.8408668240675624 0.3449218929687046 0.7500000149999977	0.104506
C	0.1556246779927028 0.0239947492816096 0.7500000149999977	0.115696
C	0.2007663132487220 0.9753423454165977 0.7500000149999977	0.070514
C	0.2927073509209929 0.8870307283054834 0.7500000149999977	0.066587
C	0.3408667830675556 0.8449218239687023 0.7500000149999977	0.104506
C	0.3443753330072947 0.4760052797183893 0.2500000000000000	0.115697
C	0.2992337077512759 0.5246576075834020 0.2500000000000000	0.070515
C	0.2072926490790071 0.6129693186945170 0.2500000000000000	0.066589
C	0.1591332169324440 0.6550780840312972 0.2500000000000000	0.104506
C	0.8443752910072984 0.9760053267183899 0.2500000000000000	0.115654
C	0.7992337697512740 0.0246576105833989 0.2500000000000000	0.070518
C	0.7072926490790066 0.1129692716945166 0.2500000000000000	0.066588
C	0.6591332169324445 0.1550781180312998 0.2500000000000000	0.104505
H	0.4269588306064312 0.6119155562627843 0.5289372897113405	0.103006
H	0.3552070157762561 0.5377987505274688 0.5202638003832938	0.105956
H	0.2905041983839387 0.4618324869138136 0.5215426144846295	0.086654
H	0.2169690062644938 0.3929831624110321 0.5209454139684134	0.104079
H	0.1506923785193934 0.3378878516450373 0.5194109916772420	0.119596
H	0.0705285088970935 0.2675371958212198 0.5285936092522371	0.103416
H	0.9269587886064282 0.1119155912627838 0.5289372897113405	0.103007
H	0.8552069747762566 0.0377986865274633 0.5202638003832938	0.105958
H	0.7905041773839406 0.9618324869138136 0.5215426144846295	0.086654
H	0.7169689642644905 0.8929830934110371 0.5209454139684134	0.104079
H	0.6506923685193924 0.8378878516450368 0.5194109916772420	0.119596
H	0.5705285398970931 0.7675371728212217 0.5285936092522371	0.103416
H	0.5730411693935683 0.3880844437372158 0.0289373517113389	0.103007
H	0.6447929842237435 0.4622012964725319 0.0202638003832939	0.105958
H	0.7094958226160594 0.5381674670861826 0.0215426764846273	0.086670
H	0.7830310357355095 0.6070168145889624 0.0209453529684118	0.104079
H	0.8493076314806076 0.6621121023549594 0.0194109916772420	0.119596
H	0.9294714191029071 0.7324628271787783 0.0285935782522383	0.103416
H	0.0730411753935692 0.8880844437372157 0.0289373517113389	0.103006
H	0.1447930252237439 0.9622012964725315 0.0202638003832939	0.105958
H	0.2094958226160594 0.0381675100861827 0.0215426764846273	0.086654
H	0.2830309937355058 0.1070168485889651 0.0209453529684118	0.104080
H	0.3493076314806075 0.1621121253549574 0.0194109916772420	0.119596
H	0.4294714601029077 0.2324628041787802 0.0285935782522383	0.103416
H	0.5730411693935683 0.6119155562627843 -0.0289373087113389	0.103006
H	0.6447929842237435 0.5377987505274688 -0.0202638273832998	0.105956
H	0.7094958226160594 0.4618324869138136 -0.0215426324846239	0.086654
H	0.7830310357355095 0.3929831624110321 -0.0209454069684091	0.104079
H	0.8493076314806076 0.3378878516450373 -0.0194109916772421	0.119596
H	0.9294714191029071 0.2675371958212198 -0.0285936162522413	0.103416
H	0.0730411753935692 0.1119155912627838 -0.0289373087113389	0.103007
H	0.1447930252237439 0.0377986865274633 -0.0202638273832997	0.105958
H	0.2094958226160594 0.9618324869138136 -0.0215426324846239	0.086654
H	0.2830309937355058 0.8929830934110371 -0.0209454069684091	0.104079
H	0.3493076314806075 0.8378878516450368 -0.0194109916772421	0.119596
H	0.4294714601029077 0.7675371728212217 -0.0285936162522413	0.103416
H	0.4269588306064312 0.3880844437372158 0.4710626792886599	0.103007
H	0.3552070157762561 0.4622012964725319 0.4797362306167050	0.105958
H	0.2905041983839387 0.5381674670861826 0.4784573545153714	0.086670
H	0.2169690062644938 0.6070168145889624 0.4790545550315874	0.104079
H	0.1506923785193934 0.6621121023549594 0.4805889773227590	0.119596
H	0.0705285088970934 0.7324628271787784 0.4714063907477628	0.103416
H	0.9269587886064282 0.8880844437372157 0.4710626792886599	0.103006
H	0.8552069747762566 0.9622012964725315 0.4797362306167050	0.105958
H	0.7905041773839406 0.0381675100861827 0.4784573545153714	0.086653
H	0.7169689642644905 0.1070168485889651 0.4790545550315874	0.104079
H	0.6506923685193924 0.1621121253549574 0.4805889773227590	0.119596
H	0.5705285398970931 0.2324628041787802 0.4714063907477630	0.103416
H	0.5730411693935683 0.3880844437372158 0.4710626792886599	0.103007
H	0.6447929842237435 0.4622012964725319 0.4797362306167050	0.105958
H	0.7094958226160594 0.5381674670861826 0.4784573545153714	0.086670
H	0.7830310357355095 0.6070168145889624 0.4790545550315874	0.104079
H	0.8493076314806076 0.6621121023549594 0.4805889773227590	0.119596
H	0.9294714191029071 0.7324628271787784 0.4714063907477630	0.103416
H	0.0730411753935692 0.8880844437372157 0.4710626792886599	0.103006
H	0.1447930252237439 0.9622012964725315 0.4797362306167050	0.105958
H	0.2094958226160594 0.0381675100861827 0.4784573545153714	0.086654
H	0.2830309937355058 0.1070168485889651 0.4790545550315874	0.104080
H	0.3493076314806075 0.1621121253549574 0.4805889773227590	0.119596
H	0.4294714601029077 0.2324628041787802 0.4714063907477628	0.103416
H	0.4269588306064312 0.6119155562627843 -0.0289373087113389	0.103006
H	0.3552070157762561 0.5377987505274688 -0.0202638273832997	0.105956
H	0.2905041983839387 0.4618324869138136 -0.0215426324846240	0.086654
H	0.2169690062644938 0.3929831624110321 -0.0209454069684091	0.104079
H	0.1506923785193934 0.3378878516450373 -0.0194109916772421	0.119596
H	0.0705285088970934 0.2675371958212198 -0.0285936162522413	0.103416
H	0.9269587886064282 0.1119155912627838 -0.0289373087113389	0.103007
H	0.8552069747762566 0.0377986865274633 -0.0202638273832997	0.105958
H	0.7905041773839406 0.9618324869138136 -0.0215426324846239	0.086654
H	0.7169689642644905 0.8929830934110371 -0.0209454069684091	0.104079
H	0.6506923685193924 0.8378878516450368 -0.0194109916772421	0.119596
H	0.5705285398970931 0.7675371728212217 -0.0285936162522413	0.103416
H	0.4269588306064312 0.3880844437372158 0.0289373517113389	0.103007
H	0.3552070157762561 0.4622012964725319 0.0202638003832939	0.105958
H	0.2905041983839387 0.5381674670861826 0.0215426764846273	0.086670
H	0.2169690062644938 0.6070168145889624 0.0209453529684118	0.104079
H	0.1506923785193934 0.6621121023549594 0.0194109916772420	0.119596
H	0.0705285088970934 0.7324628271787784 0.0285935782522383	0.103416
H	0.9269587886064282 0.8880844437372157 0.0289373517113389	0.103006
H	0.8552069747762566 0.9622012964725315 0.0202638003832939	0.105958
H	0.7905041773839406 0.0381675100861827 0.0215426764846273	0.086654
H	0.7169689642644905 0.1070168485889651 0.0209453529684118	0.104080
H	0.6506923685193924 0.1621121253549574 0.0194109916772420	0.119596
H	0.5705285398970931 0.2324628041787802 0.0285935782522383	0.103416
H	0.5730411693935683 0.6119155562627843 0.5289372897113405	0.103006
H	0.6447929842237435 0.5377987505274688 0.5202638003832938	0.105956
H	0.7094958226160594 0.4618324869138136 0.5215426144846296	0.086654
H	0.7830310357355095 0.3929831624110321 0.5209454139684134	0.104080
H	0.8493076314806076 0.3378878516450373 0.5194109916772420	0.119596
H	0.9294714191029071 0.2675371958212198 0.5285936092522371	0.103417
H	0.0730411753935692 0.1119155912627838 0.5289372897113405	0.103007
H	0.1447930252237439 0.0377986865274633 0.5202638003832938	0.105958
H	0.2094958226160594 0.9618324869138136 0.5215426144846295	0.086654
H	0.2830309937355058 0.8929830934110371 0.5209454139684134	0.104080
H	0.3493076314806075 0.8378878516450368 0.5194109916772420	0.119596
H	0.4294714601029077 0.7675371728212216 0.5285936092522371	0.103417
Cd	0.5000000000000000 0.6891143115245937 0.7500000149999977	0.821112
Cd	0.0000000000000000 0.1891143695245912 0.7500000149999977	0.821112
Cd	0.5000000000000000 0.3108856184754077 0.2500000000000000	0.821112
Cd	0.0000000000000000 0.8108856884754063 0.2500000000000000	0.821111
F	0.5000000000000000 0.6839500163128091 0.4734539927424404	-0.580423
F	0.0000000000000000 0.1839500513128082 0.4734539927424404	-0.580422
F	0.5000000000000000 0.3160499606871858 0.9734539927424403	-0.580422
F	0.0000000000000000 0.8160499836871909 0.9734539927424403	-0.580423
F	0.5000000000000000 0.6839500163128091 0.0265459932575587	-0.580423
F	0.0000000000000000 0.1839500513128082 0.0265459932575587	-0.580422
F	0.5000000000000000 0.3160499606871858 0.5265459772575573	-0.580422
F	0.0000000000000000 0.8160499836871909 0.5265459772575573	-0.580423
F	0.4418472349476010 0.7477519474860230 0.2500000000000000	-0.585406
F	0.5577241807096111 0.6155673698466767 0.2500000000000000	-0.575445
F	0.9418472349476014 0.2477519474860226 0.2500000000000000	-0.585406
F	0.0577242017096164 0.1155673698466768 0.2500000000000000	-0.575445
F	0.5581527240523988 0.2522480295139788 0.7500000149999977	-0.585406
F	0.4422758192903888 0.3844326301533231 0.7500000149999977	-0.575445
F	0.0581527760524035 0.7522480525139770 0.7500000149999977	-0.585406
F	0.9422758192903889 0.8844326301533233 0.7500000149999977	-0.575445
F	0.5581527240523988 0.7477519474860230 0.2500000000000000	-0.585406
F	0.4422758192903888 0.6155673698466767 0.2500000000000000	-0.575445
F	0.0581527760524035 0.2477519474860226 0.2500000000000000	-0.585406
F	0.9422758192903889 0.1155673698466768 0.2500000000000000	-0.575445
F	0.4418472349476010 0.2522480295139788 0.7500000149999977	-0.585406
F	0.5577241807096111 0.3844326301533231 0.7500000149999977	-0.575445
F	0.9418472349476014 0.7522480525139770 0.7500000149999977	-0.585406
F	0.0577242017096164 0.8844326301533233 0.7500000149999977	-0.575445
N	0.4314589247399809 0.6156094626194319 0.7500000149999977	-0.233713
N	0.5673682958580194 0.7649669838416077 0.7500000149999977	-0.246509
N	0.9314588837399741 0.1156094506194311 0.7500000149999977	-0.233706
N	0.0673682698580174 0.2649669608416020 0.7500000149999977	-0.246510
N	0.5685410752600190 0.3843905373805681 0.2500000000000000	-0.233706
N	0.4326317041419802 0.2350330391583980 0.2500000000000000	-0.246509
N	0.0685410752600190 0.8843905373805681 0.2500000000000000	-0.233712
N	0.9326317451419804 0.7350330161583923 0.2500000000000000	-0.246509
N	0.5685410752600190 0.6156094626194319 0.7500000149999977	-0.233713
N	0.4326317041419802 0.7649669838416077 0.7500000149999977	-0.246509
N	0.0685410752600190 0.1156094506194311 0.7500000149999977	-0.233705
N	0.9326317451419804 0.2649669608416020 0.7500000149999977	-0.246510
N	0.4314589247399809 0.3843905373805681 0.2500000000000000	-0.233705
N	0.5673682958580194 0.2350330391583980 0.2500000000000000	-0.246509
N	0.9314588837399741 0.8843905373805681 0.2500000000000000	-0.233713
N	0.0673682698580174 0.7350330161583923 0.2500000000000000	-0.246509
Sn	0.5000000000000000 0.6820057519004508 0.2500000000000000	1.877900
Sn	0.0000000000000000 0.1820057759004529 0.2500000000000000	1.877900
Sn	0.5000000000000000 0.3179942010995488 0.7500000149999977	1.877900
Sn	0.0000000000000000 0.8179942480995492 0.7500000149999977	1.877900
	  	
