#======================================================================

# CRYSTAL DATA

#----------------------------------------------------------------------

data_VESTA_phase_1


_pd_phase_name                         SnFSIX_3_Cu
_cell_length_a                         14.52769
_cell_length_b                         14.52769
_cell_length_c                         7.95837
_cell_angle_alpha                      90
_cell_angle_beta                       90
_cell_angle_gamma                      90
_symmetry_space_group_name_H-M         P 1
_symmetry_Int_Tables_number            1

loop_
_symmetry_equiv_pos_as_xyz
   x, y, z

loop_
   _atom_site_label
   _atom_site_fract_x
   _atom_site_fract_y
   _atom_site_fract_z
   _atom_site_charge
C	0.2707747371248254 0.4519823826424741 0.6393157025019364	0.071723
C	0.2292252628751747 0.0480176213575261 0.6393157025019364	0.071724
C	0.2292252628751747 0.4519823826424741 0.3606842654980610	0.071723
C	0.2707747371248254 0.0480176213575261 0.3606842654980610	0.071724
C	0.0480176213575261 0.2707747371248254 0.3606842654980610	0.071722
C	0.4519823826424741 0.2292252628751747 0.3606842654980610	0.071721
C	0.4519823826424741 0.2707747371248254 0.6393157025019364	0.071721
C	0.0480176213575261 0.2292252628751747 0.6393157025019364	0.071721
C	0.9519823146424755 0.2292252628751747 0.6393157025019364	0.071695
C	0.5480176853575245 0.2707747371248254 0.6393157025019364	0.071696
C	0.5480176853575245 0.2292252628751747 0.3606842654980610	0.071695
C	0.9519823146424755 0.2707747371248254 0.3606842654980610	0.071694
C	0.7292252798751730 0.0480176213575261 0.3606842654980610	0.071722
C	0.7707747201248270 0.4519823826424741 0.3606842654980610	0.071721
C	0.7707747201248270 0.0480176213575261 0.6393157025019364	0.071722
C	0.7292252798751730 0.4519823826424741 0.6393157025019364	0.071721
C	0.4519823826424741 0.7292252798751730 0.6393157025019364	0.071723
C	0.0480176213575261 0.7707747201248270 0.6393157025019364	0.071724
C	0.0480176213575261 0.7292252798751730 0.3606842654980610	0.071723
C	0.4519823826424741 0.7707747201248270 0.3606842654980610	0.071723
C	0.2292252628751747 0.5480176853575245 0.3606842654980610	0.071693
C	0.2707747371248254 0.9519823146424755 0.3606842654980610	0.071693
C	0.2707747371248254 0.5480176853575245 0.6393157025019364	0.071693
C	0.2292252628751747 0.9519823146424755 0.6393157025019364	0.071693
C	0.7707747201248270 0.9519823146424755 0.6393157025019364	0.071695
C	0.7292252798751730 0.5480176853575245 0.6393157025019364	0.071695
C	0.7292252798751730 0.9519823146424755 0.3606842654980610	0.071694
C	0.7707747201248270 0.5480176853575245 0.3606842654980610	0.071695
C	0.5480176853575245 0.7707747201248270 0.3606842654980610	0.071693
C	0.9519823146424755 0.7292252798751730 0.3606842654980610	0.071693
C	0.9519823146424755 0.7707747201248270 0.6393157025019364	0.071693
C	0.5480176853575245 0.7292252798751730 0.6393157025019364	0.071693
H	0.2876372610995638 0.4140724104338529 0.7534665449832020	0.110096
H	0.2123627049004333 0.0859275895661470 0.7534665449832020	0.110097
H	0.2123627049004333 0.4140724104338529 0.2465334240167989	0.110097
H	0.2876372610995638 0.0859275895661470 0.2465334240167989	0.110097
H	0.0859275895661470 0.2876372610995638 0.2465334240167989	0.110097
H	0.4140724104338529 0.2123627049004333 0.2465334240167989	0.110097
H	0.4140724104338529 0.2876372610995638 0.7534665449832021	0.110096
H	0.0859275895661470 0.2123627049004333 0.7534665449832020	0.110097
H	0.9140724784338585 0.2123627049004333 0.7534665449832020	0.110098
H	0.5859275215661415 0.2876372610995638 0.7534665449832020	0.110098
H	0.5859275215661415 0.2123627049004333 0.2465334240167989	0.110099
H	0.9140724784338585 0.2876372610995638 0.2465334240167989	0.110099
H	0.7123626709004378 0.0859275895661470 0.2465334240167989	0.110097
H	0.7876373290995622 0.4140724104338529 0.2465334240167989	0.110097
H	0.7876373290995622 0.0859275895661470 0.7534665449832020	0.110096
H	0.7123626709004378 0.4140724104338529 0.7534665449832020	0.110097
H	0.4140724104338529 0.7123626709004379 0.7534665449832020	0.110097
H	0.0859275895661470 0.7876373290995622 0.7534665449832020	0.110096
H	0.0859275895661470 0.7123626709004379 0.2465334240167989	0.110097
H	0.4140724104338529 0.7876373290995622 0.2465334240167989	0.110097
H	0.2123627049004333 0.5859275215661415 0.2465334240167989	0.110099
H	0.2876372610995638 0.9140724784338585 0.2465334240167989	0.110099
H	0.2876372610995638 0.5859275215661415 0.7534665449832020	0.110098
H	0.2123627049004333 0.9140724784338585 0.7534665449832020	0.110098
H	0.7876373290995622 0.9140724784338585 0.7534665449832020	0.110098
H	0.7123626709004378 0.5859275215661415 0.7534665449832020	0.110098
H	0.7123626709004378 0.9140724784338585 0.2465334240167989	0.110099
H	0.7876373290995622 0.5859275215661415 0.2465334240167989	0.110099
H	0.5859275215661415 0.7876373290995622 0.2465334240167989	0.110099
H	0.9140724784338585 0.7123626709004379 0.2465334240167989	0.110099
H	0.9140724784338585 0.7876373290995622 0.7534665449832020	0.110098
H	0.5859275215661415 0.7123626709004379 0.7534665449832020	0.110098
Cu	0.2500000000000000 0.2500000000000000 0.5000000000000000	0.796569
Cu	0.7500000340000028 0.2500000000000000 0.5000000000000000	0.796568
Cu	0.2500000000000000 0.7500000340000028 0.5000000000000000	0.796568
Cu	0.7500000340000028 0.7500000340000028 0.5000000000000000	0.796566
Sn	0.2500000000000000 0.2500000000000000 0.0000000000000000	1.857525
Sn	0.7500000340000028 0.2500000000000000 0.0000000000000000	1.857525
Sn	0.2500000000000000 0.7500000340000028 0.0000000000000000	1.857525
Sn	0.7500000340000028 0.7500000340000028 0.0000000000000000	1.857525
F	0.2500000000000000 0.2500000000000000 0.7400862649235416	-0.562655
F	0.2500000000000000 0.2500000000000000 0.2599137350764587	-0.562655
F	0.3458930392626742 0.3458930392626742 -0.0076851549478644	-0.544770
F	0.1541069607373257 0.1541069607373257 -0.0076851549478644	-0.544769
F	0.1541069607373257 0.3458930392626743 0.0076851759478626	-0.544769
F	0.3458930392626743 0.1541069607373257 0.0076851759478626	-0.544769
F	0.7500000340000028 0.2500000000000000 0.7400862649235416	-0.562655
F	0.7500000340000028 0.2500000000000000 0.2599137350764587	-0.562655
F	0.8458930732626773 0.3458930392626742 0.0076851759478626	-0.544770
F	0.6541069267373227 0.1541069607373257 0.0076851759478626	-0.544768
F	0.6541069267373227 0.3458930392626742 -0.0076851549478644	-0.544769
F	0.8458930732626773 0.1541069607373257 -0.0076851549478644	-0.544770
F	0.2500000000000000 0.7500000340000028 0.7400862649235416	-0.562655
F	0.2500000000000000 0.7500000340000028 0.2599137350764587	-0.562655
F	0.3458930392626742 0.8458930732626773 0.0076851759478626	-0.544770
F	0.1541069607373257 0.6541069267373227 0.0076851759478626	-0.544768
F	0.1541069607373257 0.8458930732626773 -0.0076851549478644	-0.544770
F	0.3458930392626743 0.6541069267373227 -0.0076851549478644	-0.544769
F	0.7500000340000028 0.7500000340000028 0.7400862649235416	-0.562654
F	0.7500000340000028 0.7500000340000028 0.2599137350764587	-0.562655
F	0.8458930732626773 0.8458930732626773 -0.0076851549478644	-0.544770
F	0.6541069267373227 0.6541069267373227 -0.0076851549478644	-0.544768
F	0.6541069267373227 0.8458930732626773 0.0076851759478626	-0.544769
F	0.8458930732626773 0.6541069267373227 0.0076851759478626	-0.544769
N	0.4039576598274810 0.2500000000000000 0.5000000000000000	-0.201040
N	0.0960423401725189 0.2500000000000000 0.5000000000000000	-0.201040
N	0.2500000000000000 0.4039576598274810 0.5000000000000000	-0.201042
N	0.2500000000000000 0.0960423401725189 0.5000000000000000	-0.201042
N	0.9039576598274812 0.2500000000000000 0.5000000000000000	-0.201034
N	0.5960423401725188 0.2500000000000000 0.5000000000000000	-0.201034
N	0.7500000340000028 0.4039576598274810 0.5000000000000000	-0.201042
N	0.7500000340000028 0.0960423401725189 0.5000000000000000	-0.201042
N	0.4039576598274810 0.7500000340000028 0.5000000000000000	-0.201041
N	0.0960423401725189 0.7500000340000028 0.5000000000000000	-0.201040
N	0.2500000000000000 0.9039576598274813 0.5000000000000000	-0.201036
N	0.2500000000000000 0.5960423401725188 0.5000000000000000	-0.201035
N	0.9039576598274812 0.7500000340000028 0.5000000000000000	-0.201034
N	0.5960423401725188 0.7500000340000028 0.5000000000000000	-0.201034
N	0.7500000340000028 0.9039576598274813 0.5000000000000000	-0.201036
N	0.7500000340000028 0.5960423401725188 0.5000000000000000	-0.201036
	  	
