#======================================================================

# CRYSTAL DATA

#----------------------------------------------------------------------

data_VESTA_phase_1


_pd_phase_name                         SnFSIX_4_Fe_i
_cell_length_a                         23.42187
_cell_length_b                         20.38125
_cell_length_c                         9.56550
_cell_angle_alpha                      90
_cell_angle_beta                       90
_cell_angle_gamma                      90
_symmetry_space_group_name_H-M         P 1
_symmetry_Int_Tables_number            1

loop_
_symmetry_equiv_pos_as_xyz
   x, y, z

loop_
   _atom_site_label
   _atom_site_fract_x
   _atom_site_fract_y
   _atom_site_fract_z
   _atom_site_charge
C	0.4172933134027020 0.5972075309534798 0.6300496655476795	0.096462
C	0.3735316027090116 0.5514750879007245 0.6279895848508429	-0.164836
C	0.2774808184832094 0.4489044493896796 0.6273117823123250	-0.115798
C	0.2312962221411043 0.4062550039712992 0.6260997358806680	-0.112673
C	0.1296480006589012 0.3194329418374606 0.6250126842760708	-0.164224
C	0.0831091002804358 0.2774190524869563 0.6284182253312639	0.088807
C	0.9172933964026981 0.0972075419534843 0.6300496655476795	0.096463
C	0.8735315607090154 0.0514750299007267 0.6279895848508429	-0.164836
C	0.7774808394832147 0.9489044963896801 0.6273117823123249	-0.115804
C	0.7312962021411019 0.9062550499712955 0.6260997358806680	-0.112642
C	0.6296480006589008 0.8194329888374606 0.6250126842760708	-0.164223
C	0.5831090852804313 0.7774191454869536 0.6284182253312639	0.088815
C	0.5827066865972981 0.4027924230465164 0.1300496735476799	0.096463
C	0.6264684392909846 0.4485249580992797 0.1279895998508405	-0.164837
C	0.7225191605167853 0.5510955036103199 0.1273117903123255	-0.115797
C	0.7687037978588981 0.5937449960287012 0.1260997438806687	-0.112673
C	0.8703519993410992 0.6805670581625397 0.1250126912760754	-0.164224
C	0.9168909147195687 0.7225809015130468 0.1284182403312616	0.088814
C	0.0827066975973025 0.9027925160465206 0.1300496735476799	0.096470
C	0.1264683972909885 0.9485248660992788 0.1279895998508405	-0.164814
C	0.2225192025167886 0.0510955506103204 0.1273117903123255	-0.115803
C	0.2687037568588977 0.0937449730287026 0.1260997438806687	-0.112643
C	0.3703520413411023 0.1805670691625370 0.1250126912760754	-0.164222
C	0.4168909147195689 0.2225809715130457 0.1284182403312616	0.088807
C	0.5827066865972981 0.5972075309534798 0.8699503034523215	0.096462
C	0.6264684392909846 0.5514750879007245 0.8720103841491581	-0.164836
C	0.7225191605167853 0.4489044493896796 0.8726882486876741	-0.115798
C	0.7687037978588981 0.4062550039712992 0.8739002951193310	-0.112673
C	0.8703519993410992 0.3194329418374606 0.8749873467239282	-0.164225
C	0.9168909147195687 0.2774190524869563 0.8715818056687351	0.088807
C	0.0827066975973025 0.0972075419534843 0.8699503034523215	0.096462
C	0.1264683972909885 0.0514750299007267 0.8720103841491581	-0.164836
C	0.2225192025167886 0.9489044963896801 0.8726882486876741	-0.115804
C	0.2687037568588977 0.9062550499712955 0.8739002951193310	-0.112643
C	0.3703520413411023 0.8194329888374606 0.8749873467239282	-0.164224
C	0.4168909147195689 0.7774191454869536 0.8715818056687351	0.088815
C	0.4172933134027020 0.4027924230465164 0.3699503344523207	0.096463
C	0.3735316027090116 0.4485249580992797 0.3720103841491579	-0.164837
C	0.2774808184832094 0.5510955036103199 0.3726882176876752	-0.115797
C	0.2312962221411043 0.5937449960287012 0.3739002331193328	-0.112673
C	0.1296480006589012 0.6805670581625397 0.3749872847239225	-0.164225
C	0.0831091002804358 0.7225809015130468 0.3715817436687369	0.088813
C	0.9172933964026981 0.9027925160465206 0.3699503344523207	0.096470
C	0.8735315607090154 0.9485248660992788 0.3720103841491579	-0.164814
C	0.7774808394832147 0.0510955506103204 0.3726882176876752	-0.115803
C	0.7312962021411019 0.0937449730287026 0.3739002331193328	-0.112643
C	0.6296480006589008 0.1805670691625370 0.3749872847239225	-0.164223
C	0.5831090852804313 0.2225809715130457 0.3715817436687369	0.088806
C	0.5827066865972981 0.4027924230465163 0.3699503344523207	0.096463
C	0.6264684392909846 0.4485249580992797 0.3720103841491579	-0.164837
C	0.7225191605167853 0.5510955036103199 0.3726882176876752	-0.115797
C	0.7687037978588981 0.5937449960287012 0.3739002331193328	-0.112673
C	0.8703519993410992 0.6805670581625397 0.3749872847239225	-0.164225
C	0.9168909147195687 0.7225809015130468 0.3715817436687369	0.088813
C	0.0827066975973025 0.9027925160465206 0.3699503344523207	0.096470
C	0.1264683972909885 0.9485248660992788 0.3720103841491579	-0.164814
C	0.2225192025167886 0.0510955506103204 0.3726882176876752	-0.115803
C	0.2687037568588977 0.0937449730287026 0.3739002331193328	-0.112643
C	0.3703520413411023 0.1805670691625370 0.3749872847239225	-0.164223
C	0.4168909147195689 0.2225809715130457 0.3715817436687369	0.088806
C	0.4172933134027020 0.5972075309534798 0.8699503034523215	0.096462
C	0.3735316027090116 0.5514750879007245 0.8720103841491581	-0.164836
C	0.2774808184832094 0.4489044493896796 0.8726882486876740	-0.115798
C	0.2312962221411043 0.4062550039712992 0.8739002951193310	-0.112673
C	0.1296480006589012 0.3194329418374606 0.8749873467239282	-0.164225
C	0.0831091002804358 0.2774190524869563 0.8715818056687351	0.088807
C	0.9172933964026981 0.0972075419534843 0.8699503034523215	0.096463
C	0.8735315607090154 0.0514750299007267 0.8720103841491581	-0.164836
C	0.7774808394832147 0.9489044963896801 0.8726882486876740	-0.115804
C	0.7312962021411019 0.9062550499712955 0.8739002951193310	-0.112642
C	0.6296480006589008 0.8194329888374606 0.8749873467239282	-0.164224
C	0.5831090852804313 0.7774191454869536 0.8715818056687351	0.088815
C	0.4172933134027020 0.4027924230465164 0.1300496735476799	0.096463
C	0.3735316027090116 0.4485249580992797 0.1279895998508405	-0.164837
C	0.2774808184832094 0.5510955036103199 0.1273117903123255	-0.115797
C	0.2312962221411043 0.5937449960287012 0.1260997438806687	-0.112673
C	0.1296480006589012 0.6805670581625397 0.1250126912760754	-0.164226
C	0.0831091002804358 0.7225809015130468 0.1284182403312616	0.088814
C	0.9172933964026981 0.9027925160465206 0.1300496735476799	0.096470
C	0.8735315607090154 0.9485248660992788 0.1279895998508405	-0.164814
C	0.7774808394832147 0.0510955506103204 0.1273117903123255	-0.115803
C	0.7312962021411019 0.0937449730287026 0.1260997438806687	-0.112643
C	0.6296480006589008 0.1805670691625370 0.1250126912760754	-0.164224
C	0.5831090852804313 0.2225809715130457 0.1284182403312616	0.088807
C	0.5827066865972981 0.5972075309534798 0.6300496655476795	0.096463
C	0.6264684392909846 0.5514750879007245 0.6279895848508429	-0.164836
C	0.7225191605167853 0.4489044493896796 0.6273117823123250	-0.115798
C	0.7687037978588981 0.4062550039712992 0.6260997358806680	-0.112673
C	0.8703519993410992 0.3194329418374606 0.6250126842760708	-0.164226
C	0.9168909147195687 0.2774190524869563 0.6284182253312639	0.088807
C	0.0827066975973025 0.0972075419534843 0.6300496655476795	0.096463
C	0.1264683972909885 0.0514750299007267 0.6279895848508429	-0.164836
C	0.2225192025167886 0.9489044963896801 0.6273117823123249	-0.115804
C	0.2687037568588977 0.9062550499712955 0.6260997358806680	-0.112642
C	0.3703520413411023 0.8194329888374606 0.6250126842760708	-0.164225
C	0.4168909147195689 0.7774191454869536 0.6284182253312639	0.088815
C	0.3492422135364134 0.5245996867601309 0.7500000149999977	0.116906
C	0.3021617219595393 0.4746257447552559 0.7500000149999977	0.072687
C	0.2055304498148139 0.3845144793079052 0.7500000149999977	0.065397
C	0.1550379417139929 0.3411710507955042 0.7500000149999977	0.100906
C	0.8492421715364169 0.0245996697601332 0.7500000149999977	0.116906
C	0.8021617839595372 0.9746256977552558 0.7500000149999977	0.072689
C	0.7055304498148141 0.8845145023079037 0.7500000149999977	0.065366
C	0.6550379417139932 0.8411709817955022 0.7500000149999977	0.100891
C	0.6507577864635867 0.4754003592398657 0.2500000000000000	0.116906
C	0.6978382160404628 0.5253742552447439 0.2500000000000000	0.072686
C	0.7944695501851859 0.6154855446920966 0.2500000000000000	0.065397
C	0.8449620992860137 0.6588289262044973 0.2500000000000000	0.100906
C	0.1507577974635840 0.9754004062398661 0.2500000000000000	0.116895
C	0.1978382990404589 0.0253742582447407 0.2500000000000000	0.072690
C	0.2944695501851859 0.1154854976920963 0.2500000000000000	0.065366
C	0.3449620582860073 0.1588289602045005 0.2500000000000000	0.100891
C	0.6507577864635867 0.5245996867601309 0.7500000149999977	0.116906
C	0.6978382160404628 0.4746257447552559 0.7500000149999977	0.072687
C	0.7944695501851859 0.3845144793079052 0.7500000149999977	0.065397
C	0.8449620992860137 0.3411710507955042 0.7500000149999977	0.100906
C	0.1507577974635840 0.0245996697601332 0.7500000149999977	0.116906
C	0.1978382990404589 0.9746256977552558 0.7500000149999977	0.072690
C	0.2944695501851860 0.8845145023079037 0.7500000149999977	0.065366
C	0.3449620582860073 0.8411709817955022 0.7500000149999977	0.100892
C	0.3492422135364134 0.4754003592398657 0.2500000000000000	0.116906
C	0.3021617219595393 0.5253742552447439 0.2500000000000000	0.072687
C	0.2055304498148139 0.6154855446920966 0.2500000000000000	0.065397
C	0.1550379417139929 0.6588289262044973 0.2500000000000000	0.100906
C	0.8492421715364169 0.9754004062398661 0.2500000000000000	0.116894
C	0.8021617839595372 0.0253742582447407 0.2500000000000000	0.072690
C	0.7055304498148141 0.1154854976920963 0.2500000000000000	0.065366
C	0.6550379417139932 0.1588289602045005 0.2500000000000000	0.100891
H	0.4350977460428134 0.6163926154027369 0.5328363185718634	0.105804
H	0.3601799432807619 0.5387666883973260 0.5241124499474499	0.105268
H	0.2937281706737087 0.4609644299496143 0.5255285575151294	0.086252
H	0.2155802594981781 0.3901950876506828 0.5245168081145860	0.104165
H	0.1455941055073188 0.3340351288477168 0.5228577823504162	0.123111
H	0.0632398489384893 0.2593545504197063 0.5324170126516466	0.107518
H	0.9350977040428100 0.1163926504027357 0.5328363185718635	0.105803
H	0.8601799022807619 0.0387666243973210 0.5241124499474499	0.105267
H	0.7937281496737103 0.9609644299496143 0.5255285575151294	0.086252
H	0.7155802174981745 0.8901950186506878 0.5245168081145860	0.104161
H	0.6455940955073186 0.8340351288477169 0.5228577823504162	0.123110
H	0.5632398799384880 0.7593545274197080 0.5324170126516466	0.107516
H	0.5649022539571865 0.3836073845972639 0.0328363805718614	0.105803
H	0.6398200567192383 0.4612333586026742 0.0241124499474493	0.105268
H	0.7062718503262897 0.5390355240503819 0.0255286195151271	0.086252
H	0.7844197825018255 0.6098048893493117 0.0245167471145848	0.104165
H	0.8544059044926814 0.6659648251522793 0.0228577823504162	0.123110
H	0.9367600790615122 0.7406454725802920 0.0324169816516473	0.107516
H	0.0649022599571871 0.8836073845972631 0.0328363805718614	0.105797
H	0.1398200977192378 0.9612333586026743 0.0241124499474493	0.105265
H	0.2062718503262896 0.0390355670503820 0.0255286195151271	0.086253
H	0.2844197405018219 0.1098049233493146 0.0245167471145848	0.104161
H	0.3544059044926819 0.1659648481522776 0.0228577823504162	0.123110
H	0.4367601200615115 0.2406454495802937 0.0324169816516473	0.107518
H	0.5649022539571865 0.6163926154027369 -0.0328363375718615	0.105803
H	0.6398200567192381 0.5387666883973260 -0.0241124769474553	0.105267
H	0.7062718503262897 0.4609644299496143 -0.0255285755151233	0.086252
H	0.7844197825018255 0.3901950876506828 -0.0245168011145821	0.104165
H	0.8544059044926814 0.3340351288477168 -0.0228577823504161	0.123111
H	0.9367600790615122 0.2593545504197063 -0.0324170196516504	0.107518
H	0.0649022599571871 0.1163926504027357 -0.0328363375718615	0.105803
H	0.1398200977192378 0.0387666243973210 -0.0241124769474553	0.105267
H	0.2062718503262896 0.9609644299496143 -0.0255285755151233	0.086252
H	0.2844197405018219 0.8901950186506878 -0.0245168011145821	0.104161
H	0.3544059044926819 0.8340351288477169 -0.0228577823504161	0.123110
H	0.4367601200615115 0.7593545274197080 -0.0324170196516504	0.107516
H	0.4350977460428134 0.3836073845972639 0.4671636504281375	0.105800
H	0.3601799432807619 0.4612333586026742 0.4758875810525496	0.105268
H	0.2937281706737087 0.5390355240503819 0.4744714114848722	0.086252
H	0.2155802594981781 0.6098048893493117 0.4754831608854145	0.104165
H	0.1455941055073188 0.6659648251522793 0.4771421866495850	0.123110
H	0.0632398489384893 0.7406454725802920 0.4675829873483539	0.107514
H	0.9350977040428100 0.8836073845972631 0.4671636504281375	0.105794
H	0.8601799022807619 0.9612333586026743 0.4758875810525496	0.105264
H	0.7937281496737103 0.0390355670503820 0.4744714114848722	0.086252
H	0.7155802174981745 0.1098049233493146 0.4754831608854145	0.104161
H	0.6455940955073186 0.1659648481522776 0.4771421866495850	0.123110
H	0.5632398799384880 0.2406454495802937 0.4675829873483539	0.107515
H	0.5649022539571865 0.3836073845972639 0.4671636504281375	0.105800
H	0.6398200567192381 0.4612333586026742 0.4758875810525496	0.105268
H	0.7062718503262897 0.5390355240503819 0.4744714114848722	0.086252
H	0.7844197825018255 0.6098048893493117 0.4754831608854145	0.104165
H	0.8544059044926814 0.6659648251522793 0.4771421866495850	0.123110
H	0.9367600790615122 0.7406454725802920 0.4675829873483539	0.107514
H	0.0649022599571871 0.8836073845972631 0.4671636504281375	0.105794
H	0.1398200977192378 0.9612333586026743 0.4758875810525496	0.105265
H	0.2062718503262896 0.0390355670503820 0.4744714114848722	0.086253
H	0.2844197405018219 0.1098049233493146 0.4754831608854145	0.104161
H	0.3544059044926819 0.1659648481522776 0.4771421866495850	0.123110
H	0.4367601200615115 0.2406454495802937 0.4675829873483539	0.107515
H	0.4350977460428134 0.6163926154027369 -0.0328363375718615	0.105803
H	0.3601799432807619 0.5387666883973260 -0.0241124769474553	0.105268
H	0.2937281706737087 0.4609644299496143 -0.0255285755151233	0.086252
H	0.2155802594981781 0.3901950876506828 -0.0245168011145821	0.104165
H	0.1455941055073188 0.3340351288477168 -0.0228577823504161	0.123110
H	0.0632398489384893 0.2593545504197063 -0.0324170196516504	0.107518
H	0.9350977040428100 0.1163926504027357 -0.0328363375718615	0.105803
H	0.8601799022807619 0.0387666243973210 -0.0241124769474553	0.105267
H	0.7937281496737103 0.9609644299496143 -0.0255285755151233	0.086252
H	0.7155802174981745 0.8901950186506878 -0.0245168011145821	0.104161
H	0.6455940955073186 0.8340351288477169 -0.0228577823504161	0.123110
H	0.5632398799384880 0.7593545274197080 -0.0324170196516504	0.107516
H	0.4350977460428134 0.3836073845972639 0.0328363805718614	0.105803
H	0.3601799432807619 0.4612333586026742 0.0241124499474493	0.105268
H	0.2937281706737087 0.5390355240503819 0.0255286195151271	0.086252
H	0.2155802594981781 0.6098048893493117 0.0245167471145848	0.104165
H	0.1455941055073188 0.6659648251522793 0.0228577823504162	0.123110
H	0.0632398489384893 0.7406454725802920 0.0324169816516473	0.107516
H	0.9350977040428100 0.8836073845972631 0.0328363805718614	0.105797
H	0.8601799022807620 0.9612333586026743 0.0241124499474493	0.105264
H	0.7937281496737103 0.0390355670503820 0.0255286195151271	0.086253
H	0.7155802174981745 0.1098049233493146 0.0245167471145848	0.104161
H	0.6455940955073186 0.1659648481522776 0.0228577823504162	0.123110
H	0.5632398799384880 0.2406454495802937 0.0324169816516473	0.107518
H	0.5649022539571865 0.6163926154027369 0.5328363185718634	0.105804
H	0.6398200567192381 0.5387666883973260 0.5241124499474499	0.105268
H	0.7062718503262897 0.4609644299496143 0.5255285575151294	0.086252
H	0.7844197825018255 0.3901950876506828 0.5245168081145860	0.104165
H	0.8544059044926814 0.3340351288477168 0.5228577823504162	0.123111
H	0.9367600790615122 0.2593545504197063 0.5324170126516466	0.107518
H	0.0649022599571871 0.1163926504027357 0.5328363185718634	0.105803
H	0.1398200977192378 0.0387666243973210 0.5241124499474499	0.105267
H	0.2062718503262896 0.9609644299496143 0.5255285575151294	0.086252
H	0.2844197405018219 0.8901950186506878 0.5245168081145860	0.104161
H	0.3544059044926819 0.8340351288477169 0.5228577823504162	0.123110
H	0.4367601200615115 0.7593545274197080 0.5324170126516466	0.107516
Fe	0.5000000000000000 0.6880942014451173 0.7500000149999977	0.612369
Fe	0.0000000000000000 0.1880942594451153 0.7500000149999977	0.612404
Fe	0.5000000000000000 0.3119057285548840 0.2500000000000000	0.612409
Fe	0.0000000000000000 0.8119057985548827 0.2500000000000000	0.612375
F	0.5000000000000000 0.6852419250766120 0.4695024769736200	-0.563942
F	0.0000000000000000 0.1852419600766111 0.4695024769736200	-0.563942
F	0.5000000000000000 0.3147580519233829 -0.0304975230263799	-0.563940
F	0.0000000000000000 0.8147580749233880 -0.0304975230263799	-0.563940
F	0.5000000000000000 0.6852419250766120 0.0304975090263788	-0.563942
F	0.0000000000000000 0.1852419600766111 0.0304975090263788	-0.563942
F	0.5000000000000000 0.3147580519233829 0.5304974930263772	-0.563913
F	0.0000000000000000 0.8147580749233880 0.5304974930263772	-0.563913
F	0.4393526609876411 0.7517566455114423 0.2500000000000000	-0.581439
F	0.5598898671087243 0.6136495509905585 0.2500000000000000	-0.571797
F	0.9393526609876415 0.2517566455114426 0.2500000000000000	-0.581440
F	0.0598898881087292 0.1136495509905592 0.2500000000000000	-0.571797
F	0.5606472980123587 0.2482433314885590 0.7500000149999977	-0.581439
F	0.4401101328912759 0.3863504490094408 0.7500000149999977	-0.571795
F	0.0606473500123632 0.7482433544885577 0.7500000149999977	-0.581439
F	0.9401101328912757 0.8863504490094415 0.7500000149999977	-0.571795
F	0.5606472980123587 0.7517566455114423 0.2500000000000000	-0.581440
F	0.4401101328912759 0.6136495509905585 0.2500000000000000	-0.571797
F	0.0606473500123632 0.2517566455114426 0.2500000000000000	-0.581440
F	0.9401101328912757 0.1136495509905592 0.2500000000000000	-0.571797
F	0.4393526609876411 0.2482433314885590 0.7500000149999977	-0.581439
F	0.5598898671087243 0.3863504490094408 0.7500000149999977	-0.571795
F	0.9393526609876415 0.7482433544885577 0.7500000149999977	-0.581439
F	0.0598898881087292 0.8863504490094415 0.7500000149999977	-0.571795
N	0.4396804468389733 0.6201183877751232 0.7500000149999977	-0.192902
N	0.5605678710379124 0.7559925200492009 0.7500000149999977	-0.199222
N	0.9396804058389666 0.1201183757751221 0.7500000149999977	-0.192906
N	0.0605678450379107 0.2559924970491959 0.7500000149999977	-0.199224
N	0.5603195531610264 0.3798816122248767 0.2500000000000000	-0.192907
N	0.4394321289620871 0.2440075029508043 0.2500000000000000	-0.199225
N	0.0603195531610267 0.8798816122248768 0.2500000000000000	-0.192931
N	0.9394321699620874 0.7440074799507991 0.2500000000000000	-0.199224
N	0.5603195531610264 0.6201183877751232 0.7500000149999977	-0.192902
N	0.4394321289620871 0.7559925200492009 0.7500000149999977	-0.199222
N	0.0603195531610267 0.1201183757751221 0.7500000149999977	-0.192906
N	0.9394321699620874 0.2559924970491959 0.7500000149999977	-0.199224
N	0.4396804468389733 0.3798816122248767 0.2500000000000000	-0.192907
N	0.5605678710379124 0.2440075029508043 0.2500000000000000	-0.199225
N	0.9396804058389666 0.8798816122248768 0.2500000000000000	-0.192932
N	0.0605678450379107 0.7440074799507991 0.2500000000000000	-0.199224
Sn	0.5000000000000000 0.6832493558094456 0.2500000000000000	1.855005
Sn	0.0000000000000000 0.1832493798094479 0.2500000000000000	1.855006
Sn	0.5000000000000000 0.3167505971905538 0.7500000149999977	1.854982
Sn	0.0000000000000000 0.8167506441905544 0.7500000149999977	1.854982
	  	
