#======================================================================

# CRYSTAL DATA

#----------------------------------------------------------------------

data_VESTA_phase_1


_pd_phase_name                         SnFSIX_16_Ni_i
_cell_length_a                         25.03855
_cell_length_b                         25.03855
_cell_length_c                         7.95392
_cell_angle_alpha                      90
_cell_angle_beta                       90
_cell_angle_gamma                      90
_symmetry_space_group_name_H-M         P 1
_symmetry_Int_Tables_number            1

loop_
_symmetry_equiv_pos_as_xyz
   x, y, z

loop_
   _atom_site_label
   _atom_site_fract_x
   _atom_site_fract_y
   _atom_site_fract_z
   _atom_site_charge
C	0.4781641698234143 0.3884585964296514 0.3713768391227047	0.102004
C	0.4773875540686241 0.3330311603976049 0.3662285964071571	-0.167678
C	0.9549550386417903 0.6134794680549153 0.9432751195469393	-0.124988
C	0.9551127796916467 0.5579988814114847 0.9440432188847357	-0.125050
C	0.5218358681765819 0.6115414415703446 0.3713768391227047	0.101999
C	0.5226124459313761 0.6669688776023910 0.3662285964071571	-0.167649
C	0.0450448853582107 0.3865204929450847 0.9432751195469393	-0.125023
C	0.0448872393083514 0.4420011565885184 0.9440432188847357	-0.125096
C	0.6115414415703446 0.4781641698234143 0.3713768391227047	0.101999
C	0.6669688776023910 0.4773875540686241 0.3662285964071571	-0.167649
C	0.3865204929450847 0.9549550386417903 0.9432751195469393	-0.125023
C	0.4420011565885184 0.9551127796916467 0.9440432188847357	-0.125096
C	0.3884585964296514 0.5218358681765819 0.3713768391227047	0.102004
C	0.3330311603976049 0.5226124459313761 0.3662285964071571	-0.167678
C	0.6134794680549153 0.0450448853582107 0.9432751195469393	-0.124988
C	0.5579988814114847 0.0448872393083514 0.9440432188847357	-0.125050
C	0.5218358681765819 0.3884585964296514 0.6286231608772953	0.102004
C	0.5226124459313761 0.3330311603976049 0.6337713715928400	-0.167678
C	0.0450448853582107 0.6134794680549153 0.0567248924530618	-0.124988
C	0.0448872393083514 0.5579988814114847 0.0559567571152625	-0.125050
C	0.4781641698234143 0.6115414415703446 0.6286231608772953	0.101999
C	0.4773875540686241 0.6669688776023910 0.6337713715928400	-0.167649
C	0.9549550386417903 0.3865204929450847 0.0567248924530618	-0.125023
C	0.9551127796916467 0.4420011565885184 0.0559567571152625	-0.125096
C	0.3884585964296514 0.4781641698234143 0.6286231608772953	0.102004
C	0.3330311603976049 0.4773875540686241 0.6337713715928400	-0.167678
C	0.6134794680549153 0.9549550386417903 0.0567248924530618	-0.124988
C	0.5579988814114847 0.9551127796916467 0.0559567571152625	-0.125050
C	0.6115414415703446 0.5218358681765819 0.6286231608772953	0.101999
C	0.6669688776023910 0.5226124459313761 0.6337713715928400	-0.167649
C	0.3865204929450847 0.0450448853582107 0.0567248924530618	-0.125023
C	0.4420011565885184 0.0448872393083514 0.0559567571152625	-0.125096
C	0.5450449233582136 0.8865204549450890 0.5567249124530562	-0.125023
C	0.5448872203083533 0.9420011565885185 0.5559567491152616	-0.125096
C	0.0218358221765851 0.1115413845703507 0.1286231608772955	0.102005
C	0.0226124439313758 0.1669688396023951 0.1337713875928416	-0.167677
C	0.4549551146417892 0.1134795160549123 0.5567249124530562	-0.125023
C	0.4551127416916579 0.0579988284114839 0.5559567491152616	-0.125096
C	0.9781641318234181 0.8884585584296554 0.1286231608772955	0.101986
C	0.9773875540686239 0.8330311603976051 0.1337713875928416	-0.167682
C	0.1134795160549123 0.5450449233582136 0.5567249124530562	-0.125023
C	0.0579988284114839 0.5448872203083533 0.5559567491152616	-0.125096
C	0.8884585584296554 0.0218358221765851 0.1286231608772955	0.101986
C	0.8330311603976051 0.0226124439313758 0.1337713875928416	-0.167681
C	0.8865204549450890 0.4549551146417892 0.5567249124530562	-0.125023
C	0.9420011565885185 0.4551127416916579 0.5559567491152616	-0.125096
C	0.1115413845703507 0.9781641318234181 0.1286231608772955	0.102006
C	0.1669688396023951 0.9773875540686239 0.1337713875928416	-0.167677
C	0.4549551146417892 0.8865204549450890 0.4432751195469392	-0.125023
C	0.4551127416916579 0.9420011565885185 0.4440432508847381	-0.125096
C	0.9781641318234181 0.1115413845703507 0.8713768711227002	0.102006
C	0.9773875540686239 0.1669688396023951 0.8662285964071573	-0.167678
C	0.5450449233582136 0.1134795160549123 0.4432751195469392	-0.125023
C	0.5448872203083533 0.0579988284114839 0.4440432508847381	-0.125096
C	0.0218358221765851 0.8884585584296554 0.8713768711227002	0.101985
C	0.0226124439313758 0.8330311603976051 0.8662285964071573	-0.167682
C	0.8865204549450890 0.5450449233582136 0.4432751195469392	-0.125023
C	0.9420011565885185 0.5448872203083533 0.4440432508847381	-0.125096
C	0.1115413845703507 0.0218358221765851 0.8713768711227002	0.102005
C	0.1669688396023951 0.0226124439313758 0.8662285964071573	-0.167677
C	0.1134795160549123 0.4549551146417892 0.4432751195469392	-0.125023
C	0.0579988284114839 0.4551127416916579 0.4440432508847381	-0.125096
C	0.8884585584296554 0.9781641318234181 0.8713768711227002	0.101986
C	0.8330311603976051 0.9773875540686239 0.8662285964071573	-0.167682
C	0.5000000000000000 0.3040064974569981 0.5000000000000000	0.173682
C	0.5000000000000000 0.2474234934388517 0.5000000000000000	-0.115063
C	0.5000000000000000 0.1987255073239044 0.5000000000000000	-0.095020
C	0.5000000000000000 0.1421197481726877 0.5000000000000000	0.125119
C	0.5000000000000000 0.0293792760503801 0.5000000000000000	0.066452
C	-0.0000000000000000 0.8040064784569929 0.0000000000000000	0.173717
C	-0.0000000000000000 0.7474234734388503 0.0000000000000000	-0.115195
C	-0.0000000000000000 0.6987254693239084 0.0000000000000000	-0.094929
C	-0.0000000000000000 0.6421197101726848 0.0000000000000000	0.125060
C	-0.0000000000000000 0.5293792900503812 0.0000000000000000	0.066433
C	0.5000000000000000 0.6959934835430039 0.5000000000000000	0.173703
C	0.5000000000000000 0.7525765645611457 0.5000000000000000	-0.115161
C	0.5000000000000000 0.8012744926760955 0.5000000000000000	-0.094974
C	0.5000000000000000 0.8578802518273121 0.5000000000000000	0.125112
C	0.5000000000000000 0.9706207099496188 0.5000000000000000	0.066452
C	-0.0000000000000000 0.1959935025430019 0.0000000000000000	0.173682
C	-0.0000000000000000 0.2525765065611484 0.0000000000000000	-0.115063
C	-0.0000000000000000 0.3012744726760939 0.0000000000000000	-0.095020
C	-0.0000000000000000 0.3578802518273123 0.0000000000000000	0.125119
C	-0.0000000000000000 0.4706207479496219 0.0000000000000000	0.066454
C	0.6959934835430039 0.5000000000000000 0.5000000000000000	0.173703
C	0.7525765645611457 0.5000000000000000 0.5000000000000000	-0.115161
C	0.8012744926760955 0.5000000000000000 0.5000000000000000	-0.094974
C	0.8578802518273121 0.5000000000000000 0.5000000000000000	0.125112
C	0.9706207099496188 0.5000000000000000 0.5000000000000000	0.066452
C	0.1959935025430019 -0.0000000000000000 0.0000000000000000	0.173682
C	0.2525765065611484 -0.0000000000000000 0.0000000000000000	-0.115063
C	0.3012744726760939 -0.0000000000000000 0.0000000000000000	-0.095020
C	0.3578802518273123 -0.0000000000000000 0.0000000000000000	0.125119
C	0.4706207479496219 -0.0000000000000000 0.0000000000000000	0.066454
C	0.3040064974569981 0.5000000000000000 0.5000000000000000	0.173682
C	0.2474234934388517 0.5000000000000000 0.5000000000000000	-0.115063
C	0.1987255073239044 0.5000000000000000 0.5000000000000000	-0.095020
C	0.1421197481726877 0.5000000000000000 0.5000000000000000	0.125119
C	0.0293792760503801 0.5000000000000000 0.5000000000000000	0.066453
C	0.8040064784569929 -0.0000000000000000 0.0000000000000000	0.173717
C	0.7474234734388503 -0.0000000000000000 0.0000000000000000	-0.115195
C	0.6987254693239084 -0.0000000000000000 0.0000000000000000	-0.094929
C	0.6421197101726848 -0.0000000000000000 0.0000000000000000	0.125060
C	0.5293792900503812 -0.0000000000000000 0.0000000000000000	0.066434
H	0.4611797938252033 0.4117707150209343 0.2685819904077192	0.096859
H	0.4595844214417146 0.3124393682303397 0.2594938923344720	0.127296
H	0.9202033938762609 0.6353003866399799 0.8976390942343341	0.111553
H	0.9205030202775860 0.5362614486723601 0.8964747071974013	0.106274
H	0.5388202061747968 0.5882292849790660 0.2685819904077192	0.096859
H	0.5404156165582881 0.6875607077696597 0.2594938923344720	0.127291
H	0.0797965871237409 0.3646996133600196 0.8976390942343341	0.111581
H	0.0794970087224127 0.4637385903276322 0.8964747071974013	0.106281
H	0.5882292849790660 0.4611797938252033 0.2685819904077192	0.096859
H	0.6875607077696597 0.4595844214417146 0.2594938923344720	0.127291
H	0.3646996133600196 0.9202033938762609 0.8976390942343341	0.111581
H	0.4637385903276322 0.9205030202775860 0.8964747071974013	0.106281
H	0.4117707150209343 0.5388202061747968 0.2685819904077192	0.096859
H	0.3124393682303397 0.5404156165582881 0.2594938923344720	0.127296
H	0.6353003866399799 0.0797965871237409 0.8976390942343341	0.111553
H	0.5362614486723601 0.0794970087224127 0.8964747071974013	0.106274
H	0.5388202061747968 0.4117707150209343 0.7314179935922797	0.096859
H	0.5404156165582881 0.3124393682303397 0.7405061076655283	0.127296
H	0.0797965871237409 0.6353003866399799 0.1023608817656640	0.111552
H	0.0794970087224127 0.5362614486723601 0.1035252928025986	0.106274
H	0.4611797938252033 0.5882292849790660 0.7314179935922797	0.096859
H	0.4595844214417146 0.6875607077696597 0.7405061076655283	0.127291
H	0.9202033938762609 0.3646996133600196 0.1023608817656640	0.111581
H	0.9205030202775860 0.4637385903276322 0.1035252928025986	0.106281
H	0.4117707150209343 0.4611797938252033 0.7314179935922797	0.096859
H	0.3124393682303397 0.4595844214417146 0.7405061076655283	0.127296
H	0.6353003866399799 0.9202033938762609 0.1023608817656640	0.111552
H	0.5362614486723601 0.9205030202775860 0.1035252928025986	0.106274
H	0.5882292849790660 0.5388202061747968 0.7314179935922797	0.096859
H	0.6875607077696597 0.5404156165582881 0.7405061076655283	0.127291
H	0.3646996133600196 0.0797965871237409 0.1023608817656640	0.111581
H	0.4637385903276322 0.0794970087224127 0.1035252928025986	0.106281
H	0.5797966061237391 0.8646996133600201 0.6023608737656633	0.111580
H	0.5794969797224140 0.9637385903276395 0.6035253248026013	0.106281
H	0.0388202161747975 0.0882292559790669 0.2314180095922809	0.096859
H	0.0404156215582853 0.1875606507696584 0.2405061396655235	0.127296
H	0.4202034318762642 0.1353004156399792 0.6023608737656633	0.111580
H	0.4205029812775865 0.0362614336723626 0.6035253248026013	0.106281
H	0.9611797938252032 0.9117707920209297 0.2314180095922809	0.096861
H	0.9595843834417119 0.8124394062303426 0.2405061396655235	0.127296
H	0.1353004156399792 0.5797966061237391 0.6023608737656633	0.111580
H	0.0362614336723626 0.5794969797224140 0.6035253248026013	0.106281
H	0.9117707920209297 0.0388202161747975 0.2314180095922809	0.096861
H	0.8124394062303426 0.0404156215582853 0.2405061396655235	0.127296
H	0.8646996133600201 0.4202034318762642 0.6023608737656633	0.111580
H	0.9637385903276395 0.4205029812775865 0.6035253248026013	0.106281
H	0.0882292559790669 0.9611797938252032 0.2314180095922809	0.096859
H	0.1875606507696584 0.9595843834417119 0.2405061396655235	0.127296
H	0.4202034318762642 0.8646996133600201 0.3976390942343339	0.111580
H	0.4205029812775865 0.9637385903276395 0.3964747391973971	0.106281
H	0.9611797938252032 0.0882292559790669 0.7685819744077177	0.096859
H	0.9595843834417119 0.1875606507696584 0.7594938603344762	0.127296
H	0.5797966061237391 0.1353004156399792 0.3976390942343339	0.111580
H	0.5794969797224140 0.0362614336723626 0.3964747391973971	0.106281
H	0.0388202161747975 0.9117707920209297 0.7685819744077177	0.096861
H	0.0404156215582853 0.8124394062303426 0.7594938603344762	0.127296
H	0.8646996133600201 0.5797966061237391 0.3976390942343339	0.111580
H	0.9637385903276395 0.5794969797224140 0.3964747391973971	0.106281
H	0.0882292559790669 0.0388202161747975 0.7685819744077177	0.096859
H	0.1875606507696584 0.0404156215582853 0.7594938603344762	0.127296
H	0.1353004156399792 0.4202034318762642 0.3976390942343339	0.111580
H	0.0362614336723626 0.4205029812775865 0.3964747391973971	0.106281
H	0.9117707920209297 0.9611797938252032 0.7685819744077177	0.096861
H	0.8124394062303426 0.9595843834417119 0.7594938603344762	0.127296
Ni	0.5000000000000000 0.5000000000000000 0.5000000000000000	0.756675
Ni	-0.0000000000000000 -0.0000000000000000 0.0000000000000000	0.756754
Sn	0.5000000000000000 0.5000000000000000 0.0000000000000000	1.885112
Sn	-0.0000000000000000 -0.0000000000000000 0.5000000000000000	1.885115
F	0.5000000000000000 0.5000000000000000 0.2530458303926912	-0.523064
F	-0.0000000000000000 -0.0000000000000000 0.7530457983926955	-0.523071
F	0.5000000000000000 0.5000000000000000 0.7469541056073108	-0.523064
F	-0.0000000000000000 -0.0000000000000000 0.2469541696073089	-0.523071
F	0.5562320138659210 0.5562320138659210 0.0000000000000000	-0.563845
F	0.0562319668659205 0.0562319668659205 0.5000000000000000	-0.563845
F	0.4437680621340854 0.4437680621340854 0.0000000000000000	-0.563845
F	0.9437680241340821 0.9437680241340821 0.5000000000000000	-0.563846
F	0.4437680621340854 0.5562320138659210 0.0000000000000000	-0.563845
F	0.9437680241340821 0.0562319668659205 0.5000000000000000	-0.563846
F	0.5562320138659210 0.4437680621340854 0.0000000000000000	-0.563845
F	0.0562319668659205 0.9437680241340821 0.5000000000000000	-0.563846
N	0.5000000000000000 0.4159524869179079 0.5000000000000000	-0.242688
N	-0.0000000000000000 0.9159525249179108 0.0000000000000000	-0.242680
N	0.5000000000000000 0.5840475130820924 0.5000000000000000	-0.242687
N	-0.0000000000000000 0.0840475220820893 0.0000000000000000	-0.242701
N	0.5840475130820924 0.5000000000000000 0.5000000000000000	-0.242687
N	0.0840475220820893 -0.0000000000000000 0.0000000000000000	-0.242701
N	0.4159524869179079 0.5000000000000000 0.5000000000000000	-0.242688
N	0.9159525249179108 -0.0000000000000000 0.0000000000000000	-0.242680
	  	
