#======================================================================

# CRYSTAL DATA

#----------------------------------------------------------------------

data_VESTA_phase_1


_pd_phase_name                         SnFSIX_18_Zn
_cell_length_a                         14.20007
_cell_length_b                         13.77834
_cell_length_c                         8.41174
_cell_angle_alpha                      90
_cell_angle_beta                       95.81221
_cell_angle_gamma                      90
_symmetry_space_group_name_H-M         P 1
_symmetry_Int_Tables_number            1

loop_
_symmetry_equiv_pos_as_xyz
   x, y, z

loop_
   _atom_site_label
   _atom_site_fract_x
   _atom_site_fract_y
   _atom_site_fract_z
   _atom_site_charge
F	0.4048829487370045 0.3622942811459042 0.5094563187161288	-0.558600
F	0.5214660820616654 0.4774578583985929 0.7423442142939588	-0.528547
F	0.3978984404043155 0.5661902164983303 0.5128680414076257	-0.524986
F	0.9048829827370002 0.8622942121459024 0.5094563187161288	-0.558600
F	0.0214661080616605 0.9774578233985941 0.7423442142939588	-0.528546
F	0.8978984744043179 0.0661901824983352 0.5128680414076257	-0.524987
F	0.5951170142629960 0.3622942811459042 0.4905436812838710	-0.558601
F	0.4785339149383379 0.4774578583985929 0.2576557857060412	-0.528547
F	0.6021015555956846 0.5661902164983303 0.4871319595923784	-0.524986
F	0.0951170352629943 0.8622942121459024 0.4905436812838710	-0.558601
F	0.9785337799383373 0.9774578233985941 0.2576557857060412	-0.528546
F	0.1021015305956858 0.0661901824983352 0.4871319595923784	-0.524987
C	0.6814226416690188 0.1556324153394321 0.6661363206471789	-0.424832
C	0.7554078399424925 0.1526502355346965 0.8046198244226557	0.212407
C	0.7596016014180050 0.1969042222025608 0.9551208411793393	-0.151668
C	0.6888627053988079 0.2608876280664673 0.0141116148460811	-0.145814
C	0.6736842728770234 0.3600758201072791 0.9741231906925709	0.217841
C	0.7298932096009606 0.4220645024734027 0.8733439572163622	-0.428051
C	0.8899717047189440 0.2024589955594571 0.1958913133867562	-0.435499
C	0.8486707092288330 0.1707859489433810 0.0344739082727681	0.217121
C	0.6233761346847100 0.2386631072639961 0.1226988321513667	0.214409
C	0.6033981288583495 0.1475820399504014 0.2084386545535910	-0.426886
C	0.1814226916690160 0.6556324673394295 0.6661363206471789	-0.424832
C	0.2554078739424958 0.6526502185346916 0.8046198244226557	0.212410
C	0.2596015674180024 0.6969041882025576 0.9551208411793393	-0.151668
C	0.1888627053988081 0.7608876450664651 0.0141116148460811	-0.145812
C	0.1736842558770189 0.8600758541072820 0.9741231906925709	0.217841
C	0.2298932256009552 0.9220644674734030 0.8733439572163622	-0.428020
C	0.3899716037189401 0.7024589095594573 0.1958913133867562	-0.435500
C	0.3486707772288319 0.6707859489433812 0.0344739082727681	0.217122
C	0.1233761096847112 0.7386630212639961 0.1226988321513667	0.214408
C	0.1033982128583493 0.6475821089504038 0.2084386545535910	-0.426887
C	0.3185773553309839 0.1556324153394321 0.3338636803528244	-0.424826
C	0.2445921530575032 0.1526502355346965 0.1953800955773446	0.212405
C	0.2403984275819935 0.1969042222025608 0.0448791348206662	-0.151668
C	0.3111372906011917 0.2608876280664673 0.9858883761539218	-0.145815
C	0.3263157931229815 0.3600758201072791 0.0258768603074296	0.217843
C	0.2701068053990440 0.4220645024734027 0.1266560587836391	-0.428055
C	0.1100283782810586 0.2024589955594571 0.8041087346132481	-0.435501
C	0.1513292697711685 0.1707859489433810 0.9655260797272309	0.217122
C	0.3766238963152892 0.2386631072639961 0.8773011918486275	0.214407
C	0.3966017971416516 0.1475820399504014 0.7915612664464129	-0.426882
C	0.8185773553309845 0.6556324673394295 0.3338636803528244	-0.424826
C	0.7445921530575034 0.6526502185346916 0.1953800955773446	0.212408
C	0.7403983935819981 0.6969041882025576 0.0448791348206662	-0.151668
C	0.8111372906011918 0.7608876450664651 0.9858883761539218	-0.145812
C	0.8263157261229801 0.8600758541072820 0.0258768603074296	0.217843
C	0.7701067883990392 0.9220644674734030 0.1266560587836391	-0.428024
C	0.6100282942810594 0.7024589095594573 0.8041087346132481	-0.435501
C	0.6513292867711666 0.6707859489433812 0.9655260797272309	0.217122
C	0.8766238623152862 0.7386630212639961 0.8773011918486275	0.214406
C	0.8966018641416534 0.6475821089504038 0.7915612664464129	-0.426882
H	0.7124692749418773 0.1736922571766750 0.5554170213750990	0.153876
H	0.6283628499069733 0.2111282200345989 0.6846225198763721	0.142395
H	0.6457361953586241 0.0849335911383712 0.6482852834474768	0.133592
H	0.6843048522620432 0.4651700634955976 0.7875132837228317	0.142270
H	0.7762153371912317 0.3766783754269702 0.8077201506776936	0.140405
H	0.7747865442778715 0.4722211609706158 0.9494664894754026	0.128770
H	0.8621424117708192 0.0730734648439819 0.7014548852854693	0.277764
H	0.8895478597763875 0.1446895463272435 0.2855620731563313	0.146803
H	0.8486232302421849 0.2635469472885685 0.2357212265682221	0.137698
H	0.9636842979613899 0.2256928020406952 0.1928180891337586	0.140454
H	0.5809116918361876 0.1639711955114327 0.3265261643705805	0.148838
H	0.6665025792336642 0.1015080670449409 0.2238562816369720	0.152168
H	0.5465110310186941 0.1054536641911902 0.1416129209592996	0.132247
H	0.5243962305785218 0.3346380162786844 0.2154906122958333	0.271287
H	0.2124693259418770 0.6736921541766780 0.5554170213750990	0.153876
H	0.1283629339069736 0.7111281510345963 0.6846225198763721	0.142396
H	0.1457362453586212 0.5849335311383668 0.6482852834474769	0.133592
H	0.1843048692620407 0.9651699954955918 0.7875132837228317	0.142231
H	0.2762153711912342 0.8766784094269731 0.8077201506776936	0.140411
H	0.2747865772778711 0.9722211609706159 0.9494664894754026	0.128768
H	0.3621423777708239 0.5730735078439819 0.7014548852854693	0.277762
H	0.3895479267763894 0.6446895123272406 0.2855620731563313	0.146803
H	0.3486231622421864 0.7635469822885673 0.2357212265682221	0.137698
H	0.4636843649613847 0.7256928530406893 0.1928180891337586	0.140455
H	0.0809116838361874 0.6639712125114307 0.3265261643705805	0.148838
H	0.1665025452336615 0.6015080240449404 0.2238562816369720	0.152168
H	0.0465110670186970 0.6054536121911929 0.1416129209592996	0.132247
H	0.0243962155785240 0.8346380162786843 0.2154906122958333	0.271287
H	0.2875306560581286 0.1736922571766750 0.4445830106248964	0.153875
H	0.3716370490930214 0.2111282200345989 0.3153775451236297	0.142388
H	0.3542637336413806 0.0849335911383712 0.3517147165525238	0.133593
H	0.3156951427379602 0.4651700634955976 0.2124866842771727	0.142268
H	0.2237846578087648 0.3766783754269702 0.1922798173223036	0.140407
H	0.2252134517221351 0.4722211609706158 0.0505334835245988	0.128768
H	0.1378575892291770 0.0730734648439819 0.2985450197145263	0.277764
H	0.1104520632236097 0.1446895463272435 0.7144379588436718	0.146803
H	0.1513768337578136 0.2635469472885685 0.7642787734317783	0.137701
H	0.0363156310386148 0.2256928020406952 0.8071819428662369	0.140457
H	0.4190883381638140 0.1639711955114327 0.6734738356294192	0.148834
H	0.3334974827663409 0.1015080670449409 0.7761436703630241	0.152166
H	0.4534889339813067 0.1054536641911902 0.8583871190407042	0.132238
H	0.4756037304214786 0.3346380162786844 0.7845093407041666	0.271284
H	0.7875307230581226 0.6736921541766780 0.4445830106248965	0.153875
H	0.8716371500930267 0.7111281510345963 0.3153775451236297	0.142388
H	0.8542637336413806 0.5849335311383668 0.3517147165525238	0.133593
H	0.8156951427379600 0.9651699954955918 0.2124866842771727	0.142230
H	0.7237846578087643 0.8766784094269731 0.1922798173223036	0.140414
H	0.7252134517221352 0.9722211609706159 0.0505334835245988	0.128766
H	0.6378575802291802 0.5730735078439819 0.2985450197145263	0.277762
H	0.6104521722236080 0.6446895123272406 0.7144379588436718	0.146803
H	0.6513767667578113 0.7635469822885673 0.7642787734317783	0.137701
H	0.5363156670386108 0.7256928530406893 0.8071819428662369	0.140458
H	0.9190882711638129 0.6639712125114307 0.6734738356294192	0.148834
H	0.8334974157663390 0.6015080240449404 0.7761436703630241	0.152166
H	0.9534889339813065 0.6054536121911929 0.8583871190407042	0.132238
H	0.9756036964214828 0.8346380162786843 0.7845093407041666	0.271284
N	0.8366891508676557 0.1023998030511154 0.8016064485006192	-0.148006
N	0.6022063320079382 0.3951699423053110 0.0509673170945785	-0.247091
N	0.8947338716105311 0.1127943328969980 0.9389918721912140	-0.248855
N	0.5737176107056324 0.3207288194824028 0.1390950108797942	-0.144433
N	0.3366891508676553 0.6023997260511204 0.8016064485006192	-0.148008
N	0.1022063990079400 0.8951699423053111 0.0509673170945785	-0.247093
N	0.3947339056105339 0.6127943838969984 0.9389918721912140	-0.248853
N	0.0737176027056318 0.8207287844824029 0.1390950108797942	-0.144432
N	0.1633108311323435 0.1023998030511154 0.1983935994993775	-0.148006
N	0.3977935619920602 0.3951699423053110 0.9490326589054195	-0.247091
N	0.1052660983894662 0.1127943328969980 0.0610081078087844	-0.248855
N	0.4262823862943710 0.3207288194824028 0.8609050051202070	-0.144432
N	0.6633108481323406 0.6023997260511204 0.1983935994993775	-0.148008
N	0.8977936629920650 0.8951699423053111 0.9490326589054195	-0.247092
N	0.6052661233894721 0.6127943838969984 0.0610081078087844	-0.248853
N	0.9262824202943666 0.8207287844824029 0.8609050051202070	-0.144431
Sn	0.4999999979999998 0.4669283246456826 0.5000000000000000	1.835535
Sn	0.0000000000000000 0.9669283246456830 0.5000000000000000	1.835536
Zn	0.5000000000000000 0.5095167663757330 -0.0000000000000000	0.770332
Zn	0.0000000000000000 0.0095167733757375 -0.0000000000000000	0.770332
	  	
