#======================================================================

# CRYSTAL DATA

#----------------------------------------------------------------------

data_VESTA_phase_1


_pd_phase_name                         SnFSIX_5_Cu_i
_cell_length_a                         19.74076
_cell_length_b                         19.74076
_cell_length_c                         16.57263
_cell_angle_alpha                      90
_cell_angle_beta                       90
_cell_angle_gamma                      90
_symmetry_space_group_name_H-M         P 1
_symmetry_Int_Tables_number            1

loop_
_symmetry_equiv_pos_as_xyz
   x, y, z

loop_
   _atom_site_label
   _atom_site_fract_x
   _atom_site_fract_y
   _atom_site_fract_z
   _atom_site_charge
F	0.3155805648511354 0.1727010081949570 0.3519323157699766	-0.579935
F	0.1844194231488637 0.3272989918050429 0.3519323157699766	-0.579940
F	0.3272989918050429 0.3155805648511354 0.3519323157699766	-0.579937
F	0.1727010081949570 0.1844194231488636 0.3519323157699766	-0.579937
F	0.6844194591488598 0.6727010321949595 0.1480676842300231	-0.579936
F	0.8155805408511402 0.8272989678050405 0.1480676842300231	-0.579938
F	0.6727010321949595 0.8155805408511402 0.1480676842300231	-0.579938
F	0.8272989678050405 0.6844194591488598 0.1480676842300231	-0.579937
F	0.6844194591488598 0.8272989678050405 0.6480677162300259	-0.579940
F	0.8155805408511402 0.6727010321949595 0.6480677162300259	-0.579935
F	0.6727010321949595 0.6844194591488598 0.6480677162300259	-0.579937
F	0.8272989678050405 0.8155805408511402 0.6480677162300259	-0.579937
F	0.3155805648511354 0.3272989918050429 0.8519322837699741	-0.579938
F	0.1844194231488636 0.1727010081949570 0.8519322837699741	-0.579937
F	0.3272989918050429 0.1844194231488636 0.8519322837699741	-0.579937
F	0.1727010081949570 0.3155805648511354 0.8519322837699741	-0.579938
F	0.2500000000000000 0.2500000000000000 0.4726911501032189	-0.557997
F	0.2500000000000000 0.2500000000000000 0.2309080603018428	-0.558013
F	0.7500000000000000 0.7500000000000000 0.0273088768967798	-0.557997
F	0.7500000000000000 0.7500000000000000 0.2690919236981558	-0.558013
F	0.7500000000000000 0.7500000000000000 0.5273088808967806	-0.557995
F	0.7500000000000000 0.7500000000000000 0.7690919236981558	-0.558015
F	0.2500000000000000 0.2500000000000000 0.9726911191032194	-0.557995
F	0.2500000000000000 0.2500000000000000 0.7309080763018442	-0.558015
N	0.3532713726179439 0.2469649954442287 0.6018741857768151	-0.232148
N	0.1467286273820559 0.2530350045557712 0.6018741857768151	-0.232148
N	0.2530350045557712 0.3532713726179439 0.6018741857768151	-0.232149
N	0.2469649954442287 0.1467286273820559 0.6018741857768151	-0.232147
N	0.6467286513820577 0.7469649714442260 0.8981258142231849	-0.232148
N	0.8532713486179423 0.7530350285557740 0.8981258142231849	-0.232148
N	0.7469649714442260 0.8532713486179423 0.8981258142231849	-0.232149
N	0.7530350285557740 0.6467286513820577 0.8981258142231849	-0.232147
N	0.6467286513820577 0.7530350285557740 0.3981258452231845	-0.232146
N	0.8532713486179423 0.7469649714442260 0.3981258452231845	-0.232146
N	0.7469649714442260 0.6467286513820577 0.3981258452231845	-0.232145
N	0.7530350285557740 0.8532713486179423 0.3981258452231845	-0.232147
N	0.3532713726179439 0.2530350045557712 0.1018741857768147	-0.232146
N	0.1467286273820559 0.2469649954442287 0.1018741857768147	-0.232146
N	0.2530350045557712 0.1467286273820559 0.1018741857768147	-0.232145
N	0.2469649954442287 0.3532713726179439 0.1018741857768147	-0.232147
C	0.3867128229548243 0.2189630406282859 0.6643943619416418	0.102634
C	0.4569853886326895 0.2181610937170423 0.6682096871293324	-0.173060
C	0.4951377046961494 0.2474603697565422 0.6058553144055270	0.106333
C	0.4592380167311796 0.2761680260894538 0.5412018044047904	-0.173528
C	0.3889045360346020 0.2748688078817889 0.5410237953135851	0.102632
C	0.5696939966246878 0.2482553513601149 0.6081903496952694	0.055077
C	0.6060964473339585 0.1920635767740949 0.6371409562204802	-0.128996
C	0.6765059901533876 0.1926306768901351 0.6381901267740319	-0.124041
C	0.7126961897079913 0.2497961788009275 0.6118936106807964	0.067307
C	0.6762784356173505 0.3062810501051154 0.5840459613500473	-0.120591
C	0.6059001115565692 0.3053154181438538 0.5814778513735358	-0.125889
C	0.1132871530451807 0.2810369833717155 0.6643943619416418	0.102634
C	0.0430145513673126 0.2818389302829595 0.6682096871293324	-0.173062
C	0.0048622743038522 0.2525396302434577 0.6058553144055270	0.106330
C	0.0407620102688193 0.2238319739105460 0.5412018044047904	-0.173523
C	0.1110954279653949 0.2251312161182132 0.5410237953135851	0.102629
C	0.9303059553753154 0.2517446246398831 0.6081903496952694	0.055078
C	0.8939036006660384 0.3079364582259045 0.6371409562204802	-0.128993
C	0.8234940098466124 0.3073693351098587 0.6381901267740319	-0.124040
C	0.7873038102920087 0.2502037971990708 0.6118936106807964	0.067305
C	0.8237216113826499 0.1937189498948844 0.5840459613500473	-0.120587
C	0.8940999844434316 0.1946846168561457 0.5814778513735358	-0.125889
C	0.2810369833717155 0.3867128229548244 0.6643943619416418	0.102636
C	0.2818389302829595 0.4569853886326895 0.6682096871293324	-0.173062
C	0.2525396302434577 0.4951377046961494 0.6058553144055270	0.106332
C	0.2238319739105460 0.4592380167311796 0.5412018044047904	-0.173525
C	0.2251312161182132 0.3889045360346020 0.5410237953135851	0.102634
C	0.2517446246398831 0.5696939966246878 0.6081903496952694	0.055077
C	0.3079364582259045 0.6060964473339585 0.6371409562204802	-0.128996
C	0.3073693351098587 0.6765059901533876 0.6381901267740319	-0.124042
C	0.2502037971990708 0.7126961897079913 0.6118936106807964	0.067305
C	0.1937189498948844 0.6762784356173505 0.5840459613500473	-0.120590
C	0.1946846168561457 0.6059001115565692 0.5814778513735358	-0.125891
C	0.2189630406282859 0.1132871530451807 0.6643943619416418	0.102634
C	0.2181610937170423 0.0430145513673126 0.6682096871293324	-0.173059
C	0.2474603697565422 0.0048622743038522 0.6058553144055270	0.106332
C	0.2761680260894538 0.0407620102688193 0.5412018044047904	-0.173525
C	0.2748688078817889 0.1110954279653949 0.5410237953135851	0.102630
C	0.2482553513601149 0.9303059553753154 0.6081903496952694	0.055078
C	0.1920635767740949 0.8939036006660384 0.6371409562204802	-0.128993
C	0.1926306768901351 0.8234940098466124 0.6381901267740319	-0.124040
C	0.2497961788009275 0.7873038102920087 0.6118936106807964	0.067307
C	0.3062810501051154 0.8237216113826499 0.5840459613500473	-0.120588
C	0.3053154181438538 0.8940999844434316 0.5814778513735358	-0.125888
C	0.6132871530451807 0.7189630886282823 0.8356056380583582	0.102632
C	0.5430145633673137 0.7181611177170373 0.8317903128706676	-0.173058
C	0.5048622953038507 0.7474604177565392 0.8941446855944730	0.106331
C	0.5407620792688214 0.7761679780894500 0.9587981955952096	-0.173527
C	0.6110954879653925 0.7748688318817835 0.9589762046864149	0.102630
C	0.4303060033753121 0.7482554233601137 0.8918096503047306	0.055078
C	0.3939035526660410 0.6920635417740957 0.8628590437795198	-0.128993
C	0.3234939378466065 0.6926306408901389 0.8618098732259681	-0.124041
C	0.2873038582920122 0.7497962028009292 0.8881063893192036	0.067306
C	0.3237215163826463 0.8062810501051156 0.9159540386499527	-0.120589
C	0.3940999124434264 0.8053153471438516 0.9185221486264642	-0.125887
C	0.8867128469548193 0.7810369113717177 0.8356056380583582	0.102636
C	0.9569854366326863 0.7818388822829627 0.8317903128706676	-0.173064
C	0.9951377526961461 0.7525395822434608 0.8941446855944730	0.106333
C	0.9592379687311826 0.7238320219105500 0.9587981955952096	-0.173524
C	0.8889045120346075 0.7251311681182165 0.9589762046864149	0.102632
C	0.0696940326246837 0.7517445766398863 0.8918096503047306	0.055077
C	0.1060964353339579 0.8079364582259043 0.8628590437795198	-0.128995
C	0.1765060381533915 0.8073693111098642 0.8618098732259681	-0.124042
C	0.2126961417079873 0.7502037971990708 0.8881063893192036	0.067307
C	0.1762784596173518 0.6937189498948844 0.9159540386499527	-0.120589
C	0.1059000875565735 0.6946846058561481 0.9185221486264642	-0.125891
C	0.7189630886282823 0.8867128469548193 0.8356056380583582	0.102637
C	0.7181611177170373 0.9569854366326863 0.8317903128706676	-0.173060
C	0.7474604177565392 0.9951377526961461 0.8941446855944730	0.106332
C	0.7761679780894500 0.9592379687311826 0.9587981955952096	-0.173527
C	0.7748688318817835 0.8889045120346075 0.9589762046864149	0.102632
C	0.7482554233601137 0.0696940326246837 0.8918096503047306	0.055077
C	0.6920635417740957 0.1060964353339579 0.8628590437795198	-0.128995
C	0.6926306408901389 0.1765060381533915 0.8618098732259681	-0.124040
C	0.7497962028009292 0.2126961417079873 0.8881063893192036	0.067306
C	0.8062810501051156 0.1762784596173518 0.9159540386499527	-0.120589
C	0.8053153471438516 0.1059000875565735 0.9185221486264642	-0.125890
C	0.7810369113717177 0.6132871530451807 0.8356056380583582	0.102632
C	0.7818388822829627 0.5430145633673137 0.8317903128706676	-0.173061
C	0.7525395822434608 0.5048622953038507 0.8941446855944730	0.106332
C	0.7238320219105500 0.5407620792688214 0.9587981955952096	-0.173523
C	0.7251311681182165 0.6110954879653925 0.9589762046864149	0.102631
C	0.7517445766398863 0.4303060033753121 0.8918096503047306	0.055078
C	0.8079364582259043 0.3939035526660410 0.8628590437795198	-0.128993
C	0.8073693111098642 0.3234939378466065 0.8618098732259681	-0.124042
C	0.7502037971990708 0.2873038582920122 0.8881063893192036	0.067306
C	0.6937189498948844 0.3237215163826463 0.9159540386499527	-0.120590
C	0.6946846058561481 0.3940999124434264 0.9185221486264642	-0.125888
C	0.6132871530451807 0.7810369113717177 0.3356056690583568	0.102634
C	0.5430145633673137 0.7818388822829627 0.3317903128706673	-0.173061
C	0.5048622953038507 0.7525395822434608 0.3941446855944724	0.106331
C	0.5407620792688214 0.7238320219105500 0.4587982265952160	-0.173522
C	0.6110954879653925 0.7251311681182165 0.4589762046864153	0.102630
C	0.4303060033753121 0.7517445766398863 0.3918096503047310	0.055078
C	0.3939035526660410 0.8079364582259043 0.3628590127795213	-0.128992
C	0.3234939378466065 0.8073693111098642 0.3618099042259671	-0.124042
C	0.2873038582920122 0.7502037971990708 0.3881062953192034	0.067306
C	0.3237215163826463 0.6937189498948844 0.4159540696499515	-0.120588
C	0.3940999124434264 0.6946846058561481 0.4185221486264642	-0.125888
C	0.8867128469548193 0.7189630886282823 0.3356056690583568	0.102634
C	0.9569854366326863 0.7181611177170373 0.3317903128706673	-0.173059
C	0.9951377526961461 0.7474604177565392 0.3941446855944724	0.106334
C	0.9592379687311826 0.7761679780894500 0.4587982265952160	-0.173528
C	0.8889045120346075 0.7748688318817835 0.4589762046864153	0.102633
C	0.0696940326246837 0.7482554233601137 0.3918096503047310	0.055077
C	0.1060964353339579 0.6920635417740957 0.3628590127795213	-0.128995
C	0.1765060381533915 0.6926306408901389 0.3618099042259671	-0.124043
C	0.2126961417079873 0.7497962028009292 0.3881062953192034	0.067307
C	0.1762784596173518 0.8062810501051156 0.4159540696499515	-0.120591
C	0.1059000875565735 0.8053153471438516 0.4185221486264642	-0.125889
C	0.7189630886282823 0.6132871530451807 0.3356056690583568	0.102634
C	0.7181611177170373 0.5430145633673137 0.3317903128706673	-0.173059
C	0.7474604177565392 0.5048622953038507 0.3941446855944724	0.106332
C	0.7761679780894500 0.5407620792688214 0.4587982265952160	-0.173525
C	0.7748688318817835 0.6110954879653925 0.4589762046864153	0.102630
C	0.7482554233601137 0.4303060033753121 0.3918096503047310	0.055078
C	0.6920635417740957 0.3939035526660410 0.3628590127795213	-0.128991
C	0.6926306408901389 0.3234939378466065 0.3618099042259671	-0.124041
C	0.7497962028009292 0.2873038582920122 0.3881062953192034	0.067309
C	0.8062810501051156 0.3237215163826463 0.4159540696499515	-0.120589
C	0.8053153471438516 0.3940999124434264 0.4185221486264642	-0.125887
C	0.7810369113717177 0.8867128469548193 0.3356056690583568	0.102636
C	0.7818388822829627 0.9569854366326863 0.3317903128706673	-0.173062
C	0.7525395822434608 0.9951377526961461 0.3941446855944724	0.106332
C	0.7238320219105500 0.9592379687311826 0.4587982265952160	-0.173525
C	0.7251311681182165 0.8889045120346075 0.4589762046864153	0.102634
C	0.7517445766398863 0.0696940326246837 0.3918096503047310	0.055077
C	0.8079364582259043 0.1060964353339579 0.3628590127795213	-0.128995
C	0.8073693111098642 0.1765060381533915 0.3618099042259671	-0.124043
C	0.7502037971990708 0.2126961417079873 0.3881062953192034	0.067305
C	0.6937189498948844 0.1762784596173518 0.4159540696499515	-0.120590
C	0.6946846058561481 0.1059000875565735 0.4185221486264642	-0.125890
C	0.3867128229548244 0.2810369833717155 0.1643943469416442	0.102636
C	0.4569853886326895 0.2818389302829595 0.1682096561293338	-0.173063
C	0.4951377046961494 0.2525396302434577 0.1058553144055275	0.106333
C	0.4592380167311796 0.2238319739105460 0.0412017694047910	-0.173524
C	0.3889045360346020 0.2251312161182132 0.0410237873135841	0.102632
C	0.5696939966246878 0.2517446246398831 0.1081903416952686	0.055077
C	0.6060964473339585 0.3079364582259045 0.1371409562204798	-0.128994
C	0.6765059901533876 0.3073693351098587 0.1381900797740318	-0.124043
C	0.7126961897079913 0.2502037971990708 0.1118936816807984	0.067308
C	0.6762784356173505 0.1937189498948844 0.0840459453500463	-0.120590
C	0.6059001115565692 0.1946846168561457 0.0814778663735333	-0.125890
C	0.1132871530451807 0.2189630406282859 0.1643943469416442	0.102633
C	0.0430145513673126 0.2181610937170423 0.1682096561293338	-0.173057
C	0.0048622743038522 0.2474603697565422 0.1058553144055275	0.106331
C	0.0407620102688193 0.2761680260894538 0.0412017694047910	-0.173527
C	0.1110954279653949 0.2748688078817889 0.0410237873135841	0.102630
C	0.9303059553753154 0.2482553513601149 0.1081903416952686	0.055078
C	0.8939036006660384 0.1920635767740949 0.1371409562204798	-0.128993
C	0.8234940098466124 0.1926306768901351 0.1381900797740318	-0.124041
C	0.7873038102920087 0.2497961788009275 0.1118936816807984	0.067305
C	0.8237216113826499 0.3062810501051154 0.0840459453500463	-0.120589
C	0.8940999844434316 0.3053154181438538 0.0814778663735333	-0.125887
C	0.2810369833717155 0.1132871530451807 0.1643943469416442	0.102633
C	0.2818389302829595 0.0430145513673126 0.1682096561293338	-0.173060
C	0.2525396302434577 0.0048622743038522 0.1058553144055275	0.106332
C	0.2238319739105460 0.0407620102688193 0.0412017694047910	-0.173523
C	0.2251312161182132 0.1110954279653949 0.0410237873135841	0.102631
C	0.2517446246398831 0.9303059553753154 0.1081903416952686	0.055078
C	0.3079364582259045 0.8939036006660384 0.1371409562204798	-0.128992
C	0.3073693351098587 0.8234940098466124 0.1381900797740318	-0.124043
C	0.2502037971990708 0.7873038102920087 0.1118936816807984	0.067308
C	0.1937189498948844 0.8237216113826499 0.0840459453500463	-0.120590
C	0.1946846168561457 0.8940999844434316 0.0814778663735333	-0.125888
C	0.2189630406282859 0.3867128229548243 0.1643943469416442	0.102637
C	0.2181610937170423 0.4569853886326895 0.1682096561293338	-0.173060
C	0.2474603697565422 0.4951377046961494 0.1058553144055275	0.106332
C	0.2761680260894538 0.4592380167311796 0.0412017694047910	-0.173527
C	0.2748688078817889 0.3889045360346020 0.0410237873135841	0.102632
C	0.2482553513601149 0.5696939966246878 0.1081903416952686	0.055077
C	0.1920635767740949 0.6060964473339585 0.1371409562204798	-0.128995
C	0.1926306768901351 0.6765059901533876 0.1381900797740318	-0.124041
C	0.2497961788009275 0.7126961897079913 0.1118936816807984	0.067306
C	0.3062810501051154 0.6762784356173505 0.0840459453500463	-0.120589
C	0.3053154181438538 0.6059001115565692 0.0814778663735333	-0.125889
H	0.3561189343702955 0.1980818977654021 0.7132317611087633	0.101245
H	0.4814811226626867 0.1963562627337102 0.7211020012792195	0.118645
H	0.4857531419624834 0.2984260808151232 0.4899832189113638	0.117875
H	0.3599647941759728 0.2957060602911692 0.4907158858052194	0.101542
H	0.5787811715501497 0.1471951796763147 0.6576897700037280	0.101508
H	0.7042082556513519 0.1487150533361318 0.6606965633876499	0.102182
H	0.7037270361600373 0.3505684771153667 0.5621544815939160	0.102820
H	0.5785065942132737 0.3496621939196050 0.5595939424269625	0.104938
H	0.1438810296297015 0.3019181262346000 0.7132317611087633	0.101244
H	0.0185188833373067 0.3036437612662917 0.7211020012792195	0.118648
H	0.0142468470375193 0.2015739311848779 0.4899832189113638	0.117872
H	0.1400352298240291 0.2042939277088296 0.4907158858052194	0.101542
H	0.9212188754498506 0.3528048203236857 0.6576897700037280	0.101508
H	0.7957917443486481 0.3512849346638675 0.6606965633876499	0.102181
H	0.7962729638399627 0.1494315348846340 0.5621544815939160	0.102824
H	0.9214934057867263 0.1503377940804015 0.5595939424269625	0.104942
H	0.3019181262346000 0.3561189343702955 0.7132317611087633	0.101245
H	0.3036437612662917 0.4814811226626867 0.7211020012792195	0.118648
H	0.2015739311848779 0.4857531419624834 0.4899832189113638	0.117874
H	0.2042939277088296 0.3599647941759728 0.4907158858052194	0.101542
H	0.3528048203236857 0.5787811715501497 0.6576897700037280	0.101507
H	0.3512849346638675 0.7042082556513519 0.6606965633876499	0.102181
H	0.1494315348846340 0.7037270361600373 0.5621544815939160	0.102822
H	0.1503377940804015 0.5785065942132737 0.5595939424269625	0.104942
H	0.1980818977654021 0.1438810296297015 0.7132317611087633	0.101244
H	0.1963562627337102 0.0185188833373067 0.7211020012792195	0.118645
H	0.2984260808151232 0.0142468470375193 0.4899832189113638	0.117873
H	0.2957060602911692 0.1400352298240291 0.4907158858052194	0.101542
H	0.1471951796763147 0.9212188754498506 0.6576897700037280	0.101510
H	0.1487150533361318 0.7957917443486481 0.6606965633876499	0.102182
H	0.3505684771153667 0.7962729638399627 0.5621544815939160	0.102821
H	0.3496621939196050 0.9214934057867263 0.5595939424269625	0.104939
H	0.6438810176297001 0.6980818977654019 0.7867682388912367	0.101244
H	0.5185188293373096 0.6963562387337078 0.7788979987207805	0.118645
H	0.5142468580375167 0.7984260808151230 0.0100167660886314	0.117873
H	0.6400352058240275 0.7957060362911677 0.0092841421947829	0.101541
H	0.4212188284498498 0.6471951796763147 0.8423102299962720	0.101509
H	0.2957917683486502 0.6487150653361328 0.8393034366123501	0.102182
H	0.2962729638399630 0.8505684771153672 0.9378455184060840	0.102822
H	0.4214934537867231 0.8496622179196003 0.9404060575730375	0.104941
H	0.8561190303702968 0.8019181502346021 0.7867682388912367	0.101244
H	0.9814810746626895 0.8036437612662922 0.7788979987207805	0.118647
H	0.9857530939624864 0.7015739191848770 0.0100167660886314	0.117875
H	0.8599646981759717 0.7042939637088323 0.0092841421947829	0.101543
H	0.0787811715501500 0.8528048203236853 0.8423102299962720	0.101507
H	0.2042082316513499 0.8512849346638672 0.8393034366123501	0.102179
H	0.2037270361600370 0.6494315708846297 0.9378455184060840	0.102822
H	0.0785065882132733 0.6503377820803997 0.9404060575730375	0.104940
H	0.6980818977654019 0.8561190303702968 0.7867682388912367	0.101244
H	0.6963562387337078 0.9814810746626895 0.7788979987207805	0.118646
H	0.7984260808151230 0.9857530939624864 0.0100167660886314	0.117876
H	0.7957060362911677 0.8599646981759717 0.0092841421947829	0.101543
H	0.6471951796763147 0.0787811715501500 0.8423102299962720	0.101510
H	0.6487150653361328 0.2042082316513499 0.8393034366123501	0.102181
H	0.8505684771153672 0.2037270361600370 0.9378455184060840	0.102821
H	0.8496622179196003 0.0785065882132733 0.9404060575730375	0.104940
H	0.8019181502346021 0.6438810176297001 0.7867682388912367	0.101244
H	0.8036437612662922 0.5185188293373096 0.7788979987207805	0.118646
H	0.7015739191848770 0.5142468580375167 0.0100167660886314	0.117872
H	0.7042939637088323 0.6400352058240275 0.0092841421947829	0.101541
H	0.8528048203236853 0.4212188284498498 0.8423102299962720	0.101507
H	0.8512849346638672 0.2957917683486502 0.8393034366123501	0.102181
H	0.6494315708846297 0.2962729638399630 0.9378455184060840	0.102823
H	0.6503377820803997 0.4214934537867231 0.9404060575730375	0.104941
H	0.6438810176297001 0.8019181502346021 0.2867682708912330	0.101243
H	0.5185188293373096 0.8036437612662922 0.2788980297207787	0.118646
H	0.5142468580375167 0.7015739191848770 0.5100167500886370	0.117871
H	0.6400352058240275 0.7042939637088323 0.5092841141947804	0.101542
H	0.4212188284498498 0.8528048203236853 0.3423101989962732	0.101508
H	0.2957917683486502 0.8512849346638672 0.3393034046123471	0.102181
H	0.2962729638399630 0.6494315708846297 0.4378455494060828	0.102824
H	0.4214934537867231 0.6503377820803997 0.4404061195730359	0.104940
H	0.8561190303702968 0.6980818977654019 0.2867682708912330	0.101245
H	0.9814810746626895 0.6963562387337078 0.2788980297207788	0.118644
H	0.9857530939624864 0.7984260808151230 0.5100167500886370	0.117874
H	0.8599646981759717 0.7957060362911677 0.5092841141947804	0.101542
H	0.0787811715501500 0.6471951796763147 0.3423101989962732	0.101507
H	0.2042082316513499 0.6487150653361328 0.3393034046123471	0.102181
H	0.2037270361600370 0.8505684771153672 0.4378455494060828	0.102819
H	0.0785065882132733 0.8496622179196003 0.4404061195730359	0.104938
H	0.6980818977654019 0.6438810176297001 0.2867682708912330	0.101243
H	0.6963562387337078 0.5185188293373096 0.2788980297207787	0.118644
H	0.7984260808151230 0.5142468580375167 0.5100167500886370	0.117872
H	0.7957060362911677 0.6400352058240275 0.5092841141947804	0.101542
H	0.6471951796763147 0.4212188284498498 0.3423101989962732	0.101509
H	0.6487150653361328 0.2957917683486502 0.3393034046123471	0.102182
H	0.8505684771153672 0.2962729638399630 0.4378455494060828	0.102822
H	0.8496622179196003 0.4214934537867231 0.4404061195730359	0.104938
H	0.8019181502346021 0.8561190303702968 0.2867682708912330	0.101244
H	0.8036437612662922 0.9814810746626895 0.2788980297207787	0.118646
H	0.7015739191848770 0.9857530939624864 0.5100167500886370	0.117873
H	0.7042939637088323 0.8599646981759717 0.5092841141947804	0.101542
H	0.8528048203236853 0.0787811715501500 0.3423101989962732	0.101507
H	0.8512849346638672 0.2042082316513499 0.3393034046123471	0.102180
H	0.6494315708846297 0.2037270361600370 0.4378455494060828	0.102821
H	0.6503377820803997 0.0785065882132733 0.4404061195730359	0.104941
H	0.3561189343702955 0.3019181262346000 0.2132317611087626	0.101244
H	0.4814811226626867 0.3036437612662917 0.2211020162792249	0.118646
H	0.4857531419624834 0.2015739311848779 0.9899832809113691	0.117873
H	0.3599647941759728 0.2042939277088296 0.9907158548052206	0.101543
H	0.5787811715501497 0.3528048203236857 0.1576897850037256	0.101507
H	0.7042082556513519 0.3512849346638675 0.1606966103876507	0.102180
H	0.7037270361600373 0.1494315348846340 0.0621544425939165	0.102822
H	0.5785065942132737 0.1503377940804015 0.0595939034269625	0.104939
H	0.1438810296297015 0.1980818977654021 0.2132317611087626	0.101244
H	0.0185188833373067 0.1963562627337102 0.2211020162792249	0.118644
H	0.0142468470375193 0.2984260808151232 0.9899832809113691	0.117871
H	0.1400352298240291 0.2957060602911692 0.9907158548052206	0.101541
H	0.9212188754498506 0.1471951796763147 0.1576897850037256	0.101509
H	0.7957917443486481 0.1487150533361318 0.1606966103876507	0.102181
H	0.7962729638399627 0.3505684771153667 0.0621544425939165	0.102821
H	0.9214934057867263 0.3496621939196050 0.0595939034269625	0.104939
H	0.3019181262346000 0.1438810296297015 0.2132317611087626	0.101244
H	0.3036437612662917 0.0185188833373067 0.2211020162792249	0.118645
H	0.2015739311848779 0.0142468470375193 0.9899832809113691	0.117870
H	0.2042939277088296 0.1400352298240291 0.9907158548052206	0.101541
H	0.3528048203236857 0.9212188754498506 0.1576897850037256	0.101507
H	0.3512849346638675 0.7957917443486481 0.1606966103876507	0.102181
H	0.1494315348846340 0.7962729638399627 0.0621544425939166	0.102823
H	0.1503377940804015 0.9214934057867263 0.0595939034269625	0.104940
H	0.1980818977654021 0.3561189343702955 0.2132317611087626	0.101244
H	0.1963562627337102 0.4814811226626867 0.2211020162792249	0.118645
H	0.2984260808151232 0.4857531419624834 0.9899832809113691	0.117874
H	0.2957060602911692 0.3599647941759728 0.9907158548052206	0.101543
H	0.1471951796763147 0.5787811715501497 0.1576897850037256	0.101509
H	0.1487150533361318 0.7042082556513519 0.1606966103876507	0.102180
H	0.3505684771153667 0.7037270361600373 0.0621544425939165	0.102820
H	0.3496621939196050 0.5785065942132737 0.0595939034269625	0.104938
Cu	0.2500000000000000 0.2500000000000000 0.6014462646340480	0.730986
Cu	0.7500000000000000 0.7500000000000000 0.8985537353659520	0.730986
Cu	0.7500000000000000 0.7500000000000000 0.3985536733659535	0.730982
Cu	0.2500000000000000 0.2500000000000000 0.1014462876340468	0.730982
Sn	0.2500000000000000 0.2500000000000000 0.3518796729590341	1.878814
Sn	0.7500000000000000 0.7500000000000000 0.1481203420409641	1.878814
Sn	0.7500000000000000 0.7500000000000000 0.6481204200409633	1.878813
Sn	0.2500000000000000 0.2500000000000000 0.8518795799590367	1.878814
	  	
