#======================================================================

# CRYSTAL DATA

#----------------------------------------------------------------------

data_VESTA_phase_1


_pd_phase_name                         SnFSIX_1_Ni
_cell_length_a                         11.25717
_cell_length_b                         11.25717
_cell_length_c                         8.13527
_cell_angle_alpha                      90
_cell_angle_beta                       90
_cell_angle_gamma                      90
_symmetry_space_group_name_H-M         P 1
_symmetry_Int_Tables_number            1

loop_
_symmetry_equiv_pos_as_xyz
   x, y, z

loop_
   _atom_site_label
   _atom_site_fract_x
   _atom_site_fract_y
   _atom_site_fract_z
   _atom_site_charge
C	0.2533552778384517 0.4578531988035248 0.3700635652277524	0.104677
C	0.1299905464524176 0.4573763006277291 0.3649232218002784	-0.168935
C	0.7466448091615521 0.5421468441964752 0.3700635652277524	0.104676
C	0.8700094975475862 0.5426236993722712 0.3649232218002784	-0.168934
C	0.5421468441964752 0.2533552778384517 0.3700635652277524	0.104677
C	0.5426236993722712 0.1299905464524176 0.3649232218002784	-0.168935
C	0.4578531988035248 0.7466448091615521 0.3700635652277524	0.104677
C	0.4573763006277291 0.8700094975475862 0.3649232218002784	-0.168934
C	0.7466448091615521 0.4578531988035248 0.6299364047722454	0.104676
C	0.8700094975475862 0.4573763006277291 0.6350767491997158	-0.168933
C	0.2533552778384517 0.5421468441964752 0.6299364047722454	0.104676
C	0.1299905464524176 0.5426236993722712 0.6350767491997158	-0.168933
C	0.4578531988035248 0.2533552778384517 0.6299364047722454	0.104677
C	0.4573763006277291 0.1299905464524176 0.6350767491997158	-0.168933
C	0.5421468441964752 0.7466448091615521 0.6299364047722454	0.104676
C	0.5426236993722712 0.8700094975475862 0.6350767491997158	-0.168933
C	0.0656287383600281 0.5000000000000000 0.5000000000000000	0.099993
C	0.9343713376399712 0.5000000000000000 0.5000000000000000	0.099990
C	0.5000000000000000 0.0656287383600281 0.5000000000000000	0.099993
C	0.5000000000000000 0.9343713376399712 0.5000000000000000	0.099990
H	0.3052545428213589 0.4241310003599150 0.2670815357051871	0.095304
H	0.0848437808601798 0.4216886990891464 0.2573227206845813	0.124021
H	0.6947454141786414 0.5758689996400849 0.2670815357051871	0.095304
H	0.9151562351398216 0.5783113009108537 0.2573227206845813	0.124020
H	0.5758689996400849 0.3052545428213589 0.2670815357051871	0.095304
H	0.5783113009108537 0.0848437808601798 0.2573227206845813	0.124022
H	0.4241310003599150 0.6947454141786414 0.2670815357051871	0.095304
H	0.4216886990891464 0.9151562351398216 0.2573227206845813	0.124021
H	0.6947454141786414 0.4241310003599150 0.7329184352948143	0.095304
H	0.9151562351398216 0.4216886990891464 0.7426773383154198	0.124020
H	0.3052545428213589 0.5758689996400849 0.7329184352948143	0.095304
H	0.0848437808601798 0.5783113009108537 0.7426773383154198	0.124019
H	0.4241310003599150 0.3052545428213589 0.7329184352948143	0.095304
H	0.4216886990891464 0.0848437808601798 0.7426773383154198	0.124021
H	0.5758689996400849 0.6947454141786414 0.7329184352948143	0.095304
H	0.5783113009108537 0.9151562351398216 0.7426773383154198	0.124020
Ni	0.5000000000000000 0.5000000000000000 0.5000000000000000	0.753452
Sn	0.5000000000000000 0.5000000000000000 -0.0000000000000000	1.876706
F	0.5000000000000000 0.5000000000000000 0.7489703723128295	-0.529506
F	0.5000000000000000 0.5000000000000000 0.2510296276871704	-0.529506
F	0.3750177944485555 0.3750177944485555 -0.0000000000000000	-0.562744
F	0.6249822055514442 0.6249822055514442 -0.0000000000000000	-0.562744
F	0.6249822055514442 0.3750177944485555 -0.0000000000000000	-0.562744
F	0.3750177944485555 0.6249822055514442 -0.0000000000000000	-0.562744
N	0.3144165979325144 0.5000000000000000 0.5000000000000000	-0.240170
N	0.6855834240674873 0.5000000000000000 0.5000000000000000	-0.240170
N	0.5000000000000000 0.3144165979325144 0.5000000000000000	-0.240170
N	0.5000000000000000 0.6855834240674873 0.5000000000000000	-0.240169
	  	
