#======================================================================

# CRYSTAL DATA

#----------------------------------------------------------------------

data_VESTA_phase_1


_pd_phase_name                         SnFSIX_4_Ni_i
_cell_length_a                         23.58721
_cell_length_b                         20.47146
_cell_length_c                         9.46443
_cell_angle_alpha                      90
_cell_angle_beta                       90
_cell_angle_gamma                      90
_symmetry_space_group_name_H-M         P 1
_symmetry_Int_Tables_number            1

loop_
_symmetry_equiv_pos_as_xyz
   x, y, z

loop_
   _atom_site_label
   _atom_site_fract_x
   _atom_site_fract_y
   _atom_site_fract_z
   _atom_site_charge
C	0.4158625263403644 0.5976889380527187 0.6289607584359191	0.097331
C	0.3723303789624482 0.5521791708450403 0.6267005329404033	-0.169115
C	0.2770120926512997 0.4491474341329421 0.6261574146125144	-0.115289
C	0.2313814535704766 0.4063685724296555 0.6249652790743785	-0.112423
C	0.1303415090741415 0.3201447592897362 0.6236435411720659	-0.166128
C	0.0838817776508716 0.2786848987880317 0.6273694974424854	0.091170
C	0.9158626093403607 0.0976889490527231 0.6289607584359191	0.097331
C	0.8723303369624521 0.0521791128450427 0.6267005329404033	-0.169115
C	0.7770121136513048 0.9491474811329422 0.6261574146125144	-0.115289
C	0.7313814335704750 0.9063686184296522 0.6249652790743785	-0.112423
C	0.6303415090741417 0.8201448062897364 0.6236435411720659	-0.166129
C	0.5838817626508663 0.7786849917880290 0.6273694974424854	0.091170
C	0.5841374736596355 0.4023110159472775 0.1289607664359197	0.097331
C	0.6276696630375479 0.4478208751549634 0.1267005479404009	-0.169116
C	0.7229878863486952 0.5508525188670578 0.1261574226125151	-0.115288
C	0.7686185664295250 0.5936314275703445 0.1249652870743793	-0.112424
C	0.8696584909258583 0.6798552407102639 0.1236435481720698	-0.166126
C	0.9161182373491337 0.7213150552119714 0.1273695124424828	0.091168
C	0.0841374846596401 0.9023111089472816 0.1289607664359197	0.097331
C	0.1276696210375517 0.9478207831549630 0.1267005479404009	-0.169116
C	0.2229879283486986 0.0508525658670577 0.1261574226125151	-0.115287
C	0.2686185254295254 0.0936314045703462 0.1249652870743793	-0.112425
C	0.3696585329258620 0.1798552517102610 0.1236435481720698	-0.166122
C	0.4161182373491334 0.2213151252119701 0.1273695124424828	0.091179
C	0.5841374736596355 0.5976889380527187 0.8710392105640818	0.097331
C	0.6276696630375479 0.5521791708450403 0.8732994360595977	-0.169115
C	0.7229878863486952 0.4491474341329421 0.8738426163874846	-0.115289
C	0.7686185664295250 0.4063685724296555 0.8750347519256205	-0.112424
C	0.8696584909258583 0.3201447592897362 0.8763564898279329	-0.166130
C	0.9161182373491337 0.2786848987880317 0.8726305335575136	0.091170
C	0.0841374846596401 0.0976889490527231 0.8710392105640818	0.097331
C	0.1276696210375517 0.0521791128450427 0.8732994360595977	-0.169115
C	0.2229879283486986 0.9491474811329422 0.8738426163874846	-0.115288
C	0.2686185254295254 0.9063686184296522 0.8750347519256205	-0.112425
C	0.3696585329258620 0.8201448062897364 0.8763564898279331	-0.166126
C	0.4161182373491334 0.7786849917880290 0.8726305335575136	0.091181
C	0.4158625263403644 0.4023110159472775 0.3710392415640808	0.097331
C	0.3723303789624482 0.4478208751549634 0.3732994360595979	-0.169116
C	0.2770120926512997 0.5508525188670578 0.3738425853874856	-0.115288
C	0.2313814535704766 0.5936314275703445 0.3750346899256224	-0.112424
C	0.1303415090741415 0.6798552407102639 0.3763564278279281	-0.166128
C	0.0838817776508716 0.7213150552119714 0.3726304715575158	0.091168
C	0.9158626093403607 0.9023111089472816 0.3710392415640808	0.097331
C	0.8723303369624521 0.9478207831549630 0.3732994360595979	-0.169116
C	0.7770121136513048 0.0508525658670577 0.3738425853874856	-0.115288
C	0.7313814335704750 0.0936314045703462 0.3750346899256224	-0.112424
C	0.6303415090741417 0.1798552517102610 0.3763564278279281	-0.166128
C	0.5838817626508663 0.2213151252119701 0.3726304715575158	0.091169
C	0.5841374736596355 0.4023110159472775 0.3710392415640808	0.097332
C	0.6276696630375479 0.4478208751549634 0.3732994360595980	-0.169116
C	0.7229878863486952 0.5508525188670578 0.3738425853874857	-0.115288
C	0.7686185664295250 0.5936314275703445 0.3750346899256224	-0.112424
C	0.8696584909258583 0.6798552407102639 0.3763564278279281	-0.166128
C	0.9161182373491337 0.7213150552119714 0.3726304715575158	0.091168
C	0.0841374846596401 0.9023111089472816 0.3710392415640808	0.097332
C	0.1276696210375517 0.9478207831549630 0.3732994360595979	-0.169116
C	0.2229879283486986 0.0508525658670577 0.3738425853874856	-0.115288
C	0.2686185254295254 0.0936314045703462 0.3750346899256224	-0.112425
C	0.3696585329258620 0.1798552517102610 0.3763564278279281	-0.166124
C	0.4161182373491334 0.2213151252119701 0.3726304715575158	0.091178
C	0.4158625263403644 0.5976889380527187 0.8710392105640818	0.097331
C	0.3723303789624482 0.5521791708450403 0.8732994360595977	-0.169115
C	0.2770120926512997 0.4491474341329421 0.8738426163874846	-0.115289
C	0.2313814535704766 0.4063685724296555 0.8750347519256205	-0.112423
C	0.1303415090741415 0.3201447592897362 0.8763564898279331	-0.166130
C	0.0838817776508716 0.2786848987880317 0.8726305335575136	0.091169
C	0.9158626093403607 0.0976889490527231 0.8710392105640818	0.097331
C	0.8723303369624521 0.0521791128450427 0.8732994360595977	-0.169115
C	0.7770121136513048 0.9491474811329422 0.8738426163874846	-0.115289
C	0.7313814335704750 0.9063686184296522 0.8750347519256205	-0.112423
C	0.6303415090741417 0.8201448062897364 0.8763564898279330	-0.166130
C	0.5838817626508663 0.7786849917880290 0.8726305335575136	0.091169
C	0.4158625263403644 0.4023110159472775 0.1289607664359197	0.097332
C	0.3723303789624482 0.4478208751549634 0.1267005479404009	-0.169116
C	0.2770120926512997 0.5508525188670578 0.1261574226125151	-0.115288
C	0.2313814535704766 0.5936314275703445 0.1249652870743793	-0.112424
C	0.1303415090741414 0.6798552407102639 0.1236435481720699	-0.166129
C	0.0838817776508716 0.7213150552119714 0.1273695124424828	0.091168
C	0.9158626093403607 0.9023111089472816 0.1289607664359197	0.097332
C	0.8723303369624521 0.9478207831549630 0.1267005479404009	-0.169116
C	0.7770121136513048 0.0508525658670577 0.1261574226125151	-0.115288
C	0.7313814335704750 0.0936314045703462 0.1249652870743793	-0.112424
C	0.6303415090741417 0.1798552517102610 0.1236435481720698	-0.166129
C	0.5838817626508663 0.2213151252119701 0.1273695124424828	0.091168
C	0.5841374736596355 0.5976889380527187 0.6289607584359191	0.097332
C	0.6276696630375479 0.5521791708450403 0.6267005329404033	-0.169115
C	0.7229878863486952 0.4491474341329421 0.6261574146125144	-0.115289
C	0.7686185664295250 0.4063685724296555 0.6249652790743785	-0.112424
C	0.8696584909258583 0.3201447592897362 0.6236435411720659	-0.166131
C	0.9161182373491337 0.2786848987880317 0.6273694974424854	0.091170
C	0.0841374846596401 0.0976889490527231 0.6289607584359191	0.097332
C	0.1276696210375518 0.0521791128450427 0.6267005329404033	-0.169115
C	0.2229879283486986 0.9491474811329422 0.6261574146125144	-0.115288
C	0.2686185254295254 0.9063686184296522 0.6249652790743785	-0.112425
C	0.3696585329258620 0.8201448062897364 0.6236435411720659	-0.166128
C	0.4161182373491334 0.7786849917880290 0.6273694974424854	0.091180
C	0.3481728170101330 0.5253211582805315 0.7500000149999977	0.120142
C	0.3014367592515885 0.4751441945912779 0.7500000149999977	0.071646
C	0.2057983041647508 0.3846347614735003 0.7500000149999977	0.066338
C	0.1556667000293754 0.3415757767129528 0.7500000149999977	0.103955
C	0.8481727750101363 0.0253211412805335 0.7500000149999977	0.120142
C	0.8014368212515868 0.9751441475912779 0.7500000149999977	0.071646
C	0.7057983041647506 0.8846347844734991 0.7500000149999977	0.066338
C	0.6556667000293754 0.8415757077129511 0.7500000149999977	0.103955
C	0.6518271829898673 0.4746788877194653 0.2500000000000000	0.120142
C	0.6985631787484132 0.5248558054087218 0.2500000000000000	0.071645
C	0.7942016958352494 0.6153652625265013 0.2500000000000000	0.066338
C	0.8443333409706315 0.6584242002870484 0.2500000000000000	0.103956
C	0.1518271939898644 0.9746789347194657 0.2500000000000000	0.120143
C	0.1985632617484096 0.0248558084087190 0.2500000000000000	0.071646
C	0.2942016958352492 0.1153652155265012 0.2500000000000000	0.066337
C	0.3443332999706250 0.1584242342870515 0.2500000000000000	0.103942
C	0.6518271829898673 0.5253211582805315 0.7500000149999977	0.120142
C	0.6985631787484132 0.4751441945912779 0.7500000149999977	0.071646
C	0.7942016958352494 0.3846347614735003 0.7500000149999977	0.066338
C	0.8443333409706315 0.3415757767129528 0.7500000149999977	0.103955
C	0.1518271939898644 0.0253211412805335 0.7500000149999977	0.120142
C	0.1985632617484096 0.9751441475912779 0.7500000149999977	0.071646
C	0.2942016958352492 0.8846347844734991 0.7500000149999977	0.066337
C	0.3443332999706250 0.8415757077129511 0.7500000149999977	0.103942
C	0.3481728170101330 0.4746788877194653 0.2500000000000000	0.120142
C	0.3014367592515885 0.5248558054087218 0.2500000000000000	0.071645
C	0.2057983041647508 0.6153652625265013 0.2500000000000000	0.066338
C	0.1556667000293754 0.6584242002870484 0.2500000000000000	0.103956
C	0.8481727750101363 0.9746789347194657 0.2500000000000000	0.120142
C	0.8014368212515868 0.0248558084087190 0.2500000000000000	0.071645
C	0.7057983041647506 0.1153652155265011 0.2500000000000000	0.066339
C	0.6556667000293754 0.1584242342870515 0.2500000000000000	0.103956
H	0.4335145488709679 0.6166008957051580 0.5304646233703509	0.109761
H	0.3592683395969739 0.5395586838793679 0.5215627104041400	0.108021
H	0.2928367791940626 0.4611272895543837 0.5229968622190718	0.086655
H	0.2160246569662021 0.3902299712029174 0.5222003791819080	0.104192
H	0.1460538687938884 0.3346482373505122 0.5201498048619148	0.123063
H	0.0643188498369648 0.2610124656110374 0.5300923537473309	0.111350
H	0.9335145068709644 0.1166009307051568 0.5304646233703509	0.109761
H	0.8592682985969742 0.0395586198793621 0.5215627104041400	0.108020
H	0.7928367581940639 0.9611272895543841 0.5229968622190718	0.086655
H	0.7160246149661985 0.8902299022029229 0.5222003791819080	0.104192
H	0.6460538587938877 0.8346482373505125 0.5201498048619148	0.123063
H	0.5643188808369635 0.7610124426110390 0.5300923537473309	0.111350
H	0.5664854511290321 0.3833991042948423 0.0304646853703486	0.109761
H	0.6407316604030260 0.4604413631206330 0.0215627104041399	0.108021
H	0.7071632418059361 0.5388726644456121 0.0229969242190702	0.086655
H	0.7839753850338015 0.6097700057970766 0.0222003181819064	0.104192
H	0.8539461412061123 0.6653517166494837 0.0201498048619151	0.123062
H	0.9356810781630367 0.7389875573889610 0.0300923227473324	0.111339
H	0.0664854571290327 0.8833991042948420 0.0304646853703486	0.109761
H	0.1407317014030260 0.9604413631206324 0.0215627104041399	0.108021
H	0.2071632418059357 0.0388727074456125 0.0229969242190702	0.086655
H	0.2839753430337980 0.1097700397970798 0.0222003181819064	0.104192
H	0.3539461412061126 0.1653517396494825 0.0201498048619151	0.123057
H	0.4356811191630363 0.2389875343889627 0.0300923227473324	0.111339
H	0.5664854511290321 0.6166008957051580 -0.0304646423703487	0.109761
H	0.6407316604030260 0.5395586838793679 -0.0215627374041456	0.108020
H	0.7071632418059361 0.4611272895543837 -0.0229968802190665	0.086655
H	0.7839753850338015 0.3902299712029174 -0.0222003721819036	0.104192
H	0.8539461412061123 0.3346482373505122 -0.0201498048619150	0.123063
H	0.9356810781630367 0.2610124656110374 -0.0300923607473354	0.111350
H	0.0664854571290327 0.1166009307051568 -0.0304646423703487	0.109761
H	0.1407317014030260 0.0395586198793621 -0.0215627374041456	0.108020
H	0.2071632418059357 0.9611272895543841 -0.0229968802190665	0.086655
H	0.2839753430337980 0.8902299022029229 -0.0222003721819036	0.104192
H	0.3539461412061126 0.8346482373505125 -0.0201498048619150	0.123058
H	0.4356811191630363 0.7610124426110390 -0.0300923607473354	0.111350
H	0.4335145488709679 0.3833991042948423 0.4695353456296505	0.109761
H	0.3592683395969739 0.4604413631206330 0.4784373205958593	0.108020
H	0.2928367791940626 0.5388726644456121 0.4770031067809288	0.086655
H	0.2160246569662021 0.6097700057970766 0.4777995898180932	0.104192
H	0.1460538687938884 0.6653517166494837 0.4798501641380859	0.123062
H	0.0643188498369648 0.7389875573889610 0.4699076462526686	0.111338
H	0.9335145068709644 0.8833991042948420 0.4695353456296505	0.109761
H	0.8592682985969742 0.9604413631206324 0.4784373205958593	0.108020
H	0.7928367581940639 0.0388727074456125 0.4770031067809288	0.086655
H	0.7160246149661985 0.1097700397970798 0.4777995898180932	0.104192
H	0.6460538587938877 0.1653517396494825 0.4798501641380859	0.123062
H	0.5643188808369635 0.2389875343889627 0.4699076462526686	0.111338
H	0.5664854511290321 0.3833991042948423 0.4695353456296505	0.109761
H	0.6407316604030260 0.4604413631206330 0.4784373205958593	0.108020
H	0.7071632418059361 0.5388726644456121 0.4770031067809288	0.086655
H	0.7839753850338015 0.6097700057970766 0.4777995898180932	0.104193
H	0.8539461412061123 0.6653517166494837 0.4798501641380859	0.123061
H	0.9356810781630367 0.7389875573889610 0.4699076462526686	0.111339
H	0.0664854571290327 0.8833991042948420 0.4695353456296505	0.109761
H	0.1407317014030260 0.9604413631206324 0.4784373205958593	0.108021
H	0.2071632418059357 0.0388727074456125 0.4770031067809288	0.086655
H	0.2839753430337980 0.1097700397970798 0.4777995898180932	0.104192
H	0.3539461412061126 0.1653517396494825 0.4798501641380859	0.123056
H	0.4356811191630363 0.2389875343889627 0.4699076462526686	0.111339
H	0.4335145488709679 0.6166008957051580 -0.0304646423703487	0.109761
H	0.3592683395969739 0.5395586838793679 -0.0215627374041456	0.108020
H	0.2928367791940626 0.4611272895543837 -0.0229968802190665	0.086655
H	0.2160246569662021 0.3902299712029174 -0.0222003721819036	0.104192
H	0.1460538687938884 0.3346482373505122 -0.0201498048619150	0.123062
H	0.0643188498369648 0.2610124656110374 -0.0300923607473354	0.111350
H	0.9335145068709644 0.1166009307051568 -0.0304646423703487	0.109761
H	0.8592682985969742 0.0395586198793621 -0.0215627374041456	0.108020
H	0.7928367581940639 0.9611272895543841 -0.0229968802190665	0.086655
H	0.7160246149661985 0.8902299022029229 -0.0222003721819036	0.104192
H	0.6460538587938877 0.8346482373505125 -0.0201498048619150	0.123062
H	0.5643188808369635 0.7610124426110390 -0.0300923607473354	0.111350
H	0.4335145488709679 0.3833991042948423 0.0304646853703486	0.109761
H	0.3592683395969739 0.4604413631206330 0.0215627104041399	0.108021
H	0.2928367791940626 0.5388726644456121 0.0229969242190702	0.086655
H	0.2160246569662021 0.6097700057970766 0.0222003181819064	0.104193
H	0.1460538687938884 0.6653517166494837 0.0201498048619151	0.123061
H	0.0643188498369648 0.7389875573889610 0.0300923227473324	0.111339
H	0.9335145068709644 0.8833991042948420 0.0304646853703486	0.109761
H	0.8592682985969742 0.9604413631206324 0.0215627104041399	0.108021
H	0.7928367581940639 0.0388727074456125 0.0229969242190702	0.086655
H	0.7160246149661985 0.1097700397970798 0.0222003181819064	0.104193
H	0.6460538587938877 0.1653517396494825 0.0201498048619151	0.123061
H	0.5643188808369635 0.2389875343889627 0.0300923227473324	0.111339
H	0.5664854511290321 0.6166008957051580 0.5304646233703509	0.109762
H	0.6407316604030260 0.5395586838793679 0.5215627104041400	0.108020
H	0.7071632418059361 0.4611272895543837 0.5229968622190718	0.086655
H	0.7839753850338015 0.3902299712029174 0.5222003791819080	0.104193
H	0.8539461412061123 0.3346482373505122 0.5201498048619148	0.123062
H	0.9356810781630367 0.2610124656110374 0.5300923537473309	0.111351
H	0.0664854571290327 0.1166009307051568 0.5304646233703509	0.109761
H	0.1407317014030260 0.0395586198793621 0.5215627104041400	0.108020
H	0.2071632418059357 0.9611272895543841 0.5229968622190718	0.086655
H	0.2839753430337980 0.8902299022029229 0.5222003791819080	0.104192
H	0.3539461412061126 0.8346482373505125 0.5201498048619148	0.123057
H	0.4356811191630363 0.7610124426110390 0.5300923537473309	0.111351
Ni	0.5000000000000000 0.6887663567480155 0.7500000149999977	0.459363
Ni	-0.0000000000000000 0.1887664147480129 0.7500000149999977	0.459364
Ni	0.5000000000000000 0.3112335732519863 0.2500000000000000	0.459356
Ni	-0.0000000000000000 0.8112336432519845 0.2500000000000000	0.459357
F	0.5000000000000000 0.6851316562182044 0.4725772229348634	-0.570727
F	-0.0000000000000000 0.1851316912182036 0.4725772229348634	-0.570727
F	0.5000000000000000 0.3148683207817902 -0.0274227770651364	-0.570726
F	-0.0000000000000000 0.8148683437817956 -0.0274227770651364	-0.570726
F	0.5000000000000000 0.6851316562182044 0.0274227630651353	-0.570727
F	-0.0000000000000000 0.1851316912182036 0.0274227630651353	-0.570727
F	0.5000000000000000 0.3148683207817902 0.5274227470651343	-0.570726
F	-0.0000000000000000 0.8148683437817956 0.5274227470651343	-0.570726
F	0.4398548253957157 0.7509285034616079 0.2500000000000000	-0.584216
F	0.5593889266397695 0.6137085812360802 0.2500000000000000	-0.574113
F	0.9398548253957155 0.2509285034616074 0.2500000000000000	-0.584216
F	0.0593889476397745 0.1137085812360802 0.2500000000000000	-0.574113
F	0.5601451336042846 0.2490714735383941 0.7500000149999977	-0.584215
F	0.4406110733602309 0.3862914187639197 0.7500000149999977	-0.574112
F	0.0601451856042887 0.7490714965383921 0.7500000149999977	-0.584215
F	0.9406110733602305 0.8862914187639198 0.7500000149999977	-0.574113
F	0.5601451336042846 0.7509285034616079 0.2500000000000000	-0.584216
F	0.4406110733602309 0.6137085812360802 0.2500000000000000	-0.574113
F	0.0601451856042887 0.2509285034616074 0.2500000000000000	-0.584216
F	0.9406110733602305 0.1137085812360802 0.2500000000000000	-0.574113
F	0.4398548253957157 0.2490714735383941 0.7500000149999977	-0.584215
F	0.5593889266397695 0.3862914187639198 0.7500000149999977	-0.574112
F	0.9398548253957155 0.7490714965383921 0.7500000149999977	-0.584215
F	0.0593889476397745 0.8862914187639198 0.7500000149999977	-0.574113
N	0.4382309435653555 0.6202369824765155 0.7500000149999977	-0.157980
N	0.5612931056913502 0.7576694132027594 0.7500000149999977	-0.167984
N	0.9382309025653485 0.1202369704765148 0.7500000149999977	-0.157980
N	0.0612930796913476 0.2576693902027541 0.7500000149999977	-0.167984
N	0.5617690564346446 0.3797630175234842 0.2500000000000000	-0.157979
N	0.4387068943086502 0.2423306097972459 0.2500000000000000	-0.167963
N	0.0617690564346446 0.8797630175234845 0.2500000000000000	-0.157978
N	0.9387069353086497 0.7423305867972406 0.2500000000000000	-0.167960
N	0.5617690564346446 0.6202369824765155 0.7500000149999977	-0.157980
N	0.4387068943086502 0.7576694132027594 0.7500000149999977	-0.167986
N	0.0617690564346446 0.1202369704765148 0.7500000149999977	-0.157980
N	0.9387069353086497 0.2576693902027541 0.7500000149999977	-0.167985
N	0.4382309435653555 0.3797630175234842 0.2500000000000000	-0.157979
N	0.5612931056913502 0.2423306097972459 0.2500000000000000	-0.167961
N	0.9382309025653485 0.8797630175234845 0.2500000000000000	-0.157979
N	0.0612930796913476 0.7423305867972406 0.2500000000000000	-0.167960
Sn	0.5000000000000000 0.6829405018319997 0.2500000000000000	1.852174
Sn	-0.0000000000000000 0.1829405258320013 0.2500000000000000	1.852174
Sn	0.5000000000000000 0.3170594511680003 0.7500000149999977	1.852173
Sn	-0.0000000000000000 0.8170594981680003 0.7500000149999977	1.852173
	  	
