#======================================================================

# CRYSTAL DATA

#----------------------------------------------------------------------

data_VESTA_phase_1


_pd_phase_name                         SnFSIX_16_Cu_i
_cell_length_a                         24.92124
_cell_length_b                         24.92124
_cell_length_c                         8.20159
_cell_angle_alpha                      90
_cell_angle_beta                       90
_cell_angle_gamma                      90
_symmetry_space_group_name_H-M         P 1
_symmetry_Int_Tables_number            1

loop_
_symmetry_equiv_pos_as_xyz
   x, y, z

loop_
   _atom_site_label
   _atom_site_fract_x
   _atom_site_fract_y
   _atom_site_fract_z
   _atom_site_charge
C	0.4788614359122986 0.3902686996032436 0.3734897723532170	0.101590
C	0.4780512580959243 0.3345636378120620 0.3689499326177469	-0.165009
C	0.9549440496760220 0.6140829064240069 0.9432486024478808	-0.124453
C	0.9551214093444190 0.5583336400165765 0.9440476207785400	-0.124825
C	0.5211386020876971 0.6097313383967525 0.3734897723532170	0.101597
C	0.5219487419040757 0.6654364001879339 0.3689499326177469	-0.165015
C	0.0450558743239786 0.3859170545759932 0.9432486024478808	-0.124453
C	0.0448786096555792 0.4416663979834267 0.9440476207785400	-0.124824
C	0.6097313383967525 0.4788614359122986 0.3734897723532170	0.101590
C	0.6654364001879339 0.4780512580959243 0.3689499326177469	-0.165009
C	0.3859170545759932 0.9549440496760220 0.9432486024478808	-0.124453
C	0.4416663979834267 0.9551214093444190 0.9440476207785400	-0.124824
C	0.3902686996032436 0.5211386020876971 0.3734897723532170	0.101597
C	0.3345636378120620 0.5219487419040757 0.3689499326177469	-0.165014
C	0.6140829064240069 0.0450558743239786 0.9432486024478808	-0.124453
C	0.5583336400165765 0.0448786096555792 0.9440476207785400	-0.124825
C	0.5211386020876971 0.3902686996032436 0.6265102276467833	0.101597
C	0.5219487419040757 0.3345636378120620 0.6310500353822501	-0.165015
C	0.0450558743239786 0.6140829064240069 0.0567514095521204	-0.124453
C	0.0448786096555792 0.5583336400165765 0.0559523552214579	-0.124825
C	0.4788614359122986 0.6097313383967525 0.6265102276467833	0.101590
C	0.4780512580959243 0.6654364001879339 0.6310500353822501	-0.165010
C	0.9549440496760220 0.3859170545759932 0.0567514095521204	-0.124453
C	0.9551214093444190 0.4416663979834267 0.0559523552214579	-0.124824
C	0.3902686996032436 0.4788614359122986 0.6265102276467833	0.101590
C	0.3345636378120620 0.4780512580959243 0.6310500353822501	-0.165010
C	0.6140829064240069 0.9549440496760220 0.0567514095521204	-0.124453
C	0.5583336400165765 0.9551214093444190 0.0559523552214579	-0.124825
C	0.6097313383967525 0.5211386020876971 0.6265102276467833	0.101597
C	0.6654364001879339 0.5219487419040757 0.6310500353822501	-0.165015
C	0.3859170545759932 0.0450558743239786 0.0567514095521204	-0.124453
C	0.4416663979834267 0.0448786096555792 0.0559523552214579	-0.124824
C	0.5450559123239820 0.8859170165759974 0.5567514295521148	-0.124453
C	0.5448785906555810 0.9416663979834267 0.5559523472214574	-0.124824
C	0.0211385560877008 0.1097312813967586 0.1265102276467832	0.101597
C	0.0219487399040757 0.1654363621879382 0.1310500513822517	-0.165014
C	0.4549441256760216 0.1140829544240038 0.5567514295521148	-0.124453
C	0.4551213713444230 0.0583335870165755 0.5559523472214574	-0.124824
C	0.9788613979123029 0.8902686616032475 0.1265102276467832	0.101597
C	0.9780512580959243 0.8345636378120621 0.1310500513822517	-0.165014
C	0.1140829544240038 0.5450559123239820 0.5567514295521148	-0.124453
C	0.0583335870165755 0.5448785906555810 0.5559523472214574	-0.124824
C	0.8902686616032475 0.0211385560877008 0.1265102276467832	0.101597
C	0.8345636378120621 0.0219487399040757 0.1310500513822517	-0.165014
C	0.8859170165759974 0.4549441256760216 0.5567514295521148	-0.124453
C	0.9416663979834267 0.4551213713444230 0.5559523472214574	-0.124824
C	0.1097312813967586 0.9788613979123029 0.1265102276467832	0.101597
C	0.1654363621879382 0.9780512580959243 0.1310500513822517	-0.165014
C	0.4549441256760216 0.8859170165759974 0.4432486024478808	-0.124453
C	0.4551213713444230 0.9416663979834267 0.4440476527785428	-0.124824
C	0.9788613979123029 0.1097312813967586 0.8734898043532122	0.101597
C	0.9780512580959243 0.1654363621879382 0.8689499326177472	-0.165015
C	0.5450559123239820 0.1140829544240038 0.4432486024478808	-0.124453
C	0.5448785906555810 0.0583335870165755 0.4440476527785428	-0.124825
C	0.0211385560877008 0.8902686616032475 0.8734898043532122	0.101597
C	0.0219487399040757 0.8345636378120621 0.8689499326177472	-0.165015
C	0.8859170165759974 0.5450559123239820 0.4432486024478808	-0.124453
C	0.9416663979834267 0.5448785906555810 0.4440476527785428	-0.124824
C	0.1097312813967586 0.0211385560877008 0.8734898043532122	0.101597
C	0.1654363621879382 0.0219487399040757 0.8689499326177472	-0.165015
C	0.1140829544240038 0.4549441256760216 0.4432486024478808	-0.124453
C	0.0583335870165755 0.4551213713444230 0.4440476527785428	-0.124824
C	0.8902686616032475 0.9788613979123029 0.8734898043532122	0.101597
C	0.8345636378120621 0.9780512580959243 0.8689499326177472	-0.165015
C	0.5000000000000000 0.3054444731678432 0.5000000000000000	0.175032
C	0.5000000000000000 0.2485958456592648 0.5000000000000000	-0.113446
C	0.5000000000000000 0.1996867957189355 0.5000000000000000	-0.093604
C	0.5000000000000000 0.1428289804752798 0.5000000000000000	0.124222
C	0.5000000000000000 0.0295572735557537 0.5000000000000000	0.066208
C	-0.0000000000000000 0.8054444541678376 -0.0000000000000000	0.175035
C	-0.0000000000000000 0.7485958256592632 -0.0000000000000000	-0.113446
C	-0.0000000000000000 0.6996867577189395 -0.0000000000000000	-0.093604
C	-0.0000000000000000 0.6428289424752769 -0.0000000000000000	0.124222
C	-0.0000000000000000 0.5295572875557546 -0.0000000000000000	0.066209
C	0.5000000000000000 0.6945555078321592 0.5000000000000000	0.175032
C	0.5000000000000000 0.7514042123407328 0.5000000000000000	-0.113445
C	0.5000000000000000 0.8003132042810644 0.5000000000000000	-0.093604
C	0.5000000000000000 0.8571710195247200 0.5000000000000000	0.124222
C	0.5000000000000000 0.9704427124442454 0.5000000000000000	0.066208
C	-0.0000000000000000 0.1945555268321568 -0.0000000000000000	0.175035
C	-0.0000000000000000 0.2514041543407351 -0.0000000000000000	-0.113446
C	-0.0000000000000000 0.3003131842810629 -0.0000000000000000	-0.093603
C	-0.0000000000000000 0.3571710195247203 -0.0000000000000000	0.124222
C	-0.0000000000000000 0.4704427504442481 -0.0000000000000000	0.066208
C	0.6945555078321592 0.5000000000000000 0.5000000000000000	0.175032
C	0.7514042123407328 0.5000000000000000 0.5000000000000000	-0.113445
C	0.8003132042810644 0.5000000000000000 0.5000000000000000	-0.093604
C	0.8571710195247200 0.5000000000000000 0.5000000000000000	0.124222
C	0.9704427124442454 0.5000000000000000 0.5000000000000000	0.066208
C	0.1945555268321568 -0.0000000000000000 -0.0000000000000000	0.175035
C	0.2514041543407351 -0.0000000000000000 -0.0000000000000000	-0.113446
C	0.3003131842810629 -0.0000000000000000 -0.0000000000000000	-0.093603
C	0.3571710195247203 -0.0000000000000000 -0.0000000000000000	0.124222
C	0.4704427504442481 -0.0000000000000000 -0.0000000000000000	0.066208
C	0.3054444731678432 0.5000000000000000 0.5000000000000000	0.175032
C	0.2485958456592648 0.5000000000000000 0.5000000000000000	-0.113446
C	0.1996867957189355 0.5000000000000000 0.5000000000000000	-0.093604
C	0.1428289804752798 0.5000000000000000 0.5000000000000000	0.124222
C	0.0295572735557537 0.5000000000000000 0.5000000000000000	0.066208
C	0.8054444541678376 -0.0000000000000000 -0.0000000000000000	0.175035
C	0.7485958256592632 -0.0000000000000000 -0.0000000000000000	-0.113446
C	0.6996867577189395 -0.0000000000000000 -0.0000000000000000	-0.093604
C	0.6428289424752769 -0.0000000000000000 -0.0000000000000000	0.124222
C	0.5295572875557546 -0.0000000000000000 -0.0000000000000000	0.066208
H	0.4626993555976788 0.4138197482278991 0.2727192089177976	0.102610
H	0.4607315184930174 0.3138302870349975 0.2646189819028965	0.130119
H	0.9201870174071367 0.6360159686904584 0.8976339710784061	0.112191
H	0.9205069489881714 0.5365088857287605 0.8967543992645228	0.105953
H	0.5373006444023216 0.5861802517721003 0.2727192089177976	0.102610
H	0.5392685195069858 0.6861697889650015 0.2646189819028965	0.130116
H	0.0798129635928653 0.3639840313095412 0.8976339710784061	0.112191
H	0.0794930800118276 0.4634911532712391 0.8967543992645228	0.105953
H	0.5861802517721003 0.4626993555976788 0.2727192089177976	0.102610
H	0.6861697889650015 0.4607315184930174 0.2646189819028965	0.130119
H	0.3639840313095412 0.9201870174071367 0.8976339710784061	0.112191
H	0.4634911532712391 0.9205069489881714 0.8967543992645228	0.105953
H	0.4138197482278991 0.5373006444023216 0.2727192089177976	0.102610
H	0.3138302870349975 0.5392685195069858 0.2646189819028965	0.130116
H	0.6360159686904584 0.0798129635928653 0.8976339710784061	0.112191
H	0.5365088857287605 0.0794930800118276 0.8967543992645228	0.105953
H	0.5373006444023216 0.4138197482278991 0.7272807750822003	0.102610
H	0.5392685195069858 0.3138302870349975 0.7353810180971038	0.130116
H	0.0798129635928653 0.6360159686904584 0.1023660049215919	0.112191
H	0.0794930800118276 0.5365088857287605 0.1032456007354772	0.105953
H	0.4626993555976788 0.5861802517721003 0.7272807750822003	0.102610
H	0.4607315184930174 0.6861697889650015 0.7353810180971038	0.130119
H	0.9201870174071367 0.3639840313095412 0.1023660049215919	0.112191
H	0.9205069489881714 0.4634911532712391 0.1032456007354772	0.105953
H	0.4138197482278991 0.4626993555976788 0.7272807750822003	0.102610
H	0.3138302870349975 0.4607315184930174 0.7353810180971038	0.130119
H	0.6360159686904584 0.9201870174071367 0.1023660049215919	0.112191
H	0.5365088857287605 0.9205069489881714 0.1032456007354772	0.105953
H	0.5861802517721003 0.5373006444023216 0.7272807750822003	0.102610
H	0.6861697889650015 0.5392685195069858 0.7353810180971038	0.130116
H	0.3639840313095412 0.0798129635928653 0.1023660049215919	0.112191
H	0.4634911532712391 0.0794930800118276 0.1032456007354772	0.105953
H	0.5798129825928633 0.8639840313095416 0.6023659969215912	0.112191
H	0.5794930510118286 0.9634911532712391 0.6032456327354798	0.105953
H	0.0373006544023223 0.0861802227721017 0.2272807910822022	0.102610
H	0.0392685245069826 0.1861697319650004 0.2353810500970990	0.130116
H	0.4201870554071397 0.1360159976904576 0.6023659969215912	0.112191
H	0.4205069099881715 0.0365088707287558 0.6032456327354798	0.105953
H	0.9626993555976784 0.9138198252278954 0.2272807910822022	0.102610
H	0.9607314804930142 0.8138303250350009 0.2353810500970990	0.130116
H	0.1360159976904576 0.5798129825928633 0.6023659969215912	0.112191
H	0.0365088707287558 0.5794930510118286 0.6032456327354798	0.105953
H	0.9138198252278954 0.0373006544023223 0.2272807910822022	0.102610
H	0.8138303250350009 0.0392685245069826 0.2353810500970990	0.130116
H	0.8639840313095416 0.4201870554071397 0.6023659969215912	0.112191
H	0.9634911532712391 0.4205069099881715 0.6032456327354798	0.105953
H	0.0861802227721017 0.9626993555976784 0.2272807910822022	0.102610
H	0.1861697319650004 0.9607314804930142 0.2353810500970990	0.130116
H	0.4201870554071397 0.8639840313095416 0.3976339710784063	0.112191
H	0.4205069099881715 0.9634911532712391 0.3967544312645186	0.105953
H	0.9626993555976784 0.0861802227721017 0.7727191929177970	0.102610
H	0.9607314804930142 0.1861697319650004 0.7646189499029007	0.130116
H	0.5798129825928633 0.1360159976904576 0.3976339710784063	0.112191
H	0.5794930510118286 0.0365088707287558 0.3967544312645186	0.105953
H	0.0373006544023223 0.9138198252278954 0.7727191929177970	0.102610
H	0.0392685245069826 0.8138303250350009 0.7646189499029007	0.130116
H	0.8639840313095416 0.5798129825928633 0.3976339710784063	0.112191
H	0.9634911532712391 0.5794930510118286 0.3967544312645186	0.105953
H	0.0861802227721017 0.0373006544023223 0.7727191929177970	0.102610
H	0.1861697319650004 0.0392685245069826 0.7646189499029007	0.130116
H	0.1360159976904576 0.4201870554071397 0.3976339710784063	0.112191
H	0.0365088707287558 0.4205069099881715 0.3967544312645186	0.105953
H	0.9138198252278954 0.9626993555976784 0.7727191929177970	0.102610
H	0.8138303250350009 0.9607314804930142 0.7646189499029007	0.130116
Cu	0.5000000000000000 0.5000000000000000 0.5000000000000000	0.737142
Cu	-0.0000000000000000 -0.0000000000000000 -0.0000000000000000	0.737142
Sn	0.5000000000000000 0.5000000000000000 -0.0000000000000000	1.880510
Sn	-0.0000000000000000 -0.0000000000000000 0.5000000000000000	1.880510
F	0.5000000000000000 0.5000000000000000 0.2431650520472358	-0.553142
F	-0.0000000000000000 -0.0000000000000000 0.7431650200472405	-0.553142
F	0.5000000000000000 0.5000000000000000 0.7568348839527658	-0.553142
F	-0.0000000000000000 -0.0000000000000000 0.2568349479527642	-0.553142
F	0.5568485795484095 0.5568485795484095 -0.0000000000000000	-0.581745
F	0.0568485325484089 0.0568485325484089 0.5000000000000000	-0.581745
F	0.4431514964515971 0.4431514964515971 -0.0000000000000000	-0.581745
F	0.9431514584515936 0.9431514584515936 0.5000000000000000	-0.581745
F	0.4431514964515971 0.5568485795484095 -0.0000000000000000	-0.581745
F	0.9431514584515936 0.0568485325484089 0.5000000000000000	-0.581745
F	0.5568485795484095 0.4431514964515971 -0.0000000000000000	-0.581745
F	0.0568485325484089 0.9431514584515936 0.5000000000000000	-0.581745
N	0.5000000000000000 0.4176265930685946 0.5000000000000000	-0.230862
N	-0.0000000000000000 0.9176266310685971 -0.0000000000000000	-0.230863
N	0.5000000000000000 0.5823734069314060 0.5000000000000000	-0.230862
N	-0.0000000000000000 0.0823734159314029 -0.0000000000000000	-0.230863
N	0.5823734069314060 0.5000000000000000 0.5000000000000000	-0.230862
N	0.0823734159314029 -0.0000000000000000 -0.0000000000000000	-0.230863
N	0.4176265930685946 0.5000000000000000 0.5000000000000000	-0.230862
N	0.9176266310685971 -0.0000000000000000 -0.0000000000000000	-0.230863
	  	
