#======================================================================

# CRYSTAL DATA

#----------------------------------------------------------------------

data_VESTA_phase_1


_pd_phase_name                         SnFSIX_15_Zn_i
_cell_length_a                         29.92686
_cell_length_b                         29.09776
_cell_length_c                         8.27255
_cell_angle_alpha                      90
_cell_angle_beta                       90
_cell_angle_gamma                      90
_symmetry_space_group_name_H-M         P 1
_symmetry_Int_Tables_number            1

loop_
_symmetry_equiv_pos_as_xyz
   x, y, z

loop_
   _atom_site_label
   _atom_site_fract_x
   _atom_site_fract_y
   _atom_site_fract_z
   _atom_site_charge
C	0.9330903726902585 0.1022110187450017 0.8901848766161161	0.107076
C	0.9011019504950564 0.0677302881336333 0.8958860575335764	-0.162598
C	0.7698670934444166 0.9362412852595401 0.8975424271062360	-0.113868
C	0.7358242542632322 0.9039901055934337 0.8973347024534678	-0.114732
C	0.5685436450972051 0.7418509711085619 0.8900661667280266	0.106445
C	0.6020523962219653 0.7747456340729403 0.8955656668196855	-0.168186
C	0.4330904046902540 0.6022110347450033 0.8901848766161161	0.107076
C	0.4011019824950593 0.5677302511336341 0.8958860575335764	-0.162598
C	0.2698670294444188 0.4362413182595391 0.8975424271062360	-0.113868
C	0.2358242222632295 0.4039901715934390 0.8973347024534678	-0.114732
C	0.0685436690972075 0.2418509541085640 0.8900661667280266	0.106447
C	0.1020523722219630 0.2747456670729388 0.8955656668196855	-0.168185
C	0.0669095953097461 0.8977889652549967 0.3901849076161156	0.107077
C	0.0988980255049415 0.9322697488663659 0.3958860895335718	-0.162598
C	0.2301329225555843 0.0637586777404605 0.3975424891062342	-0.113867
C	0.2641757617367693 0.0960098444065623 0.3973347024534684	-0.114732
C	0.4314563229027916 0.2581490788914350 0.3900661977280256	0.106447
C	0.3979476037780348 0.2252543329270613 0.3955656668196858	-0.168185
C	0.5669096273097415 0.3977889982549961 0.3901849076161156	0.107077
C	0.5988980495049436 0.4322697488663662 0.3958860895335718	-0.162599
C	0.7301329065555834 0.5637587147404599 0.3975424891062342	-0.113867
C	0.7641757457367678 0.5960098944065663 0.3973347024534684	-0.114732
C	0.9314563549027949 0.7581490288914381 0.3900661977280256	0.106444
C	0.8979476037780347 0.7252543659270597 0.3955656668196858	-0.168186
C	0.0669095953097461 0.1022110187450017 0.6098150923838849	0.107076
C	0.0988980255049415 0.0677302881336333 0.6041138484664229	-0.162597
C	0.2301329225555843 0.9362412852595401 0.6024575418937650	-0.113867
C	0.2641757617367693 0.9039901055934337 0.6026653285465312	-0.114732
C	0.4314563229027916 0.7418509711085619 0.6099337392719727	0.106445
C	0.3979476037780348 0.7747456340729403 0.6044343021803155	-0.168186
C	0.5669096273097415 0.6022110347450033 0.6098150923838849	0.107077
C	0.5988980495049436 0.5677302511336341 0.6041138484664229	-0.162598
C	0.7301329065555834 0.4362413182595391 0.6024575418937650	-0.113868
C	0.7641757457367678 0.4039901715934390 0.6026653285465312	-0.114732
C	0.9314563549027949 0.2418509541085640 0.6099337392719727	0.106447
C	0.8979476037780347 0.2747456670729388 0.6044343021803155	-0.168185
C	0.9330903726902585 0.8977889652549967 0.1098151083838857	0.107077
C	0.9011019504950564 0.9322697488663659 0.1041138874664228	-0.162598
C	0.7698670934444166 0.0637586777404605 0.1024575418937650	-0.113867
C	0.7358242542632322 0.0960098444065623 0.1026653135465259	-0.114732
C	0.5685436450972051 0.2581490788914350 0.1099337942719738	0.106447
C	0.6020523962219653 0.2252543329270613 0.1044343481803121	-0.168185
C	0.4330904046902540 0.3977889982549961 0.1098151083838857	0.107077
C	0.4011019824950593 0.4322697488663662 0.1041138874664228	-0.162598
C	0.2698670294444188 0.5637587147404599 0.1024575418937650	-0.113867
C	0.2358242222632295 0.5960098944065663 0.1026653135465259	-0.114732
C	0.0685436690972075 0.7581490288914381 0.1099337942719738	0.106444
C	0.1020523722219630 0.7252543659270597 0.1044343481803121	-0.168186
C	0.0669095953097461 0.8977889652549967 0.1098151083838857	0.107077
C	0.0988980255049415 0.9322697488663659 0.1041138874664228	-0.162598
C	0.2301329225555843 0.0637586777404605 0.1024575418937650	-0.113867
C	0.2641757617367693 0.0960098444065623 0.1026653135465259	-0.114732
C	0.4314563229027916 0.2581490788914350 0.1099337942719738	0.106447
C	0.3979476037780348 0.2252543329270613 0.1044343481803121	-0.168184
C	0.5669096273097415 0.3977889982549961 0.1098151083838857	0.107077
C	0.5988980495049436 0.4322697488663662 0.1041138874664228	-0.162599
C	0.7301329065555834 0.5637587147404599 0.1024575418937650	-0.113867
C	0.7641757457367678 0.5960098944065663 0.1026653135465259	-0.114732
C	0.9314563549027949 0.7581490288914381 0.1099337942719738	0.106444
C	0.8979476037780347 0.7252543659270597 0.1044343481803121	-0.168185
C	0.9330903726902585 0.1022110187450017 0.6098150923838849	0.107077
C	0.9011019504950564 0.0677302881336333 0.6041138484664229	-0.162598
C	0.7698670934444166 0.9362412852595401 0.6024575418937650	-0.113867
C	0.7358242542632322 0.9039901055934337 0.6026653285465312	-0.114732
C	0.5685436450972051 0.7418509711085619 0.6099337392719727	0.106445
C	0.6020523962219653 0.7747456340729403 0.6044343021803155	-0.168185
C	0.4330904046902540 0.6022110347450033 0.6098150923838849	0.107077
C	0.4011019824950593 0.5677302511336341 0.6041138484664229	-0.162597
C	0.2698670294444188 0.4362413182595391 0.6024575418937650	-0.113868
C	0.2358242222632295 0.4039901715934390 0.6026653285465312	-0.114732
C	0.0685436690972075 0.2418509541085640 0.6099337392719727	0.106447
C	0.1020523722219630 0.2747456670729388 0.6044343021803155	-0.168185
C	0.9330903726902585 0.8977889652549967 0.3901849076161156	0.107077
C	0.9011019504950564 0.9322697488663659 0.3958860895335718	-0.162598
C	0.7698670934444166 0.0637586777404605 0.3975424891062342	-0.113867
C	0.7358242542632322 0.0960098444065623 0.3973347024534684	-0.114732
C	0.5685436450972051 0.2581490788914350 0.3900661977280256	0.106447
C	0.6020523962219653 0.2252543329270613 0.3955656668196858	-0.168184
C	0.4330904046902540 0.3977889982549961 0.3901849076161156	0.107077
C	0.4011019824950593 0.4322697488663662 0.3958860895335718	-0.162598
C	0.2698670294444188 0.5637587147404599 0.3975424891062342	-0.113867
C	0.2358242222632295 0.5960098944065663 0.3973347024534684	-0.114733
C	0.0685436690972075 0.7581490288914381 0.3900661977280256	0.106444
C	0.1020523722219630 0.7252543659270597 0.3955656668196858	-0.168185
C	0.0669095953097461 0.1022110187450017 0.8901848766161161	0.107076
C	0.0988980255049415 0.0677302881336333 0.8958860575335764	-0.162598
C	0.2301329225555843 0.9362412852595401 0.8975424271062360	-0.113867
C	0.2641757617367693 0.9039901055934337 0.8973347024534678	-0.114732
C	0.4314563229027916 0.7418509711085619 0.8900661667280266	0.106445
C	0.3979476037780348 0.7747456340729403 0.8955656668196855	-0.168186
C	0.5669096273097415 0.6022110347450033 0.8901848766161161	0.107077
C	0.5988980495049436 0.5677302511336341 0.8958860575335764	-0.162598
C	0.7301329065555834 0.4362413182595391 0.8975424271062360	-0.113868
C	0.7641757457367678 0.4039901715934390 0.8973347024534678	-0.114732
C	0.9314563549027949 0.2418509541085640 0.8900661667280266	0.106447
C	0.8979476037780347 0.2747456670729388 0.8955656668196855	-0.168185
C	0.6540137094326336 0.8254445453809848 0.7500000160000013	-0.105656
C	0.8842628571588417 0.0497776420399574 0.7500000160000013	0.163329
C	0.8217516830470604 0.9860688341667738 0.7500000160000013	-0.100240
C	0.6197510888228720 0.7920435730896435 0.7500000160000013	0.171389
C	0.7873744620758258 0.9528653211762307 0.7500000160000013	0.129702
C	0.7182252148142011 0.8872839400029879 0.7500000160000013	0.137430
C	0.6837108114008469 0.8542066234664236 0.7500000160000013	-0.096692
C	0.8510810131468819 0.0152426609036002 0.7500000160000013	-0.105893
C	0.1540136934326320 0.3254445453809846 0.7500000160000013	-0.105658
C	0.3842627611588404 0.5497776540399585 0.7500000160000013	0.163329
C	0.3217516830470601 0.4860688341667733 0.7500000160000013	-0.100240
C	0.1197510808228713 0.2920435730896428 0.7500000160000013	0.171391
C	0.2873744300758304 0.4528653211762306 0.7500000160000013	0.129702
C	0.2182251988141998 0.3872839730029871 0.7500000160000013	0.137431
C	0.1837107784008475 0.3542065904664241 0.7500000160000013	-0.096692
C	0.3510809811468795 0.5152426559035965 0.7500000160000013	-0.105893
C	0.3459863225673694 0.1745554546190153 0.2500000000000000	-0.105658
C	0.1157372148411646 0.9502223459600415 0.2500000000000000	0.163329
C	0.1782483169529399 0.0139311618332262 0.2500000000000000	-0.100239
C	0.3802489111771279 0.2079564109103554 0.2500000000000000	0.171390
C	0.2126255539241755 0.0471346708237688 0.2500000000000000	0.129701
C	0.2817747851857988 0.1127160189970125 0.2500000000000000	0.137431
C	0.3162892215991525 0.1457933765335765 0.2500000000000000	-0.096692
C	0.1489190188531204 0.9847573110964043 0.2500000000000000	-0.105894
C	0.8459862905673664 0.6745554546190152 0.2500000000000000	-0.105656
C	0.6157371428411583 0.4502223789600407 0.2500000000000000	0.163329
C	0.6782483169529396 0.5139311658332262 0.2500000000000000	-0.100239
C	0.8802489111771280 0.7079564269103565 0.2500000000000000	0.171389
C	0.7126255379241742 0.5471347118237685 0.2500000000000000	0.129701
C	0.7817747851857989 0.6127160599970121 0.2500000000000000	0.137431
C	0.8162891885991531 0.6457933765335764 0.2500000000000000	-0.096692
C	0.6489189868531181 0.4847573110964047 0.2500000000000000	-0.105894
C	0.3459863225673694 0.8254445453809848 0.7500000160000013	-0.105656
C	0.1157372148411646 0.0497776420399574 0.7500000160000013	0.163329
C	0.1782483169529399 0.9860688341667738 0.7500000160000013	-0.100240
C	0.3802489111771279 0.7920435730896435 0.7500000160000013	0.171389
C	0.2126255539241755 0.9528653211762307 0.7500000160000013	0.129702
C	0.2817747851857988 0.8872839400029879 0.7500000160000013	0.137430
C	0.3162892215991525 0.8542066234664236 0.7500000160000013	-0.096692
C	0.1489190188531204 0.0152426609036002 0.7500000160000013	-0.105893
C	0.8459862905673664 0.3254445453809846 0.7500000160000013	-0.105658
C	0.6157371428411583 0.5497776540399585 0.7500000160000013	0.163329
C	0.6782483169529396 0.4860688341667733 0.7500000160000013	-0.100240
C	0.8802489111771280 0.2920435730896428 0.7500000160000013	0.171390
C	0.7126255379241742 0.4528653211762306 0.7500000160000013	0.129702
C	0.7817747851857989 0.3872839730029871 0.7500000160000013	0.137431
C	0.8162891885991531 0.3542065904664241 0.7500000160000013	-0.096692
C	0.6489189868531181 0.5152426559035965 0.7500000160000013	-0.105893
C	0.6540137094326336 0.1745554546190153 0.2500000000000000	-0.105658
C	0.8842628571588417 0.9502223459600415 0.2500000000000000	0.163329
C	0.8217516830470604 0.0139311618332262 0.2500000000000000	-0.100239
C	0.6197510888228720 0.2079564109103554 0.2500000000000000	0.171390
C	0.7873744620758258 0.0471346708237688 0.2500000000000000	0.129701
C	0.7182252148142011 0.1127160189970125 0.2500000000000000	0.137431
C	0.6837108114008469 0.1457933765335765 0.2500000000000000	-0.096692
C	0.8510810131468819 0.9847573110964043 0.2500000000000000	-0.105894
C	0.1540136934326320 0.6745554546190152 0.2500000000000000	-0.105656
C	0.3842627611588404 0.4502223789600408 0.2500000000000000	0.163329
C	0.3217516830470601 0.5139311658332262 0.2500000000000000	-0.100239
C	0.1197510808228713 0.7079564269103565 0.2500000000000000	0.171389
C	0.2873744300758304 0.5471347118237685 0.2500000000000000	0.129702
C	0.2182251988141998 0.6127160599970121 0.2500000000000000	0.137431
C	0.1837107784008475 0.6457933765335764 0.2500000000000000	-0.096692
C	0.3510809811468795 0.4847573110964047 0.2500000000000000	-0.105894
H	0.9465059429082885 0.1166395701023740 0.0014142953347423	0.090884
H	0.8892842647081594 0.0549593691349273 0.0120301007754539	0.122043
H	0.7835667273576550 0.9491043183801421 0.0109853046667333	0.106041
H	0.7222513971366034 0.8910736874722472 0.0107479988813798	0.115196
H	0.5545421448398345 0.7280887909990690 0.0014096223405617	0.089199
H	0.6143753256931540 0.7868755167521347 0.0117567956580822	0.127691
H	0.4465060389082895 0.6166395861023755 0.0014142953347423	0.090884
H	0.3892842007081609 0.5549593981349334 0.0120301007754539	0.122043
H	0.2835667273576549 0.4491043183801418 0.0109853046667333	0.106041
H	0.2222514131366046 0.3910737864722509 0.0107479988813798	0.115196
H	0.0545421528398351 0.2280888399990696 0.0014096223405617	0.089199
H	0.1143753416931484 0.2868754507521366 0.0117567956580822	0.127689
H	0.0534939970917064 0.8833604138976245 0.5014143243347413	0.090884
H	0.1107157832918374 0.9450406018650666 0.5120301357754528	0.122043
H	0.2164333046423478 0.0508956986198631 0.5109853366667363	0.106041
H	0.2777486028633966 0.1089262385277543 0.5107479948813797	0.115196
H	0.4454578551601653 0.2719111430009325 0.5014096223405616	0.089199
H	0.3856246743068457 0.2131245002478632 0.5117568266580813	0.127688
H	0.5534940570917115 0.3833604138976247 0.5014143243347413	0.090884
H	0.6107157352918406 0.4450406348650731 0.5120301357754528	0.122043
H	0.7164332726423450 0.5508956816198579 0.5109853366667362	0.106041
H	0.7777486028633966 0.6089263125277528 0.5107479948813797	0.115196
H	0.9454578551601655 0.7719112090009310 0.5014096223405616	0.089199
H	0.8856246743068460 0.7131244832478653 0.5117568266580813	0.127691
H	0.0534939970917064 0.1166395701023740 0.4985857066652577	0.090884
H	0.1107157832918374 0.0549593691349273 0.4879698642245396	0.122043
H	0.2164333046423478 0.9491043183801421 0.4890146953332667	0.106041
H	0.2777486028633966 0.8910736874722472 0.4892520051186206	0.115196
H	0.4454578551601653 0.7280887909990690 0.4985904096594410	0.089199
H	0.3856246743068457 0.7868755167521347 0.4882432043419179	0.127691
H	0.5534940570917115 0.6166395861023755 0.4985857066652577	0.090884
H	0.6107157352918406 0.5549593981349334 0.4879698642245396	0.122043
H	0.7164332726423450 0.4491043183801418 0.4890146953332667	0.106041
H	0.7777486028633966 0.3910737864722509 0.4892520051186206	0.115196
H	0.9454578551601655 0.2280888399990696 0.4985904096594410	0.089199
H	0.8856246743068460 0.2868754507521366 0.4882432043419179	0.127689
H	0.9465059429082885 0.8833604138976245 0.9985857066652577	0.090884
H	0.8892842647081594 0.9450406018650666 0.9879698332245411	0.122043
H	0.7835667273576550 0.0508956986198631 0.9890146953332665	0.106041
H	0.7222513971366034 0.1089262385277543 0.9892519741186142	0.115196
H	0.5545421448398345 0.2719111430009325 0.9985903776594384	0.089199
H	0.6143753256931540 0.2131245002478632 0.9882432043419177	0.127689
H	0.4465060389082895 0.3833604138976247 0.9985857066652577	0.090884
H	0.3892842007081609 0.4450406348650731 0.9879698332245411	0.122043
H	0.2835667273576549 0.5508956816198579 0.9890146953332665	0.106041
H	0.2222514131366046 0.6089263125277528 0.9892519741186142	0.115196
H	0.0545421528398351 0.7719112090009310 0.9985903776594384	0.089199
H	0.1143753416931484 0.7131244832478653 0.9882432043419177	0.127691
H	0.0534939970917064 0.8833604138976245 0.9985857066652577	0.090884
H	0.1107157832918374 0.9450406018650666 0.9879698332245411	0.122043
H	0.2164333046423478 0.0508956986198631 0.9890146953332664	0.106041
H	0.2777486028633966 0.1089262385277543 0.9892519741186142	0.115196
H	0.4454578551601653 0.2719111430009325 0.9985903776594384	0.089199
H	0.3856246743068457 0.2131245002478632 0.9882432043419177	0.127689
H	0.5534940570917115 0.3833604138976247 0.9985857066652577	0.090884
H	0.6107157352918406 0.4450406348650731 0.9879698332245411	0.122043
H	0.7164332726423450 0.5508956816198579 0.9890146953332664	0.106041
H	0.7777486028633966 0.6089263125277528 0.9892519741186142	0.115196
H	0.9454578551601655 0.7719112090009310 0.9985903776594384	0.089199
H	0.8856246743068460 0.7131244832478653 0.9882432043419177	0.127691
H	0.9465059429082885 0.1166395701023740 0.4985857066652577	0.090884
H	0.8892842647081594 0.0549593691349273 0.4879698642245396	0.122043
H	0.7835667273576550 0.9491043183801421 0.4890146953332667	0.106041
H	0.7222513971366034 0.8910736874722472 0.4892520051186206	0.115196
H	0.5545421448398345 0.7280887909990690 0.4985904096594410	0.089199
H	0.6143753256931540 0.7868755167521347 0.4882432043419179	0.127691
H	0.4465060389082895 0.6166395861023755 0.4985857066652576	0.090884
H	0.3892842007081609 0.5549593981349334 0.4879698642245396	0.122042
H	0.2835667273576549 0.4491043183801418 0.4890146953332667	0.106041
H	0.2222514131366046 0.3910737864722509 0.4892520051186206	0.115196
H	0.0545421528398351 0.2280888399990696 0.4985904096594410	0.089199
H	0.1143753416931484 0.2868754507521366 0.4882432043419179	0.127689
H	0.9465059429082885 0.8833604138976245 0.5014143243347413	0.090884
H	0.8892842647081594 0.9450406018650666 0.5120301357754528	0.122043
H	0.7835667273576550 0.0508956986198631 0.5109853366667362	0.106041
H	0.7222513971366034 0.1089262385277543 0.5107479948813797	0.115196
H	0.5545421448398345 0.2719111430009325 0.5014096223405616	0.089199
H	0.6143753256931540 0.2131245002478632 0.5117568266580813	0.127689
H	0.4465060389082895 0.3833604138976247 0.5014143243347413	0.090884
H	0.3892842007081609 0.4450406348650731 0.5120301357754528	0.122043
H	0.2835667273576549 0.5508956816198579 0.5109853366667362	0.106041
H	0.2222514131366046 0.6089263125277528 0.5107479948813797	0.115196
H	0.0545421528398351 0.7719112090009310 0.5014096223405616	0.089199
H	0.1143753416931484 0.7131244832478653 0.5117568266580813	0.127691
H	0.0534939970917064 0.1166395701023740 0.0014142953347423	0.090884
H	0.1107157832918374 0.0549593691349273 0.0120301007754539	0.122042
H	0.2164333046423478 0.9491043183801421 0.0109853046667333	0.106041
H	0.2777486028633966 0.8910736874722472 0.0107479988813798	0.115196
H	0.4454578551601653 0.7280887909990690 0.0014096223405617	0.089199
H	0.3856246743068457 0.7868755167521347 0.0117567956580822	0.127691
H	0.5534940570917115 0.6166395861023755 0.0014142953347423	0.090884
H	0.6107157352918406 0.5549593981349334 0.0120301007754539	0.122042
H	0.7164332726423450 0.4491043183801418 0.0109853046667333	0.106041
H	0.7777486028633966 0.3910737864722509 0.0107479988813798	0.115196
H	0.9454578551601655 0.2280888399990696 0.0014096223405617	0.089199
H	0.8856246743068460 0.2868754507521366 0.0117567956580822	0.127689
Zn	0.5000000000000000 0.6729406971316521 0.7500000160000013	0.741346
Zn	-0.0000000000000000 0.1729407141316498 0.7500000160000013	0.741346
Zn	0.5000000000000000 0.3270593028683481 0.2500000000000000	0.741346
Zn	-0.0000000000000000 0.8270593028683479 0.2500000000000000	0.741346
Sn	0.5000000000000000 0.6729601912583050 0.2500000000000000	1.868950
Sn	-0.0000000000000000 0.1729601912583049 0.2500000000000000	1.868950
Sn	0.5000000000000000 0.3270398407416977 0.7500000160000013	1.868950
Sn	-0.0000000000000000 0.8270398087416950 0.7500000160000013	1.868950
F	0.5000000000000000 0.7412230342239116 0.2500000000000000	-0.564899
F	0.5000000000000000 0.6047182471085263 0.2500000000000000	-0.560931
F	-0.0000000000000000 0.2412229852239112 0.2500000000000000	-0.564899
F	-0.0000000000000000 0.1047182311085249 0.2500000000000000	-0.560931
F	0.5000000000000000 0.2587770147760889 0.7500000160000013	-0.564898
F	0.5000000000000000 0.3952817198914744 0.7500000160000013	-0.560932
F	-0.0000000000000000 0.7587769657760884 0.7500000160000013	-0.564898
F	-0.0000000000000000 0.8952817528914737 0.7500000160000013	-0.560931
F	0.5663650079962550 0.6730175189513330 0.2500000000000000	-0.564358
F	0.0663650279962570 0.1730175519513323 0.2500000000000000	-0.564358
F	0.4336349600037420 0.3269824150486687 0.7500000160000013	-0.564358
F	0.9336349920037450 0.8269824810486670 0.7500000160000013	-0.564358
F	0.4336349600037420 0.6730175189513330 0.2500000000000000	-0.564358
F	0.9336349920037450 0.1730175519513323 0.2500000000000000	-0.564358
F	0.5663650079962550 0.3269824150486687 0.7500000160000013	-0.564358
F	0.0663650279962570 0.8269824810486670 0.7500000160000013	-0.564358
F	0.5000000000000000 0.6729002430351103 0.4973518842391677	-0.520065
F	-0.0000000000000000 0.1729002600351084 0.4973518842391677	-0.520065
F	0.5000000000000000 0.3270997899648886 -0.0026481157608323	-0.520065
F	-0.0000000000000000 0.8270997569648897 -0.0026481157608323	-0.520065
F	0.5000000000000000 0.6729002430351103 0.0026481117608319	-0.520065
F	-0.0000000000000000 0.1729002600351084 0.0026481117608319	-0.520065
F	0.5000000000000000 0.3270997899648886 0.5026480837608363	-0.520065
F	-0.0000000000000000 0.8270997569648897 0.5026480837608363	-0.520065
N	0.5518423241572972 0.7253914158277865 0.7500000160000013	-0.231106
N	0.9489692725465120 0.1194165586321651 0.7500000160000013	-0.230457
N	0.0518422881572941 0.2253913998277852 0.7500000160000013	-0.231108
N	0.4489692725465111 0.6194165426321637 0.7500000160000013	-0.230457
N	0.4481577398427012 0.2746085841722136 0.2500000000000000	-0.231108
N	0.0510307354534893 0.8805834573678363 0.2500000000000000	-0.230457
N	0.9481576758427028 0.7746085841722135 0.2500000000000000	-0.231106
N	0.5510307274534880 0.3805834573678361 0.2500000000000000	-0.230457
N	0.4481577398427012 0.7253914158277865 0.7500000160000013	-0.231106
N	0.0510307354534893 0.1194165586321651 0.7500000160000013	-0.230457
N	0.9481576758427028 0.2253913998277852 0.7500000160000013	-0.231108
N	0.5510307274534880 0.6194165426321637 0.7500000160000013	-0.230457
N	0.5518423241572972 0.2746085841722136 0.2500000000000000	-0.231108
N	0.9489692725465120 0.8805834573678363 0.2500000000000000	-0.230457
N	0.0518422881572941 0.7746085841722135 0.2500000000000000	-0.231106
N	0.4489692725465111 0.3805834573678361 0.2500000000000000	-0.230457
	  	
