#======================================================================

# CRYSTAL DATA

#----------------------------------------------------------------------

data_VESTA_phase_1


_pd_phase_name                         SnFSIX_14_Zn_i
_cell_length_a                         13.38838
_cell_length_b                         13.36337
_cell_length_c                         8.21920
_cell_angle_alpha                      87.28593
_cell_angle_beta                       86.99419
_cell_angle_gamma                      87.64024
_symmetry_space_group_name_H-M         P 1
_symmetry_Int_Tables_number            1

loop_
_symmetry_equiv_pos_as_xyz
   x, y, z

loop_
   _atom_site_label
   _atom_site_fract_x
   _atom_site_fract_y
   _atom_site_fract_z
   _atom_site_charge
C	0.5695000648496115 0.2687990475732997 0.3618472765257041	-0.175742
C	0.4655722362202639 0.2714794705740615 0.3667656787767758	0.109667
C	0.9341914162081812 0.2878266147949833 0.4122413421841414	-0.166001
C	0.0380100113892503 0.2820791704877531 0.3969660458974770	0.112757
C	0.2669033875555943 0.5684877175057983 0.3629971962726485	-0.176288
C	0.2696296516495566 0.4644095207841238 0.3680437426319359	0.112746
C	0.2953453930639359 0.9332903404592504 0.4070746755912120	-0.164348
C	0.2891141704681571 0.0372799619808838 0.3930414616920299	0.112410
C	0.9316721236692501 0.2336308302760247 0.1362374588716129	-0.175889
C	0.0355962627492283 0.2310743009505208 0.1307074576220545	0.112057
C	0.5674713444411519 0.2066425126957618 0.0908749661234773	-0.164086
C	0.4636222453033945 0.2128894100536392 0.1052194780515575	0.111336
C	0.2085872086536417 0.5654424827008653 0.0901058790513266	-0.167006
C	0.2148803712285044 0.4614907850204911 0.1045292447503726	0.112308
C	0.2302142449623679 0.9306328519576377 0.1388012223632246	-0.173992
C	0.2279030899666253 0.0347126466742461 0.1338195413003139	0.110637
C	0.4304788792636592 0.7370430522087611 0.6365892287262576	-0.176675
C	0.5343764488070697 0.7338971242553330 0.6319754514894248	0.113100
C	0.0661836724741173 0.7233938631900039 0.5804684562668393	-0.165991
C	0.9623302039767949 0.7284645326212178 0.5961534214903699	0.114689
C	0.7381443088650825 0.4311787634953713 0.6364788952405451	-0.176363
C	0.7358309825051055 0.5352535478639233 0.6315970484010937	0.113247
C	0.7110253276325098 0.0669449612682465 0.5857936525859847	-0.163123
C	0.7161301430109784 0.9628739494694054 0.6003246151307067	0.114080
C	0.0687539351737801 0.7600564586601644 0.8652150177804686	-0.179037
C	0.9648377446618920 0.7624757854546189 0.8705840239618572	0.114117
C	0.4325634848321798 0.7832369003066574 0.9170119576138029	-0.163907
C	0.5364444373288911 0.7775938904741376 0.9020702378983103	0.114267
C	0.7831692772018211 0.4340171615136619 0.9171136158561741	-0.165313
C	0.7782260512162901 0.5380538271703644 0.9020871582992527	0.113722
C	0.7651482245889658 0.0693125913222331 0.8614094938796343	-0.176115
C	0.7675520704678049 0.9652643063782254 0.8659209559416607	0.111636
C	0.6217476215451792 0.2361388636262706 0.2202250783374187	0.189220
C	0.8797358519683727 0.2621008854303193 0.2806596296982857	0.190506
C	0.2362753617443322 0.6202011199115075 0.2203530060625155	0.191075
C	0.2642704477173043 0.8786703575887373 0.2790369487956065	0.188095
C	0.3783448844913355 0.7617094104721662 0.7828854427278539	0.191056
C	0.1206307847537146 0.7405288237386169 0.7164523379295028	0.193586
C	0.7616712498624820 0.3793612388838664 0.7830135112679790	0.191636
C	0.7368694212868371 0.1213771727045953 0.7175909333496562	0.190526
H	0.6091157629043245 0.2883979552386242 0.4674886108799817	0.111962
H	0.4226749619329100 0.2948601467649670 0.4759926270239455	0.095791
H	0.8960555365060952 0.3115776111239520 0.5248133055964099	0.124893
H	0.0827362443500387 0.3010427857690460 0.4972860560515338	0.096250
H	0.2850698354442756 0.6087655078393659 0.4689608641546112	0.113064
H	0.2915682456635233 0.4216596075254375 0.4777147074948894	0.094247
H	0.3236076089125515 0.8951151125238329 0.5160417679971511	0.124973
H	0.3116971768283051 0.0819493923724400 0.4913431685731480	0.096814
H	0.8917290822989525 0.2169476747045908 0.0293325614397706	0.111420
H	0.0783414154874731 0.2106397876036689 0.0196374404029289	0.094230
H	0.6058861064855965 0.1794634003159220 0.9807906213472469	0.124760
H	0.4191089406817869 0.1912153647908673 0.0063879716380895	0.096489
H	0.1830676249348058 0.6034005009326898 0.9790269181670477	0.125799
H	0.1947456275750167 0.4166766657921378 0.0047221532357840	0.097273
H	0.2093360017877987 0.8905780441217016 0.0342610039265098	0.112348
H	0.2036841046401704 0.0775979168381371 0.0256972082129510	0.095446
H	0.3909331848800237 0.7233751289269486 0.5277629165346510	0.108292
H	0.5774446583189712 0.7156183374607251 0.5202477885845685	0.093330
H	0.1041685361401376 0.7069343585173380 0.4640832177239994	0.124726
H	0.9177613172567238 0.7160253434023122 0.4925124266058996	0.094277
H	0.7247657595771255 0.3910703031462240 0.5278149700872993	0.108762
H	0.7185959452832199 0.5781137012897912 0.5196389343463377	0.094947
H	0.6874972148140333 0.1052601669514719 0.4737328820861427	0.124860
H	0.6968133228753380 0.9182961921319021 0.4997694750686479	0.094186
H	0.1085947637974276 0.7703906945624025 0.9750791873897676	0.108010
H	0.9219610892585809 0.7765736749572399 0.9842256918980481	0.093504
H	0.3942997208625776 0.8039585172799647 0.0311379608902842	0.124689
H	0.5808419642102232 0.7935792833665458 0.0042648201701643	0.094328
H	0.8029561882609653 0.3959671055095927 0.0314605279663907	0.125247
H	0.7940412767186620 0.5828078008606346 0.0043305108267839	0.094888
H	0.7818685219296654 0.1091311575398788 0.9686920987362533	0.109413
H	0.7884284002541990 0.9222165442881121 0.9758878592884181	0.095522
N	0.7741412085852953 0.2721025613954856 0.3011712312023807	-0.104719
N	0.2752715617834511 0.7729142752070695 0.2976735392706621	-0.106049
N	0.7273824195985715 0.2257778730698681 0.2001408246684133	-0.105579
N	0.2254592429142492 0.7259291225580206 0.2014909972826731	-0.106524
N	0.2261796683616459 0.7327904291845757 0.6940088043667305	-0.102645
N	0.7284182527182033 0.2271799266262605 0.6969581932141165	-0.103895
N	0.2727632804559732 0.7699603377996751 0.8050172639490053	-0.101360
N	0.7697731861560871 0.2736392574300222 0.8040058815535005	-0.102816
N	0.4132945844714131 0.2447133732833839 0.2406285235261131	-0.223006
N	0.0880886451157892 0.2541729301182557 0.2588386276960998	-0.225687
N	0.2448516454760379 0.4116404227602251 0.2409951925557846	-0.224392
N	0.2561049631783875 0.0873177714098470 0.2588195157023604	-0.223307
N	0.5867529204000766 0.7532835794949047 0.7623180742378488	-0.223851
N	0.9122197746280922 0.7475760798918626 0.7384976077304096	-0.223976
N	0.7548910368650227 0.5880156826916323 0.7620280070255726	-0.224400
N	0.7439837343924717 0.9127257413367563 0.7377054677843364	-0.223097
F	0.3556086366943043 0.1378351506662358 0.7486592109251595	-0.562774
F	0.1482344512707582 0.3600833469881372 0.7516731027732758	-0.563040
F	0.3578887969098317 0.3484485047533498 0.7108530012998417	-0.558185
F	0.1446508398094765 0.1499837638600827 0.7880597519426371	-0.558373
F	0.6398746406049660 0.8575219268884720 0.2531648337881435	-0.561301
F	0.8569685339873897 0.6454421601797651 0.2461509251154977	-0.562250
F	0.6468715308379945 0.6470415073882059 0.2794692432657026	-0.560554
F	0.8505415419424895 0.8556224767693207 0.2212717565546016	-0.560760
F	0.2452577538286508 0.2436441768448844 0.5031984813507112	-0.525233
F	0.2577230521170009 0.2538655360081026 -0.0033143368295463	-0.524913
F	0.7519508278054575 0.7522947274149425 0.4973849272331121	-0.523353
F	0.7460747634025192 0.7497704633635842 0.0027668873232292	-0.523206
Sn	0.2517628514400180 0.2487732168549759 0.7498937787797495	1.867068
Sn	0.7484544824493969 0.7515478729532228 0.2501050549373378	1.869315
Zn	0.2505685835514969 0.2495893045931654 0.2497860804890773	0.734530
Zn	0.7496427366207709 0.7502747082694901 0.7501581285027465	0.734991
	  	
