#======================================================================

# CRYSTAL DATA

#----------------------------------------------------------------------

data_VESTA_phase_1


_pd_phase_name                         SnFSIX_15_Ni_i
_cell_length_a                         29.73285
_cell_length_b                         28.86808
_cell_length_c                         8.38156
_cell_angle_alpha                      90
_cell_angle_beta                       90
_cell_angle_gamma                      90
_symmetry_space_group_name_H-M         P 1
_symmetry_Int_Tables_number            1

loop_
_symmetry_equiv_pos_as_xyz
   x, y, z

loop_
   _atom_site_label
   _atom_site_fract_x
   _atom_site_fract_y
   _atom_site_fract_z
   _atom_site_charge
C	0.9341659912581265 0.1035831109592967 0.8884221496360395	0.108087
C	0.9020722744768376 0.0687260410442191 0.8938392285216848	-0.161953
C	0.7700158131733454 0.9363032841425295 0.8956886509807298	-0.114100
C	0.7357214758097672 0.9038502933014463 0.8954796743029962	-0.115121
C	0.5674801136135592 0.7404874331324890 0.8883004195711668	0.105829
C	0.6010115145379082 0.7738254350533028 0.8935279314197465	-0.165631
C	0.4341660232581216 0.6035831269592978 0.8884221496360395	0.108087
C	0.4020723064768401 0.5687260040442197 0.8938392285216848	-0.161953
C	0.2700157491733471 0.4363033171425288 0.8956886509807298	-0.114100
C	0.2357214438097648 0.4038503593014519 0.8954796743029962	-0.115121
C	0.0674801376135613 0.2404874161324912 0.8883004195711668	0.105879
C	0.1010114905379067 0.2738254680533019 0.8935279314197465	-0.165577
C	0.0658339767418782 0.8964168730407022 0.3884221806360380	0.108088
C	0.0979277015231605 0.9312739959557803 0.3938392605216803	-0.161954
C	0.2299842028266560 0.0636966788574707 0.3956887129807279	-0.114100
C	0.2642785401902339 0.0961496566985497 0.3954796743029960	-0.115121
C	0.4325198543864379 0.2595126168675081 0.3883004505711659	0.105814
C	0.3989884854620914 0.2261745319466979 0.3935279314197468	-0.165629
C	0.5658340087418735 0.3964169060407012 0.3884221806360380	0.108088
C	0.5979277255231624 0.4312739959557803 0.3938392605216803	-0.161954
C	0.7299841868266546 0.5636967158574705 0.3956887129807279	-0.114099
C	0.7642785241902328 0.5961497066985537 0.3954796743029960	-0.115121
C	0.9325198863864408 0.7595125668675110 0.3883004505711659	0.105814
C	0.8989884854620918 0.7261745649466972 0.3935279314197468	-0.165629
C	0.0658339767418782 0.1035831109592967 0.6115778193639615	0.108087
C	0.0979277015231605 0.0687260410442191 0.6061606774783145	-0.161953
C	0.2299842028266560 0.9363032841425295 0.6043113180192712	-0.114100
C	0.2642785401902339 0.9038502933014463 0.6045203566970028	-0.115121
C	0.4325198543864379 0.7404874331324890 0.6116994864288325	0.105812
C	0.3989884854620914 0.7738254350533028 0.6064720375802545	-0.165621
C	0.5658340087418735 0.6035831269592978 0.6115778193639615	0.108088
C	0.5979277255231624 0.5687260040442197 0.6061606774783145	-0.161953
C	0.7299841868266546 0.4363033171425288 0.6043113180192712	-0.114100
C	0.7642785241902328 0.4038503593014519 0.6045203566970028	-0.115121
C	0.9325198863864408 0.2404874161324912 0.6116994864288325	0.105812
C	0.8989884854620918 0.2738254680533019 0.6064720375802545	-0.165621
C	0.9341659912581265 0.8964168730407022 0.1115778353639632	0.108088
C	0.9020722744768376 0.9312739959557803 0.1061607164783143	-0.161954
C	0.7700158131733454 0.0636966788574707 0.1043113180192711	-0.114100
C	0.7357214758097672 0.0961496566985497 0.1045203416969981	-0.115121
C	0.5674801136135592 0.2595126168675081 0.1116995414288335	0.105814
C	0.6010115145379082 0.2261745319466979 0.1064720835802511	-0.165628
C	0.4341660232581216 0.3964169060407012 0.1115778353639632	0.108088
C	0.4020723064768401 0.4312739959557803 0.1061607164783143	-0.161954
C	0.2700157491733471 0.5636967158574705 0.1043113180192711	-0.114099
C	0.2357214438097648 0.5961497066985537 0.1045203416969981	-0.115122
C	0.0674801376135613 0.7595125668675110 0.1116995414288335	0.105864
C	0.1010114905379067 0.7261745649466972 0.1064720835802511	-0.165574
C	0.0658339767418782 0.8964168730407022 0.1115778353639632	0.108087
C	0.0979277015231605 0.9312739959557803 0.1061607164783143	-0.161954
C	0.2299842028266560 0.0636966788574707 0.1043113180192711	-0.114099
C	0.2642785401902339 0.0961496566985497 0.1045203416969981	-0.115122
C	0.4325198543864379 0.2595126168675081 0.1116995414288335	0.105814
C	0.3989884854620914 0.2261745319466979 0.1064720835802510	-0.165629
C	0.5658340087418735 0.3964169060407012 0.1115778353639632	0.108087
C	0.5979277255231624 0.4312739959557803 0.1061607164783143	-0.161954
C	0.7299841868266546 0.5636967158574705 0.1043113180192711	-0.114099
C	0.7642785241902328 0.5961497066985537 0.1045203416969981	-0.115122
C	0.9325198863864408 0.7595125668675110 0.1116995414288335	0.105814
C	0.8989884854620918 0.7261745649466972 0.1064720835802510	-0.165629
C	0.9341659912581265 0.1035831109592968 0.6115778193639615	0.108087
C	0.9020722744768376 0.0687260410442191 0.6061606774783145	-0.161953
C	0.7700158131733454 0.9363032841425295 0.6043113180192712	-0.114100
C	0.7357214758097672 0.9038502933014463 0.6045203566970028	-0.115121
C	0.5674801136135592 0.7404874331324890 0.6116994864288325	0.105811
C	0.6010115145379082 0.7738254350533028 0.6064720375802545	-0.165621
C	0.4341660232581216 0.6035831269592978 0.6115778193639615	0.108087
C	0.4020723064768401 0.5687260040442197 0.6061606774783145	-0.161953
C	0.2700157491733471 0.4363033171425288 0.6043113180192712	-0.114100
C	0.2357214438097647 0.4038503593014519 0.6045203566970028	-0.115121
C	0.0674801376135613 0.2404874161324912 0.6116994864288325	0.105861
C	0.1010114905379067 0.2738254680533019 0.6064720375802545	-0.165567
C	0.9341659912581265 0.8964168730407022 0.3884221806360380	0.108087
C	0.9020722744768376 0.9312739959557803 0.3938392605216803	-0.161954
C	0.7700158131733454 0.0636966788574707 0.3956887129807279	-0.114099
C	0.7357214758097672 0.0961496566985497 0.3954796743029960	-0.115122
C	0.5674801136135592 0.2595126168675081 0.3883004505711659	0.105813
C	0.6010115145379082 0.2261745319466979 0.3935279314197468	-0.165629
C	0.4341660232581216 0.3964169060407012 0.3884221806360380	0.108087
C	0.4020723064768401 0.4312739959557803 0.3938392605216803	-0.161954
C	0.2700157491733471 0.5636967158574705 0.3956887129807279	-0.114099
C	0.2357214438097648 0.5961497066985537 0.3954796743029960	-0.115122
C	0.0674801376135613 0.7595125668675110 0.3883004505711659	0.105864
C	0.1010114905379067 0.7261745649466972 0.3935279314197468	-0.165575
C	0.0658339767418782 0.1035831109592967 0.8884221496360395	0.108087
C	0.0979277015231605 0.0687260410442191 0.8938392285216848	-0.161953
C	0.2299842028266560 0.9363032841425295 0.8956886509807298	-0.114100
C	0.2642785401902339 0.9038502933014463 0.8954796743029962	-0.115121
C	0.4325198543864379 0.7404874331324890 0.8883004195711668	0.105829
C	0.3989884854620914 0.7738254350533028 0.8935279314197465	-0.165632
C	0.5658340087418735 0.6035831269592978 0.8884221496360395	0.108087
C	0.5979277255231624 0.5687260040442197 0.8938392285216848	-0.161953
C	0.7299841868266546 0.4363033171425288 0.8956886509807298	-0.114100
C	0.7642785241902328 0.4038503593014519 0.8954796743029962	-0.115121
C	0.9325198863864408 0.2404874161324912 0.8883004195711668	0.105829
C	0.8989884854620918 0.2738254680533019 0.8935279314197465	-0.165631
C	0.6532244725161884 0.8249302966384229 0.7500000160000013	-0.103050
C	0.8851620401584112 0.0506298394693686 0.7500000160000013	0.167152
C	0.8222520510335053 0.9864599591628325 0.7500000160000013	-0.096337
C	0.6187689930131179 0.7912897975021717 0.7500000160000013	0.171961
C	0.7876305502366980 0.9530421901256388 0.7500000160000013	0.127677
C	0.7179924646411036 0.8870661235602142 0.7500000160000013	0.139078
C	0.6831931300640363 0.8538133665760179 0.7500000160000013	-0.099573
C	0.8517975745708248 0.0158307872957081 0.7500000160000013	-0.109023
C	0.1532244565161874 0.3249302966384228 0.7500000160000013	-0.103020
C	0.3851619441584105 0.5506298514693695 0.7500000160000013	0.167152
C	0.3222520510335052 0.4864599591628324 0.7500000160000013	-0.096337
C	0.1187689850131175 0.2912897975021715 0.7500000160000013	0.171815
C	0.2876305182367023 0.4530421901256391 0.7500000160000013	0.127677
C	0.2179924486411020 0.3870661565602131 0.7500000160000013	0.139079
C	0.1831930970640373 0.3538133335760186 0.7500000160000013	-0.099579
C	0.3517975425708224 0.5158307822957044 0.7500000160000013	-0.109023
C	0.3467755594838141 0.1750697033615772 0.2500000000000000	-0.103051
C	0.1148380318415945 0.9493701485306305 0.2500000000000000	0.167152
C	0.1777479489664948 0.0135400368371674 0.2500000000000000	-0.096337
C	0.3812310069868820 0.2087101864978271 0.2500000000000000	0.171962
C	0.2123694657633035 0.0469578018743604 0.2500000000000000	0.127677
C	0.2820075353588966 0.1129338354397860 0.2500000000000000	0.139078
C	0.3168069029359628 0.1461866334239819 0.2500000000000000	-0.099573
C	0.1482024574291775 0.9841691847042964 0.2500000000000000	-0.109023
C	0.8467755274838116 0.6750697033615771 0.2500000000000000	-0.103050
C	0.6148379598415888 0.4493701815306296 0.2500000000000000	0.167153
C	0.6777479489664947 0.5135400408371675 0.2500000000000000	-0.096336
C	0.8812310069868821 0.7087102024978283 0.2500000000000000	0.171962
C	0.7123694497633020 0.5469578428743603 0.2500000000000000	0.127677
C	0.7820075353588964 0.6129338764397858 0.2500000000000000	0.139078
C	0.8168068699359637 0.6461866334239821 0.2500000000000000	-0.099573
C	0.6482024254291752 0.4841691847042968 0.2500000000000000	-0.109023
C	0.3467755594838141 0.8249302966384229 0.7500000160000013	-0.103050
C	0.1148380318415945 0.0506298394693686 0.7500000160000013	0.167152
C	0.1777479489664948 0.9864599591628325 0.7500000160000013	-0.096337
C	0.3812310069868820 0.7912897975021717 0.7500000160000013	0.171961
C	0.2123694657633035 0.9530421901256388 0.7500000160000013	0.127677
C	0.2820075353588966 0.8870661235602142 0.7500000160000013	0.139078
C	0.3168069029359628 0.8538133665760179 0.7500000160000013	-0.099573
C	0.1482024574291775 0.0158307872957081 0.7500000160000013	-0.109023
C	0.8467755274838116 0.3249302966384228 0.7500000160000013	-0.103050
C	0.6148379598415888 0.5506298514693695 0.7500000160000013	0.167152
C	0.6777479489664947 0.4864599591628324 0.7500000160000013	-0.096337
C	0.8812310069868821 0.2912897975021715 0.7500000160000013	0.171960
C	0.7123694497633020 0.4530421901256391 0.7500000160000013	0.127677
C	0.7820075353588964 0.3870661565602131 0.7500000160000013	0.139078
C	0.8168068699359637 0.3538133335760186 0.7500000160000013	-0.099573
C	0.6482024254291752 0.5158307822957044 0.7500000160000013	-0.109023
C	0.6532244725161884 0.1750697033615772 0.2500000000000000	-0.103050
C	0.8851620401584112 0.9493701485306305 0.2500000000000000	0.167152
C	0.8222520510335053 0.0135400368371674 0.2500000000000000	-0.096337
C	0.6187689930131179 0.2087101864978271 0.2500000000000000	0.171962
C	0.7876305502366980 0.0469578018743604 0.2500000000000000	0.127677
C	0.7179924646411036 0.1129338354397860 0.2500000000000000	0.139078
C	0.6831931300640363 0.1461866334239819 0.2500000000000000	-0.099573
C	0.8517975745708248 0.9841691847042964 0.2500000000000000	-0.109023
C	0.1532244565161874 0.6750697033615771 0.2500000000000000	-0.103020
C	0.3851619441584105 0.4493701815306296 0.2500000000000000	0.167153
C	0.3222520510335052 0.5135400408371675 0.2500000000000000	-0.096336
C	0.1187689850131175 0.7087102024978283 0.2500000000000000	0.171816
C	0.2876305182367023 0.5469578428743603 0.2500000000000000	0.127677
C	0.2179924486411020 0.6129338764397858 0.2500000000000000	0.139079
C	0.1831930970640373 0.6461866334239821 0.2500000000000000	-0.099579
C	0.3517975425708224 0.4841691847042968 0.2500000000000000	-0.109024
H	0.9476279711970337 0.1182040389658879 -0.0020365816394314	0.091743
H	0.8900994797551514 0.0557629274568812 0.0082178295697857	0.123087
H	0.7838769984456634 0.9492511026912224 0.0077045175081734	0.106331
H	0.7220077285983718 0.8907910450196428 0.0074070902471412	0.115392
H	0.5534644097451461 0.7264827986253832 -0.0020364030849232	0.091050
H	0.6134765034117925 0.7861927722184322 0.0079511858406792	0.128059
H	0.4476280671970347 0.6182040549658893 -0.0020365816394314	0.091743
H	0.3900994157551527 0.5557629564568869 0.0082178295697857	0.123087
H	0.2838769984456637 0.4492511026912218 0.0077045175081734	0.106331
H	0.2220077445983731 0.3907911440196475 0.0074070902471412	0.115392
H	0.0534644177451467 0.2264828476253838 -0.0020364030849232	0.091043
H	0.1134765194117871 0.2861927062184340 0.0079511858406792	0.128030
H	0.0523719688029612 0.8817959450341107 0.4979634473605675	0.091744
H	0.1099005682448460 0.9442370435431131 0.5082178645697848	0.123087
H	0.2161230335543389 0.0507489143087830 0.5077045495081762	0.106331
H	0.2779922714016280 0.1092088809803582 0.5074070862471408	0.115392
H	0.4465355902548539 0.2735171353746184 0.4979635969150767	0.091054
H	0.3865234965882073 0.2138072447815654 0.5079512168406778	0.128058
H	0.5523720288029663 0.3817959450341106 0.4979634473605675	0.091741
H	0.6099005202448486 0.4442370765431191 0.5082178645697848	0.123087
H	0.7161230015543366 0.5507488973087776 0.5077045495081762	0.106331
H	0.7779922714016282 0.6092089549803572 0.5074070862471408	0.115392
H	0.9465355902548539 0.7735172013746168 0.4979635969150767	0.091051
H	0.8865234965882075 0.7138072277815678 0.5079512168406778	0.128058
H	0.0523719688029612 0.1182040389658879 0.5020365836394316	0.091744
H	0.1099005682448460 0.0557629274568812 0.4917821354302079	0.123087
H	0.2161230335543389 0.9492511026912224 0.4922954824918265	0.106331
H	0.2779922714016280 0.8907910450196428 0.4925929137528594	0.115392
H	0.4465355902548539 0.7264827986253832 0.5020364350849259	0.091078
H	0.3865234965882073 0.7861927722184322 0.4920488141593206	0.128058
H	0.5523720288029663 0.6182040549658893 0.5020365836394316	0.091744
H	0.6099005202448486 0.5557629564568869 0.4917821354302079	0.123087
H	0.7161230015543366 0.4492511026912218 0.4922954824918265	0.106331
H	0.7779922714016282 0.3907911440196475 0.4925929137528594	0.115392
H	0.9465355902548539 0.2264828476253838 0.5020364350849259	0.091078
H	0.8865234965882075 0.2861927062184340 0.4920488141593206	0.128058
H	0.9476279711970337 0.8817959450341107 0.0020365836394315	0.091744
H	0.8900994797551514 0.9442370435431131 0.9917821044302091	0.123088
H	0.7838769984456634 0.0507489143087830 0.9922954824918264	0.106331
H	0.7220077285983718 0.1092088809803582 0.9925928827528531	0.115392
H	0.5534644097451461 0.2735171353746184 0.0020364030849232	0.091054
H	0.6134765034117925 0.2138072447815654 0.9920488141593212	0.128058
H	0.4476280671970347 0.3817959450341106 0.0020365836394315	0.091741
H	0.3900994157551527 0.4442370765431191 0.9917821044302091	0.123088
H	0.2838769984456637 0.5507488973087776 0.9922954824918264	0.106331
H	0.2220077445983731 0.6092089549803572 0.9925928827528531	0.115392
H	0.0534644177451467 0.7735172013746168 0.0020364030849232	0.091044
H	0.1134765194117871 0.7138072277815678 0.9920488141593212	0.128030
H	0.0523719688029612 0.8817959450341107 0.0020365836394315	0.091744
H	0.1099005682448460 0.9442370435431131 0.9917821044302091	0.123087
H	0.2161230335543389 0.0507489143087830 0.9922954824918264	0.106331
H	0.2779922714016280 0.1092088809803582 0.9925928827528531	0.115394
H	0.4465355902548539 0.2735171353746184 0.0020364030849232	0.091054
H	0.3865234965882073 0.2138072447815654 0.9920488141593212	0.128059
H	0.5523720288029663 0.3817959450341106 0.0020365836394315	0.091741
H	0.6099005202448486 0.4442370765431191 0.9917821044302091	0.123087
H	0.7161230015543366 0.5507488973087776 0.9922954824918264	0.106331
H	0.7779922714016282 0.6092089549803572 0.9925928827528531	0.115394
H	0.9465355902548539 0.7735172013746168 0.0020364030849232	0.091051
H	0.8865234965882075 0.7138072277815678 0.9920488141593212	0.128059
H	0.9476279711970337 0.1182040389658879 0.5020365836394316	0.091744
H	0.8900994797551514 0.0557629274568812 0.4917821354302079	0.123087
H	0.7838769984456634 0.9492511026912224 0.4922954824918265	0.106331
H	0.7220077285983718 0.8907910450196428 0.4925929137528594	0.115394
H	0.5534644097451461 0.7264827986253832 0.5020364350849259	0.091078
H	0.6134765034117925 0.7861927722184322 0.4920488141593206	0.128059
H	0.4476280671970347 0.6182040549658893 0.5020365836394316	0.091744
H	0.3900994157551527 0.5557629564568869 0.4917821354302079	0.123087
H	0.2838769984456637 0.4492511026912218 0.4922954824918265	0.106331
H	0.2220077445983731 0.3907911440196475 0.4925929137528594	0.115394
H	0.0534644177451467 0.2264828476253838 0.5020364350849259	0.091072
H	0.1134765194117871 0.2861927062184340 0.4920488141593206	0.128030
H	0.9476279711970337 0.8817959450341107 0.4979634473605675	0.091744
H	0.8900994797551514 0.9442370435431131 0.5082178645697848	0.123087
H	0.7838769984456634 0.0507489143087830 0.5077045495081762	0.106331
H	0.7220077285983718 0.1092088809803582 0.5074070862471408	0.115393
H	0.5534644097451461 0.2735171353746184 0.4979635969150767	0.091054
H	0.6134765034117925 0.2138072447815654 0.5079512168406778	0.128059
H	0.4476280671970347 0.3817959450341106 0.4979634473605675	0.091741
H	0.3900994157551527 0.4442370765431191 0.5082178645697848	0.123087
H	0.2838769984456637 0.5507488973087776 0.5077045495081762	0.106331
H	0.2220077445983731 0.6092089549803572 0.5074070862471408	0.115393
H	0.0534644177451467 0.7735172013746168 0.4979635969150767	0.091044
H	0.1134765194117871 0.7138072277815678 0.5079512168406778	0.128030
H	0.0523719688029612 0.1182040389658879 -0.0020365816394314	0.091743
H	0.1099005682448460 0.0557629274568812 0.0082178295697857	0.123087
H	0.2161230335543389 0.9492511026912224 0.0077045175081734	0.106331
H	0.2779922714016280 0.8907910450196428 0.0074070902471412	0.115393
H	0.4465355902548539 0.7264827986253832 -0.0020364030849232	0.091050
H	0.3865234965882073 0.7861927722184322 0.0079511858406792	0.128059
H	0.5523720288029663 0.6182040549658893 -0.0020365816394314	0.091743
H	0.6099005202448486 0.5557629564568869 0.0082178295697857	0.123087
H	0.7161230015543366 0.4492511026912218 0.0077045175081734	0.106331
H	0.7779922714016282 0.3907911440196475 0.0074070902471412	0.115393
H	0.9465355902548539 0.2264828476253838 -0.0020364030849232	0.091050
H	0.8865234965882075 0.2861927062184340 0.0079511858406792	0.128059
Ni	0.5000000000000000 0.6728280195323987 0.7500000160000013	0.764200
Ni	-0.0000000000000000 0.1728280365323967 0.7500000160000013	0.764202
Ni	0.5000000000000000 0.3271719804676009 0.2500000000000000	0.764186
Ni	-0.0000000000000000 0.8271719804676013 0.2500000000000000	0.764189
Sn	0.5000000000000000 0.6730477782525662 0.2500000000000000	1.874484
Sn	-0.0000000000000000 0.1730477782525667 0.2500000000000000	1.874484
Sn	0.5000000000000000 0.3269522537474358 0.7500000160000013	1.874489
Sn	-0.0000000000000000 0.8269522217474338 0.7500000160000013	1.874484
F	0.5000000000000000 0.7419497373145745 0.2500000000000000	-0.565612
F	0.5000000000000000 0.6040742569410222 0.2500000000000000	-0.562193
F	-0.0000000000000000 0.2419496883145744 0.2500000000000000	-0.565611
F	-0.0000000000000000 0.1040742409410206 0.2500000000000000	-0.562193
F	0.5000000000000000 0.2580503116854259 0.7500000160000013	-0.565608
F	0.5000000000000000 0.3959257100589791 0.7500000160000013	-0.562199
F	-0.0000000000000000 0.7580502626854255 0.7500000160000013	-0.565611
F	-0.0000000000000000 0.8959257430589778 0.7500000160000013	-0.562193
F	0.5669092156736580 0.6729844385130180 0.2500000000000000	-0.564798
F	0.0669092356736599 0.1729844715130177 0.2500000000000000	-0.564798
F	0.4330907523263389 0.3270154954869834 0.7500000160000013	-0.564800
F	0.9330907843263420 0.8270155614869820 0.7500000160000013	-0.564797
F	0.4330907523263389 0.6729844385130180 0.2500000000000000	-0.564798
F	0.9330907843263420 0.1729844715130177 0.2500000000000000	-0.564798
F	0.5669092156736580 0.3270154954869834 0.7500000160000013	-0.564800
F	0.0669092356736599 0.8270155614869820 0.7500000160000013	-0.564797
F	0.5000000000000000 0.6730901763468933 0.4929311667407347	-0.528753
F	-0.0000000000000000 0.1730901933468913 0.4929311667407347	-0.528753
F	0.5000000000000000 0.3269098566531058 -0.0070688332592653	-0.528751
F	-0.0000000000000000 0.8269098236531067 -0.0070688332592653	-0.528753
F	0.5000000000000000 0.6730901763468933 0.0070688292592649	-0.528753
F	-0.0000000000000000 0.1730901933468913 0.0070688292592649	-0.528753
F	0.5000000000000000 0.3269098566531058 0.5070688012592697	-0.528751
F	-0.0000000000000000 0.8269098236531067 0.5070688012592696	-0.528752
N	0.5507552100869715 0.7237622970386163 0.7500000160000013	-0.243895
N	0.9500838750946887 0.1210143036581620 0.7500000160000013	-0.241448
N	0.0507551740869685 0.2237622810386151 0.7500000160000013	-0.243915
N	0.4500838750946886 0.6210142876581606 0.7500000160000013	-0.241448
N	0.4492448539130268 0.2762377029613835 0.2500000000000000	-0.243848
N	0.0499161329053119 0.8789857123418394 0.2500000000000000	-0.241447
N	0.9492447899130285 0.7762377029613837 0.2500000000000000	-0.243848
N	0.5499161249053113 0.3789857123418391 0.2500000000000000	-0.241446
N	0.4492448539130269 0.7237622970386163 0.7500000160000013	-0.243895
N	0.0499161329053119 0.1210143036581620 0.7500000160000013	-0.241448
N	0.9492447899130285 0.2237622810386152 0.7500000160000013	-0.243895
N	0.5499161249053113 0.6210142876581606 0.7500000160000013	-0.241448
N	0.5507552100869715 0.2762377029613835 0.2500000000000000	-0.243848
N	0.9500838750946887 0.8789857123418394 0.2500000000000000	-0.241447
N	0.0507551740869685 0.7762377029613837 0.2500000000000000	-0.243867
N	0.4500838750946886 0.3789857123418391 0.2500000000000000	-0.241446
	  	
