#======================================================================

# CRYSTAL DATA

#----------------------------------------------------------------------

data_VESTA_phase_1


_pd_phase_name                         SnFSIX_16_Co_i
_cell_length_a                         24.82735
_cell_length_b                         24.82735
_cell_length_c                         8.21495
_cell_angle_alpha                      90
_cell_angle_beta                       90
_cell_angle_gamma                      90
_symmetry_space_group_name_H-M         P 1
_symmetry_Int_Tables_number            1

loop_
_symmetry_equiv_pos_as_xyz
   x, y, z

loop_
   _atom_site_label
   _atom_site_fract_x
   _atom_site_fract_y
   _atom_site_fract_z
   _atom_site_charge
C	0.4786602513843791 0.3919891890104149 0.3739679343319264	0.091264
C	0.4779910461057415 0.3361551226408105 0.3695599240735400	-0.162666
C	0.9548830634134802 0.6144947281053625 0.9430371092423335	-0.125086
C	0.9550077687167611 0.5585629316702565 0.9438040346256691	-0.126718
C	0.5213397866156172 0.6080108489895815 0.3739679343319264	0.091263
C	0.5220089538942586 0.6638449153591854 0.3695599240735400	-0.162684
C	0.0451168605865135 0.3855052328946378 0.9430371092423335	-0.125086
C	0.0449922502832369 0.4414371063297464 0.9438040346256691	-0.126718
C	0.6080108489895815 0.4786602513843791 0.3739679343319264	0.091263
C	0.6638449153591854 0.4779910461057415 0.3695599240735400	-0.162684
C	0.3855052328946378 0.9548830634134802 0.9430371092423335	-0.125086
C	0.4414371063297464 0.9550077687167611 0.9438040346256691	-0.126718
C	0.3919891890104149 0.5213397866156172 0.3739679343319264	0.091264
C	0.3361551226408105 0.5220089538942586 0.3695599240735400	-0.162666
C	0.6144947281053625 0.0451168605865135 0.9430371092423335	-0.125087
C	0.5585629316702565 0.0449922502832369 0.9438040346256691	-0.126718
C	0.5213397866156172 0.3919891890104149 0.6260320656680736	0.091264
C	0.5220089538942586 0.3361551226408105 0.6304400439264577	-0.162666
C	0.0451168605865135 0.6144947281053625 0.0569629027576674	-0.125086
C	0.0449922502832369 0.5585629316702565 0.0561959413743288	-0.126718
C	0.4786602513843791 0.6080108489895815 0.6260320656680736	0.091263
C	0.4779910461057415 0.6638449153591854 0.6304400439264577	-0.162684
C	0.9548830634134802 0.3855052328946378 0.0569629027576674	-0.125086
C	0.9550077687167611 0.4414371063297464 0.0561959413743288	-0.126718
C	0.3919891890104149 0.4786602513843791 0.6260320656680736	0.091264
C	0.3361551226408105 0.4779910461057415 0.6304400439264577	-0.162666
C	0.6144947281053625 0.9548830634134802 0.0569629027576674	-0.125086
C	0.5585629316702565 0.9550077687167611 0.0561959413743288	-0.126718
C	0.6080108489895815 0.5213397866156172 0.6260320656680736	0.091263
C	0.6638449153591854 0.5220089538942586 0.6304400439264577	-0.162684
C	0.3855052328946378 0.0451168605865135 0.0569629027576674	-0.125086
C	0.4414371063297464 0.0449922502832369 0.0561959413743288	-0.126718
C	0.5451168985865238 0.8855051948946417 0.5569629227576620	-0.125086
C	0.5449922312832389 0.9414371063297466 0.5561959333743283	-0.126718
C	0.0213397406156203 0.1080107919895872 0.1260320656680736	0.091264
C	0.0220089518942583 0.1638448773591894 0.1304400599264587	-0.162666
C	0.4548831394134866 0.1144947761053593 0.5569629227576620	-0.125086
C	0.4550077307167650 0.0585628786702558 0.5561959333743283	-0.126718
C	0.9786602133843828 0.8919891510104185 0.1260320656680736	0.091264
C	0.9779910461057414 0.8361551226408106 0.1304400599264587	-0.162666
C	0.1144947761053593 0.5451168985865238 0.5569629227576620	-0.125086
C	0.0585628786702558 0.5449922312832389 0.5561959333743283	-0.126718
C	0.8919891510104185 0.0213397406156203 0.1260320656680736	0.091264
C	0.8361551226408106 0.0220089518942583 0.1304400599264587	-0.162666
C	0.8855051948946417 0.4548831394134866 0.5569629227576620	-0.125086
C	0.9414371063297466 0.4550077307167650 0.5561959333743283	-0.126717
C	0.1080107919895872 0.9786602133843828 0.1260320656680736	0.091264
C	0.1638448773591894 0.9779910461057414 0.1304400599264587	-0.162666
C	0.4548831394134866 0.8855051948946417 0.4430371092423336	-0.125086
C	0.4550077307167650 0.9414371063297466 0.4438040666256720	-0.126718
C	0.9786602133843828 0.1080107919895872 0.8739679663319220	0.091263
C	0.9779910461057414 0.1638448773591894 0.8695599240735397	-0.162666
C	0.5451168985865238 0.1144947761053593 0.4430371092423336	-0.125086
C	0.5449922312832389 0.0585628786702558 0.4438040666256720	-0.126718
C	0.0213397406156203 0.8919891510104185 0.8739679663319220	0.091264
C	0.0220089518942583 0.8361551226408106 0.8695599240735397	-0.162666
C	0.8855051948946417 0.5451168985865238 0.4430371092423336	-0.125086
C	0.9414371063297466 0.5449922312832389 0.4438040666256720	-0.126718
C	0.1080107919895872 0.0213397406156203 0.8739679663319220	0.091263
C	0.1638448773591894 0.0220089518942583 0.8695599240735397	-0.162666
C	0.1144947761053593 0.4548831394134866 0.4430371092423336	-0.125086
C	0.0585628786702558 0.4550077307167650 0.4438040666256720	-0.126718
C	0.8919891510104185 0.9786602133843828 0.8739679663319220	0.091264
C	0.8361551226408106 0.9779910461057414 0.8695599240735397	-0.162666
C	0.5000000000000000 0.3067705261667183 0.5000000000000000	0.172638
C	0.5000000000000000 0.2496757566718203 0.5000000000000000	-0.115795
C	0.5000000000000000 0.2005529094538536 0.5000000000000000	-0.092995
C	0.5000000000000000 0.1433991150287225 0.5000000000000000	0.125716
C	0.5000000000000000 0.0296587630918749 0.5000000000000000	0.067298
C	0.0000000000000000 0.8067705071667132 0.0000000000000000	0.172638
C	0.0000000000000000 0.7496757366718185 0.0000000000000000	-0.115795
C	0.0000000000000000 0.7005528714538574 0.0000000000000000	-0.092995
C	0.0000000000000000 0.6433990770287195 0.0000000000000000	0.125717
C	0.0000000000000000 0.5296587770918759 0.0000000000000000	0.067298
C	0.5000000000000000 0.6932294548332837 0.5000000000000000	0.172644
C	0.5000000000000000 0.7503243013281775 0.5000000000000000	-0.115795
C	0.5000000000000000 0.7994470905461466 0.5000000000000000	-0.092996
C	0.5000000000000000 0.8566008849712774 0.5000000000000000	0.125717
C	0.5000000000000000 0.9703412229081241 0.5000000000000000	0.067298
C	0.0000000000000000 0.1932294738332817 0.0000000000000000	0.172638
C	0.0000000000000000 0.2503242433281796 0.0000000000000000	-0.115796
C	0.0000000000000000 0.2994470705461447 0.0000000000000000	-0.092995
C	0.0000000000000000 0.3566008849712775 0.0000000000000000	0.125717
C	0.0000000000000000 0.4703412609081271 0.0000000000000000	0.067298
C	0.6932294548332837 0.5000000000000000 0.5000000000000000	0.172644
C	0.7503243013281775 0.5000000000000000 0.5000000000000000	-0.115795
C	0.7994470905461466 0.5000000000000000 0.5000000000000000	-0.092996
C	0.8566008849712774 0.5000000000000000 0.5000000000000000	0.125717
C	0.9703412229081241 0.5000000000000000 0.5000000000000000	0.067298
C	0.1932294738332817 0.0000000000000000 0.0000000000000000	0.172638
C	0.2503242433281796 0.0000000000000000 0.0000000000000000	-0.115796
C	0.2994470705461447 0.0000000000000000 0.0000000000000000	-0.092995
C	0.3566008849712775 0.0000000000000000 0.0000000000000000	0.125717
C	0.4703412609081271 0.0000000000000000 0.0000000000000000	0.067298
C	0.3067705261667183 0.5000000000000000 0.5000000000000000	0.172638
C	0.2496757566718203 0.5000000000000000 0.5000000000000000	-0.115795
C	0.2005529094538536 0.5000000000000000 0.5000000000000000	-0.092995
C	0.1433991150287225 0.5000000000000000 0.5000000000000000	0.125716
C	0.0296587630918749 0.5000000000000000 0.5000000000000000	0.067298
C	0.8067705071667132 0.0000000000000000 0.0000000000000000	0.172638
C	0.7496757366718185 0.0000000000000000 0.0000000000000000	-0.115795
C	0.7005528714538574 0.0000000000000000 0.0000000000000000	-0.092995
C	0.6433990770287195 0.0000000000000000 0.0000000000000000	0.125717
C	0.5296587770918759 0.0000000000000000 0.0000000000000000	0.067299
H	0.4622493191453287 0.4152583387842053 0.2729921905527505	0.104131
H	0.4606237357144745 0.3157075615269911 0.2648466839119508	0.129876
H	0.9200966960219141 0.6365388275074599 0.8973154562256229	0.112425
H	0.9202434816643948 0.5368040054720754 0.8961966904038291	0.106812
H	0.5377506808546711 0.5847416612157946 0.2729921905527505	0.104130
H	0.5393763022855287 0.6842925144730081 0.2648466839119508	0.129891
H	0.0799032849780878 0.3634611724925401 0.8973154562256229	0.112425
H	0.0797565473356041 0.4631960335279242 0.8961966904038291	0.106812
H	0.5847416612157946 0.4622493191453287 0.2729921905527505	0.104130
H	0.6842925144730081 0.4606237357144745 0.2648466839119508	0.129891
H	0.3634611724925401 0.9200966960219141 0.8973154562256229	0.112425
H	0.4631960335279242 0.9202434816643948 0.8961966904038291	0.106812
H	0.4152583387842053 0.5377506808546711 0.2729921905527505	0.104131
H	0.3157075615269911 0.5393763022855287 0.2648466839119508	0.129876
H	0.6365388275074599 0.0799032849780878 0.8973154562256229	0.112425
H	0.5368040054720754 0.0797565473356041 0.8961966904038291	0.106812
H	0.5377506808546711 0.4152583387842053 0.7270077934472483	0.104131
H	0.5393763022855287 0.3157075615269911 0.7351533160880493	0.129876
H	0.0799032849780878 0.6365388275074599 0.1026845197743748	0.112425
H	0.0797565473356041 0.5368040054720754 0.1038033095961710	0.106812
H	0.4622493191453287 0.5847416612157946 0.7270077934472483	0.104130
H	0.4606237357144745 0.6842925144730081 0.7351533160880493	0.129891
H	0.9200966960219141 0.3634611724925401 0.1026845197743748	0.112424
H	0.9202434816643948 0.4631960335279242 0.1038033095961710	0.106812
H	0.4152583387842053 0.4622493191453287 0.7270077934472483	0.104131
H	0.3157075615269911 0.4606237357144745 0.7351533160880493	0.129876
H	0.6365388275074599 0.9200966960219141 0.1026845197743748	0.112425
H	0.5368040054720754 0.9202434816643948 0.1038033095961710	0.106812
H	0.5847416612157946 0.5377506808546711 0.7270077934472483	0.104130
H	0.6842925144730081 0.5393763022855287 0.7351533160880493	0.129891
H	0.3634611724925401 0.0799032849780878 0.1026845197743748	0.112425
H	0.4631960335279242 0.0797565473356041 0.1038033095961710	0.106812
H	0.5799033039780859 0.8634611724925401 0.6026845117743744	0.112423
H	0.5797565183356052 0.9631960335279243 0.6038033415961735	0.106812
H	0.0377506908546721 0.0847416322157959 0.2270078094472494	0.104130
H	0.0393763072855256 0.1842924574730069 0.2351533480880446	0.129876
H	0.4200967340219172 0.1365388565074588 0.6026845117743744	0.112424
H	0.4202434426643951 0.0368039904720706 0.6038033415961735	0.106812
H	0.9622493191453289 0.9152584157842011 0.2270078094472494	0.104130
H	0.9606236977144713 0.8157075995269942 0.2351533480880446	0.129876
H	0.1365388565074588 0.5799033039780859 0.6026845117743744	0.112423
H	0.0368039904720706 0.5797565183356052 0.6038033415961735	0.106812
H	0.9152584157842011 0.0377506908546721 0.2270078094472494	0.104131
H	0.8157075995269942 0.0393763072855256 0.2351533480880446	0.129876
H	0.8634611724925401 0.4200967340219172 0.6026845117743744	0.112424
H	0.9631960335279243 0.4202434426643951 0.6038033415961735	0.106812
H	0.0847416322157959 0.9622493191453289 0.2270078094472494	0.104130
H	0.1842924574730069 0.9606236977144713 0.2351533480880446	0.129876
H	0.4200967340219172 0.8634611724925401 0.3973154562256231	0.112423
H	0.4202434426643951 0.9631960335279243 0.3961967224038246	0.106812
H	0.9622493191453289 0.0847416322157959 0.7729921745527490	0.104130
H	0.9606236977144713 0.1842924574730069 0.7648466519119551	0.129876
H	0.5799033039780859 0.1365388565074588 0.3973154562256231	0.112423
H	0.5797565183356052 0.0368039904720706 0.3961967224038246	0.106812
H	0.0377506908546721 0.9152584157842011 0.7729921745527490	0.104131
H	0.0393763072855256 0.8157075995269942 0.7648466519119551	0.129876
H	0.8634611724925401 0.5799033039780859 0.3973154562256231	0.112423
H	0.9631960335279243 0.5797565183356052 0.3961967224038246	0.106812
H	0.0847416322157959 0.0377506908546721 0.7729921745527490	0.104131
H	0.1842924574730069 0.0393763072855256 0.7648466519119551	0.129876
H	0.1365388565074588 0.4200967340219172 0.3973154562256231	0.112423
H	0.0368039904720706 0.4202434426643951 0.3961967224038246	0.106812
H	0.9152584157842011 0.9622493191453289 0.7729921745527490	0.104131
H	0.8157075995269942 0.9606236977144713 0.7648466519119551	0.129876
Co	0.5000000000000000 0.5000000000000000 0.5000000000000000	0.576738
Co	0.0000000000000000 0.0000000000000000 0.0000000000000000	0.576738
Sn	0.5000000000000000 0.5000000000000000 0.0000000000000000	1.867468
Sn	0.0000000000000000 0.0000000000000000 0.5000000000000000	1.867468
F	0.5000000000000000 0.5000000000000000 0.2434582319990171	-0.523124
F	0.0000000000000000 0.0000000000000000 0.7434581999990217	-0.523125
F	0.5000000000000000 0.5000000000000000 0.7565417040009845	-0.523125
F	0.0000000000000000 0.0000000000000000 0.2565417680009827	-0.523125
F	0.5569373302312897 0.5569373302312897 0.0000000000000000	-0.576390
F	0.0569372832312894 0.0569372832312894 0.5000000000000000	-0.576390
F	0.4430627457687166 0.4430627457687166 0.0000000000000000	-0.576390
F	0.9430627077687135 0.9430627077687135 0.5000000000000000	-0.576390
F	0.4430627457687166 0.5569373302312897 0.0000000000000000	-0.576390
F	0.9430627077687135 0.0569372832312894 0.5000000000000000	-0.576390
F	0.5569373302312897 0.4430627457687166 0.0000000000000000	-0.576390
F	0.0569372832312894 0.9430627077687135 0.5000000000000000	-0.576390
N	0.5000000000000000 0.4198400140678001 0.5000000000000000	-0.190034
N	0.0000000000000000 0.9198400520678036 0.0000000000000000	-0.190034
N	0.5000000000000000 0.5801599859321995 0.5000000000000000	-0.190033
N	0.0000000000000000 0.0801599949321969 0.0000000000000000	-0.190034
N	0.5801599859321995 0.5000000000000000 0.5000000000000000	-0.190033
N	0.0801599949321969 0.0000000000000000 0.0000000000000000	-0.190034
N	0.4198400140678001 0.5000000000000000 0.5000000000000000	-0.190034
N	0.9198400520678036 0.0000000000000000 0.0000000000000000	-0.190034
	  	
