#======================================================================

# CRYSTAL DATA

#----------------------------------------------------------------------

data_VESTA_phase_1


_pd_phase_name                         SnFSIX_2_Fe_i
_cell_length_a                         14.03839
_cell_length_b                         14.03839
_cell_length_c                         8.19998
_cell_angle_alpha                      90
_cell_angle_beta                       90
_cell_angle_gamma                      90
_symmetry_space_group_name_H-M         P 1
_symmetry_Int_Tables_number            1

loop_
_symmetry_equiv_pos_as_xyz
   x, y, z

loop_
   _atom_site_label
   _atom_site_fract_x
   _atom_site_fract_y
   _atom_site_fract_z
   _atom_site_charge
C	0.0000000000000000 0.3044831633071914 0.3528260492422252	-0.158546
C	0.0000000000000000 0.2057820812026806 0.3586670387740106	0.109198
C	0.5000000000000000 0.8044831633071915 0.8528260782422239	-0.158546
C	0.5000000000000000 0.7057820992026820 0.8586670387740107	0.109198
C	0.0000000000000000 0.6955168366928085 0.3528260492422252	-0.158548
C	0.0000000000000000 0.7942179007973180 0.3586670387740106	0.109200
C	0.5000000000000000 0.1955168536928065 0.8528260782422239	-0.158548
C	0.5000000000000000 0.2942179007973181 0.8586670387740107	0.109200
C	0.6955168366928085 0.0000000000000000 0.3528260492422252	-0.158546
C	0.7942179007973180 0.0000000000000000 0.3586670387740106	0.109198
C	0.1955168536928065 0.5000000000000000 0.8528260782422239	-0.158546
C	0.2942179007973181 0.5000000000000000 0.8586670387740107	0.109198
C	0.3044831633071914 0.0000000000000000 0.3528260492422252	-0.158548
C	0.2057820812026806 0.0000000000000000 0.3586670387740106	0.109200
C	0.8044831633071915 0.5000000000000000 0.8528260782422239	-0.158548
C	0.7057820992026820 0.5000000000000000 0.8586670387740107	0.109200
C	0.0000000000000000 0.3044831633071914 0.6471739217577761	-0.158546
C	0.0000000000000000 0.2057820812026806 0.6413329612259893	0.109198
C	0.5000000000000000 0.8044831633071915 0.1471739507577748	-0.158546
C	0.5000000000000000 0.7057820992026820 0.1413329462259917	0.109198
C	0.0000000000000000 0.6955168366928085 0.6471739217577761	-0.158549
C	0.0000000000000000 0.7942179007973180 0.6413329612259893	0.109200
C	0.5000000000000000 0.1955168536928065 0.1471739507577748	-0.158549
C	0.5000000000000000 0.2942179007973181 0.1413329462259917	0.109200
C	0.3044831633071914 0.0000000000000000 0.6471739217577761	-0.158549
C	0.2057820812026806 0.0000000000000000 0.6413329612259893	0.109200
C	0.8044831633071915 0.5000000000000000 0.1471739507577748	-0.158549
C	0.7057820992026820 0.5000000000000000 0.1413329462259917	0.109200
C	0.6955168366928085 0.0000000000000000 0.6471739217577761	-0.158546
C	0.7942179007973180 0.0000000000000000 0.6413329612259893	0.109198
C	0.1955168536928065 0.5000000000000000 0.1471739507577748	-0.158546
C	0.2942179007973181 0.5000000000000000 0.1413329462259917	0.109198
C	0.0000000000000000 0.4565655088949065 0.5000000000000000	-0.096807
C	0.0000000000000000 0.3560651137249897 0.5000000000000000	0.160990
C	0.5000000000000000 0.9565655428949023 -0.0000000000000000	-0.096806
C	0.5000000000000000 0.8560650787249905 -0.0000000000000000	0.160990
C	0.0000000000000000 0.5434344911050935 0.5000000000000000	-0.096564
C	0.0000000000000000 0.6439349212750095 0.5000000000000000	0.160961
C	0.5000000000000000 0.0434344701050881 -0.0000000000000000	-0.096564
C	0.5000000000000000 0.1439349212750097 -0.0000000000000000	0.160961
C	0.5434344911050935 0.0000000000000000 0.5000000000000000	-0.096806
C	0.6439349212750095 0.0000000000000000 0.5000000000000000	0.160990
C	0.0434344701050881 0.5000000000000000 -0.0000000000000000	-0.096807
C	0.1439349212750097 0.5000000000000000 -0.0000000000000000	0.160990
C	0.4565655088949065 0.0000000000000000 0.5000000000000000	-0.096564
C	0.3560651137249897 0.0000000000000000 0.5000000000000000	0.160961
C	0.9565655428949023 0.5000000000000000 -0.0000000000000000	-0.096564
C	0.8560650787249905 0.5000000000000000 -0.0000000000000000	0.160961
H	0.0000000000000000 0.3413520240762561 0.2359453388082413	0.121076
H	0.0000000000000000 0.1645179703322526 0.2463772407833079	0.086632
H	0.5000000000000000 0.8413520240762564 0.7359453388082415	0.121076
H	0.5000000000000000 0.6645179173322519 0.7463772707833102	0.086632
H	0.0000000000000000 0.6586479759237436 0.2359453388082413	0.121075
H	0.0000000000000000 0.8354820826677481 0.2463772407833079	0.086632
H	0.5000000000000000 0.1586479759237436 0.7359453388082415	0.121075
H	0.5000000000000000 0.3354820476677418 0.7463772707833102	0.086632
H	0.6586479759237436 0.0000000000000000 0.2359453388082413	0.121076
H	0.8354820826677481 0.0000000000000000 0.2463772407833079	0.086632
H	0.1586479759237436 0.5000000000000000 0.7359453388082415	0.121076
H	0.3354820476677418 0.5000000000000000 0.7463772707833102	0.086632
H	0.3413520240762561 0.0000000000000000 0.2359453388082413	0.121075
H	0.1645179703322526 0.0000000000000000 0.2463772407833079	0.086632
H	0.8413520240762564 0.5000000000000000 0.7359453388082415	0.121075
H	0.6645179173322519 0.5000000000000000 0.7463772707833102	0.086632
H	0.0000000000000000 0.3413520240762561 0.7640546611917585	0.121076
H	0.0000000000000000 0.1645179703322526 0.7536226712166921	0.086632
H	0.5000000000000000 0.8413520240762564 0.2640546611917587	0.121076
H	0.5000000000000000 0.6645179173322519 0.2536227592166921	0.086632
H	0.0000000000000000 0.6586479759237436 0.7640546611917585	0.121075
H	0.0000000000000000 0.8354820826677481 0.7536226712166921	0.086632
H	0.5000000000000000 0.1586479759237436 0.2640546611917587	0.121075
H	0.5000000000000000 0.3354820476677418 0.2536227592166921	0.086632
H	0.3413520240762561 0.0000000000000000 0.7640546611917585	0.121075
H	0.1645179703322526 0.0000000000000000 0.7536226712166921	0.086632
H	0.8413520240762564 0.5000000000000000 0.2640546611917587	0.121075
H	0.6645179173322519 0.5000000000000000 0.2536227592166921	0.086632
H	0.6586479759237436 0.0000000000000000 0.7640546611917585	0.121076
H	0.8354820826677481 0.0000000000000000 0.7536226712166921	0.086632
H	0.1586479759237436 0.5000000000000000 0.2640546611917587	0.121076
H	0.3354820476677418 0.5000000000000000 0.2536227592166921	0.086632
Fe	0.0000000000000000 0.0000000000000000 0.5000000000000000	0.824407
Fe	0.5000000000000000 0.5000000000000000 -0.0000000000000000	0.824407
Sn	0.0000000000000000 0.0000000000000000 -0.0000000000000000	1.871534
Sn	0.5000000000000000 0.5000000000000000 0.5000000000000000	1.871534
N	0.0000000000000000 0.1562883935065900 0.5000000000000000	-0.250190
N	0.5000000000000000 0.6562883755065884 -0.0000000000000000	-0.250190
N	0.0000000000000000 0.8437116244934116 0.5000000000000000	-0.250190
N	0.5000000000000000 0.3437116244934115 -0.0000000000000000	-0.250190
N	0.8437116244934116 0.0000000000000000 0.5000000000000000	-0.250190
N	0.3437116244934115 0.5000000000000000 -0.0000000000000000	-0.250190
N	0.1562883935065900 0.0000000000000000 0.5000000000000000	-0.250189
N	0.6562883755065884 0.5000000000000000 -0.0000000000000000	-0.250190
F	0.0000000000000000 0.0000000000000000 0.7481642990034317	-0.502482
F	0.5000000000000000 0.5000000000000000 0.2481643880034354	-0.502482
F	0.0000000000000000 0.0000000000000000 0.2518356269965693	-0.502482
F	0.5000000000000000 0.5000000000000000 0.7518357009965683	-0.502482
F	0.5996435217451186 0.5996435217451186 0.5000000000000000	-0.553564
F	0.5996435217451186 0.4003564782548811 0.5000000000000000	-0.553564
F	0.4003564782548811 0.5996435217451186 0.5000000000000000	-0.553564
F	0.4003564782548811 0.4003564782548811 0.5000000000000000	-0.553564
F	0.0996435387451165 0.0996435387451165 -0.0000000000000000	-0.553564
F	0.9003564782548814 0.9003564782548814 -0.0000000000000000	-0.553564
F	0.9003564782548814 0.0996435387451165 -0.0000000000000000	-0.553564
F	0.0996435387451165 0.9003564782548814 -0.0000000000000000	-0.553564
	  	
