#======================================================================

# CRYSTAL DATA

#----------------------------------------------------------------------

data_VESTA_phase_1


_pd_phase_name                         SnFSIX_1_Zn
_cell_length_a                         11.37403
_cell_length_b                         11.37403
_cell_length_c                         8.22046
_cell_angle_alpha                      90
_cell_angle_beta                       90
_cell_angle_gamma                      90
_symmetry_space_group_name_H-M         P 1
_symmetry_Int_Tables_number            1

loop_
_symmetry_equiv_pos_as_xyz
   x, y, z

loop_
   _atom_site_label
   _atom_site_fract_x
   _atom_site_fract_y
   _atom_site_fract_z
   _atom_site_charge
C	0.2508311469278955 0.4582934694968006 0.3711404164230604	0.106146
C	0.1286484090474287 0.4579018347928346 0.3660976469090544	-0.171287
C	0.7491689400721080 0.5417065735031992 0.3711404164230604	0.106146
C	0.8713516349525752 0.5420981652071656 0.3660976469090544	-0.171287
C	0.5417065735031992 0.2508311469278955 0.3711404164230604	0.106146
C	0.5420981652071656 0.1286484090474287 0.3660976469090544	-0.171287
C	0.4582934694968006 0.7491689400721080 0.3711404164230604	0.106146
C	0.4579018347928346 0.8713516349525752 0.3660976469090544	-0.171287
C	0.7491689400721080 0.4582934694968006 0.6288595535769367	0.106147
C	0.8713516349525752 0.4579018347928346 0.6339023240909395	-0.171286
C	0.2508311469278955 0.5417065735031992 0.6288595535769367	0.106147
C	0.1286484090474287 0.5420981652071656 0.6339023240909395	-0.171286
C	0.4582934694968006 0.2508311469278955 0.6288595535769367	0.106147
C	0.4579018347928346 0.1286484090474287 0.6339023240909395	-0.171286
C	0.5417065735031992 0.7491689400721080 0.6288595535769367	0.106147
C	0.5420981652071656 0.8713516349525752 0.6339023240909395	-0.171286
C	0.0649661952187602 0.5000000000000000 0.5000000000000000	0.101753
C	0.9350338807812391 0.5000000000000000 0.5000000000000000	0.101754
C	0.5000000000000000 0.0649661952187602 0.5000000000000000	0.101753
C	0.5000000000000000 0.9350338807812391 0.5000000000000000	0.101754
H	0.3025080862187278 0.4250432399666950 0.2692560979267788	0.096837
H	0.0839557361195290 0.4227070799888628 0.2595071045742596	0.124398
H	0.6974918707812721 0.5749567600333051 0.2692560979267788	0.096838
H	0.9160442798804724 0.5772929200111372 0.2595071045742596	0.124397
H	0.5749567600333051 0.3025080862187278 0.2692560979267788	0.096837
H	0.5772929200111372 0.0839557361195290 0.2595071045742596	0.124398
H	0.4250432399666950 0.6974918707812721 0.2692560979267788	0.096837
H	0.4227070799888628 0.9160442798804724 0.2595071045742596	0.124398
H	0.6974918707812721 0.4250432399666950 0.7307438730732223	0.096837
H	0.9160442798804724 0.4227070799888628 0.7404929544257418	0.124396
H	0.3025080862187278 0.5749567600333051 0.7307438730732223	0.096837
H	0.0839557361195290 0.5772929200111372 0.7404929544257418	0.124396
H	0.4250432399666950 0.3025080862187278 0.7307438730732223	0.096837
H	0.4227070799888628 0.0839557361195290 0.7404929544257418	0.124396
H	0.5749567600333051 0.6974918707812721 0.7307438730732223	0.096837
H	0.5772929200111372 0.9160442798804724 0.7404929544257418	0.124396
Zn	0.5000000000000000 0.5000000000000000 0.5000000000000000	0.734446
Sn	0.5000000000000000 0.5000000000000000 0.0000000000000000	1.876335
F	0.5000000000000000 0.5000000000000000 0.7525349332044243	-0.525603
F	0.5000000000000000 0.5000000000000000 0.2474650667955756	-0.525603
F	0.3760726763428177 0.3760726763428177 0.0000000000000000	-0.571900
F	0.6239273236571825 0.6239273236571825 0.0000000000000000	-0.571900
F	0.6239273236571825 0.3760726763428177 0.0000000000000000	-0.571900
F	0.3760726763428177 0.6239273236571825 0.0000000000000000	-0.571900
N	0.3109652682807348 0.5000000000000000 0.5000000000000000	-0.231936
N	0.6890347537192669 0.5000000000000000 0.5000000000000000	-0.231936
N	0.5000000000000000 0.3109652682807348 0.5000000000000000	-0.231936
N	0.5000000000000000 0.6890347537192669 0.5000000000000000	-0.231936
	  	
