#======================================================================

# CRYSTAL DATA

#----------------------------------------------------------------------

data_VESTA_phase_1


_pd_phase_name                         SnFSIX_5_Co_i
_cell_length_a                         19.62012
_cell_length_b                         19.62012
_cell_length_c                         16.57942
_cell_angle_alpha                      90
_cell_angle_beta                       90
_cell_angle_gamma                      90
_symmetry_space_group_name_H-M         P 1
_symmetry_Int_Tables_number            1

loop_
_symmetry_equiv_pos_as_xyz
   x, y, z

loop_
   _atom_site_label
   _atom_site_fract_x
   _atom_site_fract_y
   _atom_site_fract_z
   _atom_site_charge
F	0.3155563953096169 0.1719328006258362 0.3524222866614281	-0.577063
F	0.1844435926903821 0.3280671993741640 0.3524222866614281	-0.577068
F	0.3280671993741640 0.3155563953096169 0.3524222866614281	-0.577065
F	0.1719328006258362 0.1844435926903821 0.3524222866614281	-0.577065
F	0.6844436286903778 0.6719328246258376 0.1475777133385721	-0.577064
F	0.8155563713096221 0.8280671753741624 0.1475777133385721	-0.577066
F	0.6719328246258376 0.8155563713096222 0.1475777133385721	-0.577066
F	0.8280671753741624 0.6844436286903778 0.1475777133385721	-0.577065
F	0.6844436286903779 0.8280671753741624 0.6475777453385748	-0.577068
F	0.8155563713096221 0.6719328246258376 0.6475777453385748	-0.577063
F	0.6719328246258376 0.6844436286903779 0.6475777453385748	-0.577066
F	0.8280671753741624 0.8155563713096221 0.6475777453385748	-0.577065
F	0.3155563953096169 0.3280671993741640 0.8524222546614252	-0.577066
F	0.1844435926903821 0.1719328006258362 0.8524222546614252	-0.577065
F	0.3280671993741640 0.1844435926903822 0.8524222546614252	-0.577065
F	0.1719328006258362 0.3155563953096169 0.8524222546614252	-0.577066
F	0.2500000000000000 0.2500000000000000 0.4734203566197871	-0.527261
F	0.2500000000000000 0.2500000000000000 0.2312222300514608	-0.527003
F	0.7500000000000000 0.7500000000000000 0.0265796703802116	-0.527261
F	0.7500000000000000 0.7500000000000000 0.2687777539485379	-0.527003
F	0.7500000000000000 0.7500000000000000 0.5265796743802127	-0.527259
F	0.7500000000000000 0.7500000000000000 0.7687777539485379	-0.527004
F	0.2500000000000000 0.2500000000000000 0.9734203256197873	-0.527259
F	0.2500000000000000 0.2500000000000000 0.7312222460514621	-0.527005
N	0.3502474087639883 0.2474176627571108 0.6023333266449323	-0.195004
N	0.1497525912360120 0.2525823372428892 0.6023333266449323	-0.195004
N	0.2525823372428892 0.3502474087639883 0.6023333266449323	-0.195005
N	0.2474176627571108 0.1497525912360120 0.6023333266449323	-0.195003
N	0.6497526152360142 0.7474176387571085 0.8976666733550677	-0.195004
N	0.8502473847639858 0.7525823612428915 0.8976666733550677	-0.195005
N	0.7474176387571085 0.8502473847639858 0.8976666733550677	-0.195005
N	0.7525823612428915 0.6497526152360142 0.8976666733550677	-0.195003
N	0.6497526152360142 0.7525823612428915 0.3976667043550665	-0.195002
N	0.8502473847639858 0.7474176387571085 0.3976667043550665	-0.195003
N	0.7474176387571085 0.6497526152360142 0.3976667043550665	-0.195002
N	0.7525823612428915 0.8502473847639858 0.3976667043550665	-0.195003
N	0.3502474087639883 0.2525823372428892 0.1023333266449327	-0.195003
N	0.1497525912360120 0.2474176627571108 0.1023333266449327	-0.195002
N	0.2525823372428892 0.1497525912360120 0.1023333266449327	-0.195001
N	0.2474176627571108 0.3502474087639883 0.1023333266449327	-0.195003
C	0.3843901043752669 0.2181560794894107 0.6640783108117264	0.094690
C	0.4550301642346955 0.2171442612594713 0.6674195824500777	-0.171894
C	0.4934806312300007 0.2474100151117837 0.6057130965049459	0.102709
C	0.4571164461529598 0.2771770997552260 0.5418875445926937	-0.174733
C	0.3864081164010236 0.2761507927372231 0.5418432438107653	0.093844
C	0.5684981003918587 0.2481673751983516 0.6079382886554762	0.054535
C	0.6052344354484902 0.1916884979645466 0.6368325740026095	-0.128130
C	0.6760620418060680 0.1922569890150339 0.6380225384506297	-0.125326
C	0.7124834320138838 0.2497878286191156 0.6117208023225836	0.067214
C	0.6758093517682194 0.3065723269359289 0.5837891356107306	-0.121185
C	0.6049987829134025 0.3055238770660110 0.5812482168619071	-0.124488
C	0.1156098716247383 0.2818439445105915 0.6640783108117264	0.094691
C	0.0449697757653067 0.2828557627405306 0.6674195824500777	-0.171896
C	0.0065193477700010 0.2525899848882165 0.6057130965049459	0.102706
C	0.0428835808470386 0.2228229002447740 0.5418875445926937	-0.174728
C	0.1135918475989733 0.2238492312627789 0.5418432438107653	0.093841
C	0.9315018516081445 0.2518326008016463 0.6079382886554762	0.054535
C	0.8947656125515067 0.3083115370354527 0.6368325740026095	-0.128127
C	0.8239379581939320 0.3077430229849598 0.6380225384506297	-0.125324
C	0.7875165679861162 0.2502121473808827 0.6117208023225836	0.067211
C	0.8241906952317809 0.1934276730640711 0.5837891356107306	-0.121180
C	0.8950013130865984 0.1944761579339886 0.5812482168619071	-0.124488
C	0.2818439445105915 0.3843901043752669 0.6640783108117264	0.094692
C	0.2828557627405306 0.4550301642346955 0.6674195824500777	-0.171896
C	0.2525899848882165 0.4934806312300007 0.6057130965049459	0.102708
C	0.2228229002447740 0.4571164461529598 0.5418875445926937	-0.174730
C	0.2238492312627789 0.3864081164010236 0.5418432438107653	0.093845
C	0.2518326008016463 0.5684981003918587 0.6079382886554762	0.054535
C	0.3083115370354527 0.6052344354484902 0.6368325740026095	-0.128130
C	0.3077430229849598 0.6760620418060680 0.6380225384506297	-0.125326
C	0.2502121473808827 0.7124834320138838 0.6117208023225836	0.067211
C	0.1934276730640711 0.6758093517682194 0.5837891356107306	-0.121184
C	0.1944761579339886 0.6049987829134025 0.5812482168619071	-0.124490
C	0.2181560794894107 0.1156098716247383 0.6640783108117264	0.094690
C	0.2171442612594713 0.0449697757653067 0.6674195824500777	-0.171893
C	0.2474100151117837 0.0065193477700010 0.6057130965049459	0.102708
C	0.2771770997552260 0.0428835808470386 0.5418875445926937	-0.174730
C	0.2761507927372231 0.1135918475989733 0.5418432438107653	0.093841
C	0.2481673751983516 0.9315018516081445 0.6079382886554762	0.054536
C	0.1916884979645466 0.8947656125515067 0.6368325740026095	-0.128127
C	0.1922569890150339 0.8239379581939320 0.6380225384506297	-0.125324
C	0.2497878286191156 0.7875165679861162 0.6117208023225836	0.067213
C	0.3065723269359289 0.8241906952317809 0.5837891356107306	-0.121182
C	0.3055238770660110 0.8950013130865984 0.5812482168619071	-0.124487
C	0.6156098716247383 0.7181561274894072 0.8359216891882736	0.094689
C	0.5449697877653077 0.7171442852594662 0.8325804175499223	-0.171892
C	0.5065193687699991 0.7474100631117797 0.8942869034950541	0.102707
C	0.5428836498470407 0.7771770517552220 0.9581124554073063	-0.174732
C	0.6135919075989711 0.7761508167372179 0.9581567561892347	0.093842
C	0.4315018996081418 0.7481674471983504 0.8920617113445238	0.054536
C	0.3947655645515095 0.6916884629645472 0.8631674259973905	-0.128127
C	0.3239378861939257 0.6922569530150382 0.8619774615493703	-0.125325
C	0.2875166159861203 0.7497878526191173 0.8882791976774164	0.067212
C	0.3241906002317762 0.8065723269359284 0.9162108643892694	-0.121182
C	0.3950012410865923 0.8055238060660078 0.9187517831380929	-0.124485
C	0.8843901283752617 0.7818438725105928 0.8359216891882736	0.094692
C	0.9550302122346923 0.7828557147405338 0.8325804175499223	-0.171898
C	0.9934806792299977 0.7525899368882203 0.8942869034950541	0.102708
C	0.9571163981529632 0.7228229482447780 0.9581124554073063	-0.174729
C	0.8864080924010289 0.7238491832627821 0.9581567561892347	0.093843
C	0.0684981363918544 0.7518325528016496 0.8920617113445238	0.054534
C	0.1052344234484895 0.8083115370354528 0.8631674259973905	-0.128129
C	0.1760620898060724 0.8077429989849649 0.8619774615493703	-0.125326
C	0.2124833840138799 0.7502121473808827 0.8882791976774164	0.067212
C	0.1758093757682217 0.6934276730640716 0.9162108643892694	-0.121182
C	0.1049987589134077 0.6944761469339918 0.9187517831380929	-0.124489
C	0.7181561274894072 0.8843901283752617 0.8359216891882736	0.094694
C	0.7171442852594662 0.9550302122346923 0.8325804175499223	-0.171894
C	0.7474100631117797 0.9934806792299977 0.8942869034950541	0.102707
C	0.7771770517552220 0.9571163981529632 0.9581124554073063	-0.174732
C	0.7761508167372179 0.8864080924010289 0.9581567561892347	0.093844
C	0.7481674471983504 0.0684981363918544 0.8920617113445238	0.054535
C	0.6916884629645472 0.1052344234484895 0.8631674259973905	-0.128130
C	0.6922569530150382 0.1760620898060724 0.8619774615493703	-0.125325
C	0.7497878526191173 0.2124833840138799 0.8882791976774164	0.067212
C	0.8065723269359284 0.1758093757682217 0.9162108643892694	-0.121182
C	0.8055238060660078 0.1049987589134077 0.9187517831380929	-0.124488
C	0.7818438725105928 0.6156098716247383 0.8359216891882736	0.094688
C	0.7828557147405338 0.5449697877653077 0.8325804175499223	-0.171895
C	0.7525899368882203 0.5065193687699991 0.8942869034950541	0.102708
C	0.7228229482447780 0.5428836498470407 0.9581124554073063	-0.174728
C	0.7238491832627821 0.6135919075989711 0.9581567561892347	0.093842
C	0.7518325528016496 0.4315018996081418 0.8920617113445239	0.054536
C	0.8083115370354528 0.3947655645515095 0.8631674259973905	-0.128127
C	0.8077429989849649 0.3239378861939257 0.8619774615493703	-0.125326
C	0.7502121473808827 0.2875166159861203 0.8882791976774164	0.067212
C	0.6934276730640716 0.3241906002317762 0.9162108643892694	-0.121183
C	0.6944761469339918 0.3950012410865923 0.9187517831380929	-0.124486
C	0.6156098716247383 0.7818438725105928 0.3359217201882727	0.094691
C	0.5449697877653077 0.7828557147405338 0.3325804175499226	-0.171895
C	0.5065193687699991 0.7525899368882203 0.3942869034950541	0.102706
C	0.5428836498470407 0.7228229482447780 0.4581124864073120	-0.174727
C	0.6135919075989711 0.7238491832627821 0.4581567561892350	0.093841
C	0.4315018996081418 0.7518325528016496 0.3920617113445238	0.054537
C	0.3947655645515095 0.8083115370354528 0.3631673949973910	-0.128126
C	0.3239378861939257 0.8077429989849649 0.3619774925493690	-0.125332
C	0.2875166159861203 0.7502121473808827 0.3882791036774152	0.067213
C	0.3241906002317762 0.6934276730640716 0.4162108953892689	-0.121180
C	0.3950012410865923 0.6944761469339918 0.4187517831380926	-0.124497
C	0.8843901283752617 0.7181561274894072 0.3359217201882727	0.094691
C	0.9550302122346923 0.7171442852594662 0.3325804175499226	-0.171893
C	0.9934806792299977 0.7474100631117797 0.3942869034950541	0.102709
C	0.9571163981529632 0.7771770517552220 0.4581124864073120	-0.174732
C	0.8864080924010289 0.7761508167372179 0.4581567561892350	0.093844
C	0.0684981363918544 0.7481674471983504 0.3920617113445238	0.054537
C	0.1052344234484895 0.6916884629645472 0.3631673949973910	-0.128129
C	0.1760620898060724 0.6922569530150382 0.3619774925493690	-0.125332
C	0.2124833840138799 0.7497878526191173 0.3882791036774152	0.067213
C	0.1758093757682217 0.8065723269359284 0.4162108953892689	-0.121184
C	0.1049987589134077 0.8055238060660078 0.4187517831380926	-0.124497
C	0.7181561274894072 0.6156098716247383 0.3359217201882727	0.094690
C	0.7171442852594662 0.5449697877653077 0.3325804175499226	-0.171893
C	0.7474100631117797 0.5065193687699991 0.3942869034950541	0.102708
C	0.7771770517552220 0.5428836498470407 0.4581124864073120	-0.174729
C	0.7761508167372179 0.6135919075989711 0.4581567561892350	0.093841
C	0.7481674471983504 0.4315018996081418 0.3920617113445238	0.054538
C	0.6916884629645472 0.3947655645515095 0.3631673949973910	-0.128125
C	0.6922569530150382 0.3239378861939257 0.3619774925493690	-0.125331
C	0.7497878526191173 0.2875166159861203 0.3882791036774152	0.067215
C	0.8065723269359284 0.3241906002317762 0.4162108953892689	-0.121181
C	0.8055238060660078 0.3950012410865923 0.4187517831380926	-0.124496
C	0.7818438725105928 0.8843901283752617 0.3359217201882727	0.094692
C	0.7828557147405338 0.9550302122346923 0.3325804175499226	-0.171895
C	0.7525899368882203 0.9934806792299977 0.3942869034950541	0.102708
C	0.7228229482447780 0.9571163981529632 0.4581124864073120	-0.174729
C	0.7238491832627821 0.8864080924010289 0.4581567561892350	0.093845
C	0.7518325528016496 0.0684981363918544 0.3920617113445238	0.054537
C	0.8083115370354528 0.1052344234484895 0.3631673949973910	-0.128129
C	0.8077429989849649 0.1760620898060724 0.3619774925493690	-0.125333
C	0.7502121473808827 0.2124833840138799 0.3882791036774152	0.067211
C	0.6934276730640716 0.1758093757682217 0.4162108953892689	-0.121182
C	0.6944761469339918 0.1049987589134077 0.4187517831380926	-0.124499
C	0.3843901043752669 0.2818439445105915 0.1640782958117288	0.094692
C	0.4550301642346955 0.2828557627405306 0.1674195514500786	-0.171897
C	0.4934806312300007 0.2525899848882165 0.1057130965049461	0.102709
C	0.4571164461529598 0.2228229002447740 0.0418875095926946	-0.174728
C	0.3864081164010236 0.2238492312627789 0.0418432358107643	0.093843
C	0.5684981003918587 0.2518326008016463 0.1079382806554757	0.054538
C	0.6052344354484902 0.3083115370354527 0.1368325740026099	-0.128132
C	0.6760620418060680 0.3077430229849598 0.1380224914506298	-0.125347
C	0.7124834320138838 0.2502121473808827 0.1117208733225865	0.067212
C	0.6758093517682194 0.1934276730640711 0.0837891196107288	-0.121181
C	0.6049987829134025 0.1944761579339886 0.0812482318619051	-0.124499
C	0.1156098716247383 0.2181560794894107 0.1640782958117288	0.094689
C	0.0449697757653067 0.2171442612594713 0.1674195514500786	-0.171891
C	0.0065193477700010 0.2474100151117837 0.1057130965049461	0.102707
C	0.0428835808470386 0.2771770997552260 0.0418875095926946	-0.174732
C	0.1135918475989733 0.2761507927372231 0.0418432358107643	0.093842
C	0.9315018516081445 0.2481673751983516 0.1079382806554757	0.054539
C	0.8947656125515067 0.1916884979645466 0.1368325740026099	-0.128132
C	0.8239379581939320 0.1922569890150339 0.1380224914506298	-0.125345
C	0.7875165679861162 0.2497878286191156 0.1117208733225865	0.067209
C	0.8241906952317809 0.3065723269359289 0.0837891196107288	-0.121180
C	0.8950013130865984 0.3055238770660110 0.0812482318619051	-0.124495
C	0.2818439445105915 0.1156098716247383 0.1640782958117288	0.094689
C	0.2828557627405306 0.0449697757653067 0.1674195514500786	-0.171894
C	0.2525899848882165 0.0065193477700010 0.1057130965049461	0.102708
C	0.2228229002447740 0.0428835808470386 0.0418875095926946	-0.174728
C	0.2238492312627789 0.1135918475989733 0.0418432358107643	0.093842
C	0.2518326008016463 0.9315018516081445 0.1079382806554757	0.054539
C	0.3083115370354527 0.8947656125515067 0.1368325740026099	-0.128131
C	0.3077430229849598 0.8239379581939320 0.1380224914506298	-0.125347
C	0.2502121473808827 0.7875165679861162 0.1117208733225865	0.067212
C	0.1934276730640711 0.8241906952317809 0.0837891196107288	-0.121181
C	0.1944761579339886 0.8950013130865984 0.0812482318619051	-0.124496
C	0.2181560794894107 0.3843901043752669 0.1640782958117288	0.094694
C	0.2171442612594713 0.4550301642346955 0.1674195514500786	-0.171893
C	0.2474100151117837 0.4934806312300007 0.1057130965049461	0.102708
C	0.2771770997552260 0.4571164461529598 0.0418875095926946	-0.174732
C	0.2761507927372231 0.3864081164010236 0.0418432358107643	0.093844
C	0.2481673751983516 0.5684981003918587 0.1079382806554757	0.054538
C	0.1916884979645466 0.6052344354484902 0.1368325740026099	-0.128134
C	0.1922569890150339 0.6760620418060680 0.1380224914506298	-0.125345
C	0.2497878286191156 0.7124834320138838 0.1117208733225865	0.067209
C	0.3065723269359289 0.6758093517682194 0.0837891196107288	-0.121180
C	0.3055238770660110 0.6049987829134025 0.0812482318619051	-0.124498
H	0.3540333064856586 0.1965211786960147 0.7127761769912757	0.102969
H	0.4796350466364329 0.1943926234683915 0.7197879737165461	0.119240
H	0.4835950044159586 0.3001131423145201 0.4909087092195606	0.119042
H	0.3575869611687381 0.2978143301736980 0.4918342692874744	0.103515
H	0.5777928846417049 0.1464824457450924 0.6571106301459098	0.101300
H	0.7039051158639338 0.1481200596789960 0.6607084882766074	0.102849
H	0.7033651878362495 0.3511432364016552 0.5617806574908590	0.103055
H	0.5774611020475308 0.3501338861548460 0.5594255178027475	0.104145
H	0.1459666575143384 0.3034788453039874 0.7127761769912757	0.102967
H	0.0203649593635608 0.3056074005316106 0.7197879737165461	0.119242
H	0.0164049845840439 0.1998868696854809 0.4909087092195606	0.119040
H	0.1424130628312639 0.2021856578263008 0.4918342692874744	0.103515
H	0.9222071623582955 0.3535175542549078 0.6571106301459098	0.101300
H	0.7960948841360662 0.3518799283210031 0.6607084882766074	0.102848
H	0.7966348121637505 0.1488567755983460 0.5617806574908590	0.103059
H	0.9225388979524692 0.1498661018451601 0.5594255178027475	0.104148
H	0.3034788453039874 0.3540333064856586 0.7127761769912757	0.102968
H	0.3056074005316106 0.4796350466364329 0.7197879737165461	0.119242
H	0.1998868696854809 0.4835950044159586 0.4909087092195606	0.119041
H	0.2021856578263008 0.3575869611687381 0.4918342692874744	0.103515
H	0.3535175542549078 0.5777928846417049 0.6571106301459098	0.101299
H	0.3518799283210031 0.7039051158639338 0.6607084882766074	0.102848
H	0.1488567755983460 0.7033651878362495 0.5617806574908590	0.103057
H	0.1498661018451601 0.5774611020475308 0.5594255178027475	0.104149
H	0.1965211786960147 0.1459666575143384 0.7127761769912757	0.102967
H	0.1943926234683915 0.0203649593635608 0.7197879737165461	0.119240
H	0.3001131423145201 0.0164049845840439 0.4909087092195606	0.119041
H	0.2978143301736980 0.1424130628312639 0.4918342692874744	0.103515
H	0.1464824457450924 0.9222071623582955 0.6571106301459098	0.101302
H	0.1481200596789960 0.7960948841360662 0.6607084882766074	0.102849
H	0.3511432364016552 0.7966348121637505 0.5617806574908590	0.103056
H	0.3501338861548460 0.9225388979524692 0.5594255178027475	0.104146
H	0.6459666455143369 0.6965211786960148 0.7872238230087243	0.102968
H	0.5203649053635635 0.6943925994683902 0.7802120262834539	0.119239
H	0.5164049955840403 0.8001131423145202 0.0090912757804348	0.119041
H	0.6424130388312620 0.7978143061736962 0.0081657587125280	0.103514
H	0.4222071153582947 0.6464824457450924 0.8428893698540902	0.101301
H	0.2960949081360681 0.6481200716789969 0.8392915117233926	0.102849
H	0.2966348121637508 0.8511432364016549 0.9382193425091410	0.103057
H	0.4225389459524665 0.8501339101548409 0.9405744821972525	0.104147
H	0.8540334024856600 0.8034788693039892 0.7872238230087243	0.102968
H	0.9796349986364357 0.8056074005316098 0.7802120262834539	0.119241
H	0.9835949564159628 0.6998868576854798 0.0090912757804348	0.119042
H	0.8575868651687372 0.7021856938263038 0.0081657587125280	0.103516
H	0.0777928846417054 0.8535175542549076 0.8428893698540902	0.101299
H	0.2039050918639319 0.8518799283210031 0.8392915117233926	0.102846
H	0.2033651878362494 0.6488568115983420 0.9382193425091410	0.103057
H	0.0774610960475300 0.6498660898451591 0.9405744821972525	0.104146
H	0.6965211786960148 0.8540334024856600 0.7872238230087243	0.102968
H	0.6943925994683902 0.9796349986364357 0.7802120262834539	0.119241
H	0.8001131423145202 0.9835949564159628 0.0090912757804348	0.119043
H	0.7978143061736962 0.8575868651687372 0.0081657587125280	0.103516
H	0.6464824457450924 0.0777928846417054 0.8428893698540902	0.101302
H	0.6481200716789969 0.2039050918639319 0.8392915117233926	0.102848
H	0.8511432364016549 0.2033651878362494 0.9382193425091410	0.103056
H	0.8501339101548409 0.0774610960475300 0.9405744821972525	0.104147
H	0.8034788693039892 0.6459666455143369 0.7872238230087243	0.102968
H	0.8056074005316098 0.5203649053635635 0.7802120262834539	0.119240
H	0.6998868576854798 0.5164049955840403 0.0090912757804348	0.119039
H	0.7021856938263038 0.6424130388312620 0.0081657587125280	0.103514
H	0.8535175542549076 0.4222071153582947 0.8428893698540902	0.101300
H	0.8518799283210031 0.2960949081360681 0.8392915117233926	0.102848
H	0.6488568115983420 0.2966348121637508 0.9382193425091410	0.103058
H	0.6498660898451591 0.4225389459524665 0.9405744821972525	0.104149
H	0.6459666455143369 0.8034788693039892 0.2872238550087201	0.102966
H	0.5203649053635635 0.8056074005316098 0.2802120572834529	0.119240
H	0.5164049955840403 0.6998868576854798 0.5090912597804406	0.119038
H	0.6424130388312620 0.7021856938263038 0.5081657307125256	0.103515
H	0.4222071153582947 0.8535175542549076 0.3428893388540910	0.101300
H	0.2960949081360681 0.8518799283210031 0.3392914797233904	0.102853
H	0.2966348121637508 0.6488568115983420 0.4382193735091401	0.103059
H	0.4225389459524665 0.6498660898451591 0.4405745441972503	0.104154
H	0.8540334024856600 0.6965211786960148 0.2872238550087201	0.102968
H	0.9796349986364357 0.6943925994683902 0.2802120572834529	0.119238
H	0.9835949564159628 0.8001131423145202 0.5090912597804406	0.119041
H	0.8575868651687372 0.7978143061736962 0.5081657307125256	0.103515
H	0.0777928846417054 0.6464824457450924 0.3428893388540910	0.101299
H	0.2039050918639319 0.6481200716789969 0.3392914797233904	0.102852
H	0.2033651878362494 0.8511432364016549 0.4382193735091401	0.103053
H	0.0774610960475300 0.8501339101548409 0.4405745441972503	0.104151
H	0.6965211786960148 0.6459666455143369 0.2872238550087201	0.102967
H	0.6943925994683902 0.5203649053635635 0.2802120572834529	0.119238
H	0.8001131423145202 0.5164049955840403 0.5090912597804406	0.119039
H	0.7978143061736962 0.6424130388312620 0.5081657307125256	0.103515
H	0.6464824457450924 0.4222071153582947 0.3428893388540910	0.101301
H	0.6481200716789969 0.2960949081360681 0.3392914797233904	0.102854
H	0.8511432364016549 0.2966348121637508 0.4382193735091401	0.103057
H	0.8501339101548409 0.4225389459524665 0.4405745441972503	0.104152
H	0.8034788693039892 0.8540334024856600 0.2872238550087201	0.102968
H	0.8056074005316098 0.9796349986364357 0.2802120572834529	0.119240
H	0.6998868576854798 0.9835949564159628 0.5090912597804406	0.119040
H	0.7021856938263038 0.8575868651687372 0.5081657307125256	0.103515
H	0.8535175542549076 0.0777928846417054 0.3428893388540910	0.101299
H	0.8518799283210031 0.2039050918639319 0.3392914797233904	0.102851
H	0.6488568115983420 0.2033651878362494 0.4382193735091401	0.103056
H	0.6498660898451591 0.0774610960475300 0.4405745441972503	0.104155
H	0.3540333064856586 0.3034788453039874 0.2127761769912755	0.102967
H	0.4796350466364329 0.3056074005316106 0.2197879887165507	0.119240
H	0.4835950044159586 0.1998868696854809 0.9909087712195656	0.119040
H	0.3575869611687381 0.2021856578263008 0.9918342382874754	0.103516
H	0.5777928846417049 0.3535175542549078 0.1571106451459073	0.101300
H	0.7039051158639338 0.3518799283210031 0.1607085352766075	0.102869
H	0.7033651878362495 0.1488567755983460 0.0617806184908595	0.103057
H	0.5774611020475308 0.1498661018451601 0.0594254788027482	0.104152
H	0.1459666575143384 0.1965211786960147 0.2127761769912755	0.102967
H	0.0203649593635608 0.1943926234683915 0.2197879887165507	0.119238
H	0.0164049845840439 0.3001131423145201 0.9909087712195656	0.119038
H	0.1424130628312639 0.2978143301736980 0.9918342382874754	0.103514
H	0.9222071623582955 0.1464824457450924 0.1571106451459073	0.101302
H	0.7960948841360662 0.1481200596789960 0.1607085352766075	0.102870
H	0.7966348121637505 0.3511432364016552 0.0617806184908595	0.103056
H	0.9225388979524692 0.3501338861548460 0.0594254788027482	0.104153
H	0.3034788453039874 0.1459666575143384 0.2127761769912755	0.102967
H	0.3056074005316106 0.0203649593635608 0.2197879887165507	0.119239
H	0.1998868696854809 0.0164049845840439 0.9909087712195656	0.119037
H	0.2021856578263008 0.1424130628312639 0.9918342382874754	0.103514
H	0.3535175542549078 0.9222071623582955 0.1571106451459073	0.101300
H	0.3518799283210031 0.7960948841360662 0.1607085352766075	0.102870
H	0.1488567755983460 0.7966348121637505 0.0617806184908595	0.103058
H	0.1498661018451601 0.9225388979524692 0.0594254788027482	0.104154
H	0.1965211786960147 0.3540333064856586 0.2127761769912755	0.102967
H	0.1943926234683915 0.4796350466364329 0.2197879887165507	0.119239
H	0.3001131423145201 0.4835950044159586 0.9909087712195656	0.119041
H	0.2978143301736980 0.3575869611687381 0.9918342382874754	0.103515
H	0.1464824457450924 0.5777928846417049 0.1571106451459073	0.101303
H	0.1481200596789960 0.7039051158639338 0.1607085352766075	0.102869
H	0.3511432364016552 0.7033651878362495 0.0617806184908595	0.103054
H	0.3501338861548460 0.5774611020475308 0.0594254788027482	0.104152
Co	0.2500000000000000 0.2500000000000000 0.6019690057890461	0.580213
Co	0.7500000000000000 0.7500000000000000 0.8980309942109539	0.580213
Co	0.7500000000000000 0.7500000000000000 0.3980309322109554	0.580208
Co	0.2500000000000000 0.2500000000000000 0.1019690287890448	0.580208
Sn	0.2500000000000000 0.2500000000000000 0.3523180889374962	1.868912
Sn	0.7500000000000000 0.7500000000000000 0.1476819260625016	1.868912
Sn	0.7500000000000000 0.7500000000000000 0.6476820040625006	1.868911
Sn	0.2500000000000000 0.2500000000000000 0.8523179959374994	1.868911
	  	
