#======================================================================

# CRYSTAL DATA

#----------------------------------------------------------------------

data_VESTA_phase_1


_pd_phase_name                         SnFSIX_15_Co_i
_cell_length_a                         29.69041
_cell_length_b                         28.84701
_cell_length_c                         8.08890
_cell_angle_alpha                      90
_cell_angle_beta                       90
_cell_angle_gamma                      90
_symmetry_space_group_name_H-M         P 1
_symmetry_Int_Tables_number            1

loop_
_symmetry_equiv_pos_as_xyz
   x, y, z

loop_
   _atom_site_label
   _atom_site_fract_x
   _atom_site_fract_y
   _atom_site_fract_z
   _atom_site_charge
C	0.9344574010270498 0.1038534915558622 0.8931025566593620	0.102698
C	0.9023915857616787 0.0689523542731709 0.8989097049438523	-0.162350
C	0.7700059313203484 0.9363989893964481 0.9008549817569463	-0.113823
C	0.7355553324673051 0.9040466100469272 0.9006287387699903	-0.115523
C	0.5669524922096966 0.7404145864581537 0.8929655283062711	0.098882
C	0.6008547185820362 0.7734243599384061 0.8985568992951877	-0.167192
C	0.4344574330270453 0.6038535075558632 0.8931025566593620	0.102688
C	0.4023916177616819 0.5689523172731712 0.8989097049438523	-0.162383
C	0.2700058673203503 0.4363990223964469 0.9008549817569463	-0.113821
C	0.2355553004673024 0.4040466760469328 0.9006287387699903	-0.115523
C	0.0669525162096985 0.2404145694581561 0.8929655283062711	0.098939
C	0.1008546945820343 0.2734243929384052 0.8985568992951877	-0.167170
C	0.0655425669729548 0.8961464924441368 0.3931025876593612	0.102689
C	0.0976083902383190 0.9310476827268288 0.3989097369438483	-0.162384
C	0.2299940846796529 0.0636009736035527 0.4008550437569441	-0.113820
C	0.2644446835326961 0.0959533399530685 0.4006287387699901	-0.115523
C	0.4330474757903008 0.2595854635418431 0.3929655593062700	0.098939
C	0.3991452814179640 0.2265756070615948 0.3985568992951880	-0.167170
C	0.5655425989729502 0.3961465254441354 0.3931025876593612	0.102698
C	0.5976084142383213 0.4310476827268287 0.3989097369438483	-0.162350
C	0.7299940686796516 0.5636010106035519 0.4008550437569441	-0.113823
C	0.7644446675326949 0.5959533899530728 0.4006287387699901	-0.115523
C	0.9330475077903034 0.7595854135418463 0.3929655593062700	0.098882
C	0.8991452814179639 0.7265756400615939 0.3985568992951880	-0.167192
C	0.0655425669729548 0.1038534915558622 0.6068974123406390	0.102694
C	0.0976083902383190 0.0689523542731709 0.6010902010561471	-0.162329
C	0.2299940846796529 0.9363989893964481 0.5991449872430546	-0.113820
C	0.2644446835326961 0.9040466100469272 0.5993712922300087	-0.115523
C	0.4330474757903008 0.7404145864581537 0.6070343776937283	0.098939
C	0.3991452814179640 0.7734243599384061 0.6014430697048133	-0.167170
C	0.5655425989729502 0.6038535075558632 0.6068974123406390	0.102692
C	0.5976084142383213 0.5689523172731712 0.6010902010561471	-0.162404
C	0.7299940686796516 0.4363990223964469 0.5991449872430546	-0.113823
C	0.7644446675326949 0.4040466760469328 0.5993712922300087	-0.115523
C	0.9330475077903034 0.2404145694581561 0.6070343776937283	0.098882
C	0.8991452814179639 0.2734243929384052 0.6014430697048133	-0.167192
C	0.9344574010270498 0.8961464924441368 0.1068974283406401	0.102692
C	0.9023915857616787 0.9310476827268288 0.1010902400561463	-0.162405
C	0.7700059313203484 0.0636009736035527 0.0991449872430548	-0.113823
C	0.7355553324673051 0.0959533399530685 0.0993712772300041	-0.115523
C	0.5669524922096966 0.2595854635418431 0.1070344326937295	0.098882
C	0.6008547185820362 0.2265756070615948 0.1014431157048098	-0.167191
C	0.4344574330270453 0.3961465254441354 0.1068974283406401	0.102695
C	0.4023916177616819 0.4310476827268287 0.1010902400561463	-0.162329
C	0.2700058673203503 0.5636010106035519 0.0991449872430548	-0.113820
C	0.2355553004673024 0.5959533899530728 0.0993712772300041	-0.115523
C	0.0669525162096985 0.7595854135418463 0.1070344326937295	0.098939
C	0.1008546945820343 0.7265756400615939 0.1014431157048098	-0.167170
C	0.0655425669729548 0.8961464924441368 0.1068974283406401	0.102689
C	0.0976083902383190 0.9310476827268288 0.1010902400561463	-0.162384
C	0.2299940846796529 0.0636009736035527 0.0991449872430548	-0.113820
C	0.2644446835326961 0.0959533399530685 0.0993712772300041	-0.115524
C	0.4330474757903008 0.2595854635418431 0.1070344326937295	0.098939
C	0.3991452814179640 0.2265756070615948 0.1014431157048098	-0.167170
C	0.5655425989729502 0.3961465254441354 0.1068974283406401	0.102698
C	0.5976084142383213 0.4310476827268287 0.1010902400561463	-0.162350
C	0.7299940686796516 0.5636010106035519 0.0991449872430548	-0.113822
C	0.7644446675326949 0.5959533899530728 0.0993712772300041	-0.115524
C	0.9330475077903034 0.7595854135418463 0.1070344326937295	0.098882
C	0.8991452814179639 0.7265756400615939 0.1014431157048098	-0.167192
C	0.9344574010270498 0.1038534915558622 0.6068974123406390	0.102698
C	0.9023915857616787 0.0689523542731709 0.6010902010561471	-0.162350
C	0.7700059313203484 0.9363989893964481 0.5991449872430546	-0.113823
C	0.7355553324673051 0.9040466100469272 0.5993712922300087	-0.115523
C	0.5669524922096966 0.7404145864581537 0.6070343776937283	0.098883
C	0.6008547185820361 0.7734243599384061 0.6014430697048133	-0.167192
C	0.4344574330270453 0.6038535075558632 0.6068974123406390	0.102688
C	0.4023916177616819 0.5689523172731712 0.6010902010561471	-0.162383
C	0.2700058673203503 0.4363990223964469 0.5991449872430546	-0.113821
C	0.2355553004673024 0.4040466760469328 0.5993712922300087	-0.115523
C	0.0669525162096985 0.2404145694581561 0.6070343776937283	0.098939
C	0.1008546945820343 0.2734243929384052 0.6014430697048133	-0.167170
C	0.9344574010270498 0.8961464924441368 0.3931025876593612	0.102692
C	0.9023915857616787 0.9310476827268288 0.3989097369438483	-0.162405
C	0.7700059313203484 0.0636009736035527 0.4008550437569441	-0.113822
C	0.7355553324673051 0.0959533399530685 0.4006287387699901	-0.115524
C	0.5669524922096966 0.2595854635418431 0.3929655593062700	0.098882
C	0.6008547185820362 0.2265756070615948 0.3985568992951880	-0.167191
C	0.4344574330270453 0.3961465254441354 0.3931025876593612	0.102695
C	0.4023916177616819 0.4310476827268287 0.3989097369438483	-0.162329
C	0.2700058673203503 0.5636010106035519 0.4008550437569441	-0.113820
C	0.2355553004673024 0.5959533899530728 0.4006287387699901	-0.115524
C	0.0669525162096985 0.7595854135418463 0.3929655593062700	0.098939
C	0.1008546945820343 0.7265756400615939 0.3985568992951880	-0.167170
C	0.0655425669729548 0.1038534915558622 0.8931025566593620	0.102694
C	0.0976083902383190 0.0689523542731709 0.8989097049438523	-0.162329
C	0.2299940846796529 0.9363989893964481 0.9008549817569463	-0.113820
C	0.2644446835326961 0.9040466100469272 0.9006287387699903	-0.115523
C	0.4330474757903008 0.7404145864581537 0.8929655283062711	0.098939
C	0.3991452814179640 0.7734243599384061 0.8985568992951877	-0.167171
C	0.5655425989729502 0.6038535075558632 0.8931025566593620	0.102692
C	0.5976084142383213 0.5689523172731712 0.8989097049438523	-0.162404
C	0.7299940686796516 0.4363990223964469 0.9008549817569463	-0.113823
C	0.7644446675326949 0.4040466760469328 0.9006287387699903	-0.115523
C	0.9330475077903034 0.2404145694581561 0.8929655283062711	0.098882
C	0.8991452814179638 0.2734243929384052 0.8985568992951877	-0.167192
C	0.6532286697266811 0.8247017774065031 0.7500000160000013	-0.105295
C	0.8854316175725914 0.0506416770014162 0.7500000160000013	0.160795
C	0.8225416549463289 0.9863116069105311 0.7500000160000013	-0.098313
C	0.6188081491820600 0.7909614725644283 0.7500000160000013	0.169805
C	0.7877566645696693 0.9530278407403187 0.7500000160000013	0.125649
C	0.7177963054812166 0.8872295218755137 0.7500000160000013	0.137656
C	0.6830371922187587 0.8538812033839243 0.7500000160000013	-0.098128
C	0.8521445316239117 0.0157281985680923 0.7500000160000013	-0.105458
C	0.1532286537266801 0.3247017774065028 0.7500000160000013	-0.105297
C	0.3854315215725905 0.5506416890014174 0.7500000160000013	0.160729
C	0.3225416549463292 0.4863116069105311 0.7500000160000013	-0.098263
C	0.1188081411820592 0.2909614725644282 0.7500000160000013	0.169802
C	0.2877566325696742 0.4530278407403182 0.7500000160000013	0.125632
C	0.2177962894812155 0.3872295548755129 0.7500000160000013	0.137656
C	0.1830371592187597 0.3538811703839251 0.7500000160000013	-0.098127
C	0.3521444996239093 0.5157281935680884 0.7500000160000013	-0.105439
C	0.3467713622733212 0.1752982225934972 0.2500000000000000	-0.105297
C	0.1145684544274147 0.9493583109985826 0.2500000000000000	0.160729
C	0.1774583450536709 0.0136883890894686 0.2500000000000000	-0.098262
C	0.3811918508179399 0.2090385114355704 0.2500000000000000	0.169802
C	0.2122433514303317 0.0469721512596812 0.2500000000000000	0.125631
C	0.2822036945187832 0.1127704371244866 0.2500000000000000	0.137656
C	0.3169628407812403 0.1461187966160758 0.2500000000000000	-0.098127
C	0.1478555003760908 0.9842717734319124 0.2500000000000000	-0.105439
C	0.8467713302733189 0.6752982225934969 0.2500000000000000	-0.105294
C	0.6145683824274086 0.4493583439985818 0.2500000000000000	0.160795
C	0.6774583450536711 0.5136883930894689 0.2500000000000000	-0.098312
C	0.8811918508179400 0.7090385274355717 0.2500000000000000	0.169804
C	0.7122433354303307 0.5469721922596805 0.2500000000000000	0.125648
C	0.7822036945187834 0.6127704781244863 0.2500000000000000	0.137656
C	0.8169628077812413 0.6461187966160757 0.2500000000000000	-0.098128
C	0.6478554683760883 0.4842717734319126 0.2500000000000000	-0.105459
C	0.3467713622733212 0.8247017774065031 0.7500000160000013	-0.105297
C	0.1145684544274147 0.0506416770014162 0.7500000160000013	0.160710
C	0.1774583450536709 0.9863116069105311 0.7500000160000013	-0.098263
C	0.3811918508179399 0.7909614725644283 0.7500000160000013	0.169802
C	0.2122433514303317 0.9530278407403187 0.7500000160000013	0.125632
C	0.2822036945187832 0.8872295218755137 0.7500000160000013	0.137656
C	0.3169628407812403 0.8538812033839243 0.7500000160000013	-0.098127
C	0.1478555003760908 0.0157281985680923 0.7500000160000013	-0.105437
C	0.8467713302733189 0.3247017774065028 0.7500000160000013	-0.105295
C	0.6145683824274086 0.5506416890014174 0.7500000160000013	0.160814
C	0.6774583450536711 0.4863116069105311 0.7500000160000013	-0.098313
C	0.8811918508179400 0.2909614725644282 0.7500000160000013	0.169805
C	0.7122433354303307 0.4530278407403182 0.7500000160000013	0.125649
C	0.7822036945187834 0.3872295548755129 0.7500000160000013	0.137656
C	0.8169628077812413 0.3538811703839251 0.7500000160000013	-0.098128
C	0.6478554683760883 0.5157281935680884 0.7500000160000013	-0.105459
C	0.6532286697266811 0.1752982225934972 0.2500000000000000	-0.105294
C	0.8854316175725914 0.9493583109985826 0.2500000000000000	0.160814
C	0.8225416549463289 0.0136883890894686 0.2500000000000000	-0.098312
C	0.6188081491820600 0.2090385114355704 0.2500000000000000	0.169804
C	0.7877566645696693 0.0469721512596812 0.2500000000000000	0.125648
C	0.7177963054812166 0.1127704371244866 0.2500000000000000	0.137656
C	0.6830371922187587 0.1461187966160758 0.2500000000000000	-0.098128
C	0.8521445316239117 0.9842717734319124 0.2500000000000000	-0.105460
C	0.1532286537266801 0.6752982225934969 0.2500000000000000	-0.105296
C	0.3854315215725905 0.4493583439985818 0.2500000000000000	0.160710
C	0.3225416549463292 0.5136883930894689 0.2500000000000000	-0.098262
C	0.1188081411820592 0.7090385274355717 0.2500000000000000	0.169802
C	0.2877566325696742 0.5469721922596805 0.2500000000000000	0.125632
C	0.2177962894812155 0.6127704781244863 0.2500000000000000	0.137656
C	0.1830371592187597 0.6461187966160757 0.2500000000000000	-0.098128
C	0.3521444996239093 0.4842717734319126 0.2500000000000000	-0.105438
H	0.9476479863370700 0.1183166357042146 0.0070992836986121	0.091768
H	0.8906024173058918 0.0561825164003788 0.0179944264739892	0.123309
H	0.7838062357161686 0.9493603520562371 0.0169015252287585	0.106112
H	0.7217856307230258 0.8911468174838953 0.0166536625471402	0.115324
H	0.5529263334565383 0.7268663002059209 0.0070466989300151	0.090994
H	0.6132145902969071 0.7854321775906874 0.0177262207539671	0.129005
H	0.4476480823370709 0.6183166517042158 0.0070992836986121	0.091771
H	0.3906023533058933 0.5561825454003847 0.0179944264739892	0.123309
H	0.2838062357161681 0.4493603520562369 0.0169015252287585	0.106113
H	0.2217856467230268 0.3911469164838995 0.0166536625471402	0.115324
H	0.0529263414565388 0.2268663492059216 0.0070466989300151	0.090982
H	0.1132146062969014 0.2854321115906894 0.0177262207539671	0.129001
H	0.0523519536629250 0.8816833482957842 0.5070993126986109	0.091771
H	0.1093976306941053 0.9438174545996153 0.5179944614739884	0.123310
H	0.2161937962838343 0.0506396649437681 0.5169015572287609	0.106112
H	0.2782143692769747 0.1088531085161061 0.5166536585471400	0.115324
H	0.4470736665434619 0.2731336337940805 0.5070466989300151	0.090982
H	0.3867854097030929 0.2145678394093103 0.5177262517539664	0.129001
H	0.5523520136629300 0.3816833482957840 0.5070993126986109	0.091768
H	0.6093975826941082 0.4438174875996215 0.5179944614739884	0.123310
H	0.7161937642838314 0.5506396479437629 0.5169015572287609	0.106112
H	0.7782143692769742 0.6088531825161047 0.5166536585471400	0.115324
H	0.9470736665434617 0.7731336997940791 0.5070466989300151	0.090994
H	0.8867854097030929 0.7145678224093126 0.5177262517539664	0.129005
H	0.0523519536629250 0.1183166357042146 0.4929007183013882	0.091768
H	0.1093976306941053 0.0561825164003788 0.4820055385260045	0.123303
H	0.2161937962838343 0.9493603520562371 0.4830984747712414	0.106113
H	0.2782143692769747 0.8911468174838953 0.4833463414528602	0.115324
H	0.4470736665434619 0.7268663002059209 0.4929533330699875	0.090982
H	0.3867854097030929 0.7854321775906874 0.4822737792460330	0.129002
H	0.5523520136629300 0.6183166517042158 0.4929007183013882	0.091771
H	0.6093975826941082 0.5561825454003847 0.4820055385260045	0.123315
H	0.7161937642838314 0.4493603520562369 0.4830984747712414	0.106112
H	0.7782143692769742 0.3911469164838995 0.4833463414528602	0.115324
H	0.9470736665434617 0.2268663492059216 0.4929533330699875	0.090994
H	0.8867854097030929 0.2854321115906894 0.4822737792460330	0.129005
H	0.9476479863370700 0.8816833482957842 0.9929007183013882	0.091771
H	0.8906024173058918 0.9438174545996153 0.9820055075260055	0.123316
H	0.7838062357161686 0.0506396649437681 0.9830984747712418	0.106112
H	0.7217856307230258 0.1088531085161061 0.9833463104528539	0.115324
H	0.5529263334565383 0.2731336337940805 0.9929533010699849	0.090994
H	0.6132145902969071 0.2145678394093103 0.9822737792460327	0.129005
H	0.4476480823370709 0.3816833482957840 0.9929007183013882	0.091768
H	0.3906023533058933 0.4438174875996215 0.9820055075260055	0.123304
H	0.2838062357161681 0.5506396479437629 0.9830984747712418	0.106113
H	0.2217856467230268 0.6088531825161047 0.9833463104528539	0.115324
H	0.0529263414565388 0.7731336997940791 0.9929533010699849	0.090982
H	0.1132146062969014 0.7145678224093126 0.9822737792460327	0.129001
H	0.0523519536629250 0.8816833482957842 0.9929007183013882	0.091772
H	0.1093976306941053 0.9438174545996153 0.9820055075260055	0.123310
H	0.2161937962838343 0.0506396649437681 0.9830984747712418	0.106113
H	0.2782143692769747 0.1088531085161061 0.9833463104528539	0.115326
H	0.4470736665434619 0.2731336337940805 0.9929533010699849	0.090982
H	0.3867854097030929 0.2145678394093103 0.9822737792460327	0.129001
H	0.5523520136629300 0.3816833482957840 0.9929007183013882	0.091768
H	0.6093975826941082 0.4438174875996215 0.9820055075260055	0.123309
H	0.7161937642838314 0.5506396479437629 0.9830984747712418	0.106112
H	0.7782143692769742 0.6088531825161047 0.9833463104528539	0.115326
H	0.9470736665434617 0.7731336997940791 0.9929533010699849	0.090994
H	0.8867854097030929 0.7145678224093126 0.9822737792460327	0.129005
H	0.9476479863370700 0.1183166357042146 0.4929007183013881	0.091768
H	0.8906024173058918 0.0561825164003788 0.4820055385260045	0.123309
H	0.7838062357161686 0.9493603520562371 0.4830984747712414	0.106112
H	0.7217856307230258 0.8911468174838953 0.4833463414528602	0.115326
H	0.5529263334565383 0.7268663002059209 0.4929533330699875	0.090994
H	0.6132145902969071 0.7854321775906874 0.4822737792460330	0.129005
H	0.4476480823370709 0.6183166517042158 0.4929007183013881	0.091771
H	0.3906023533058933 0.5561825454003847 0.4820055385260045	0.123309
H	0.2838062357161681 0.4493603520562369 0.4830984747712414	0.106113
H	0.2217856467230268 0.3911469164838995 0.4833463414528602	0.115326
H	0.0529263414565388 0.2268663492059216 0.4929533330699875	0.090982
H	0.1132146062969014 0.2854321115906894 0.4822737792460330	0.129002
H	0.9476479863370700 0.8816833482957842 0.5070993126986109	0.091771
H	0.8906024173058918 0.9438174545996153 0.5179944614739884	0.123315
H	0.7838062357161686 0.0506396649437681 0.5169015572287609	0.106112
H	0.7217856307230258 0.1088531085161061 0.5166536585471400	0.115326
H	0.5529263334565383 0.2731336337940805 0.5070466989300151	0.090994
H	0.6132145902969071 0.2145678394093103 0.5177262517539664	0.129005
H	0.4476480823370709 0.3816833482957840 0.5070993126986109	0.091768
H	0.3906023533058933 0.4438174875996215 0.5179944614739884	0.123303
H	0.2838062357161681 0.5506396479437629 0.5169015572287609	0.106113
H	0.2217856467230268 0.6088531825161047 0.5166536585471400	0.115326
H	0.0529263414565388 0.7731336997940791 0.5070466989300151	0.090982
H	0.1132146062969014 0.7145678224093126 0.5177262517539664	0.129001
H	0.0523519536629250 0.1183166357042146 0.0070992836986121	0.091768
H	0.1093976306941053 0.0561825164003788 0.0179944264739892	0.123303
H	0.2161937962838343 0.9493603520562371 0.0169015252287585	0.106113
H	0.2782143692769747 0.8911468174838953 0.0166536625471402	0.115326
H	0.4470736665434619 0.7268663002059209 0.0070466989300151	0.090982
H	0.3867854097030929 0.7854321775906874 0.0177262207539671	0.129002
H	0.5523520136629300 0.6183166517042158 0.0070992836986121	0.091771
H	0.6093975826941082 0.5561825454003847 0.0179944264739892	0.123315
H	0.7161937642838314 0.4493603520562369 0.0169015252287585	0.106112
H	0.7782143692769742 0.3911469164838995 0.0166536625471402	0.115326
H	0.9470736665434617 0.2268663492059216 0.0070466989300151	0.090994
H	0.8867854097030929 0.2854321115906894 0.0177262207539671	0.129005
Co	0.5000000000000000 0.6728503237143156 0.7500000160000013	0.588176
Co	0.0000000000000000 0.1728503407143139 0.7500000160000013	0.588193
Co	0.5000000000000000 0.3271496762856842 0.2500000000000000	0.588193
Co	0.0000000000000000 0.8271496762856844 0.2500000000000000	0.588176
Sn	0.5000000000000000 0.6729463860559521 0.2500000000000000	1.842101
Sn	0.0000000000000000 0.1729463860559521 0.2500000000000000	1.842101
Sn	0.5000000000000000 0.3270536459440505 0.7500000160000013	1.842101
Sn	0.0000000000000000 0.8270536139440479 0.7500000160000013	1.842101
F	0.5000000000000000 0.7416029145100871 0.2500000000000000	-0.554844
F	0.5000000000000000 0.6043089771886021 0.2500000000000000	-0.551859
F	0.0000000000000000 0.2416028655100861 0.2500000000000000	-0.554844
F	0.0000000000000000 0.1043089611886008 0.2500000000000000	-0.551858
F	0.5000000000000000 0.2583971344899140 0.7500000160000013	-0.554844
F	0.5000000000000000 0.3956909898113987 0.7500000160000013	-0.551858
F	0.0000000000000000 0.7583970854899129 0.7500000160000013	-0.554844
F	0.0000000000000000 0.8956910228113979 0.7500000160000013	-0.551859
F	0.5667308074091094 0.6729656232878507 0.2500000000000000	-0.554847
F	0.0667308274091110 0.1729656562878502 0.2500000000000000	-0.554846
F	0.4332691605908880 0.3270343107121508 0.7500000160000013	-0.554846
F	0.9332691925908906 0.8270343767121493 0.7500000160000013	-0.554847
F	0.4332691605908880 0.6729656232878507 0.2500000000000000	-0.554845
F	0.9332691925908906 0.1729656562878502 0.2500000000000000	-0.554848
F	0.5667308074091094 0.3270343107121508 0.7500000160000013	-0.554848
F	0.0667308274091110 0.8270343767121493 0.7500000160000013	-0.554845
F	0.5000000000000000 0.6728935973884074 0.5061459346777077	-0.515045
F	0.0000000000000000 0.1728936143884056 0.5061459346777077	-0.515048
F	0.5000000000000000 0.3271064356115915 0.0061459346777075	-0.515048
F	0.0000000000000000 0.8271064026115926 0.0061459346777076	-0.515045
F	0.5000000000000000 0.6728935973884074 -0.0061459386777079	-0.515045
F	0.0000000000000000 0.1728936143884056 -0.0061459386777079	-0.515048
F	0.5000000000000000 0.3271064356115915 0.4938540333222969	-0.515048
F	0.0000000000000000 0.8271064026115926 0.4938540333222969	-0.515045
N	0.5499002982466268 0.7237478205954280 0.7500000160000013	-0.187944
N	0.9505851722330902 0.1214033074738746 0.7500000160000013	-0.189073
N	0.0499002622466241 0.2237478045954268 0.7500000160000013	-0.188081
N	0.4505851722330904 0.6214032914738735 0.7500000160000013	-0.188980
N	0.4500997657533711 0.2762521794045718 0.2500000000000000	-0.188081
N	0.0494148357669104 0.8785967085261265 0.2500000000000000	-0.188980
N	0.9500997017533732 0.7762521794045720 0.2500000000000000	-0.187943
N	0.5494148277669098 0.3785967085261265 0.2500000000000000	-0.189073
N	0.4500997657533711 0.7237478205954280 0.7500000160000013	-0.188079
N	0.0494148357669104 0.1214033074738746 0.7500000160000013	-0.189066
N	0.9500997017533732 0.2237478045954268 0.7500000160000013	-0.187945
N	0.5494148277669098 0.6214032914738735 0.7500000160000013	-0.188986
N	0.5499002982466268 0.2762521794045718 0.2500000000000000	-0.187945
N	0.9505851722330902 0.8785967085261265 0.2500000000000000	-0.188986
N	0.0499002622466241 0.7762521794045720 0.2500000000000000	-0.188079
N	0.4505851722330904 0.3785967085261265 0.2500000000000000	-0.189066
	  	
