#======================================================================

# CRYSTAL DATA

#----------------------------------------------------------------------

data_VESTA_phase_1


_pd_phase_name                         SnFSIX_14_Cu_i
_cell_length_a                         13.11595
_cell_length_b                         13.10138
_cell_length_c                         8.43484
_cell_angle_alpha                      89.93455
_cell_angle_beta                       89.89873
_cell_angle_gamma                      88.98357
_symmetry_space_group_name_H-M         P 1
_symmetry_Int_Tables_number            1

loop_
_symmetry_equiv_pos_as_xyz
   x, y, z

loop_
   _atom_site_label
   _atom_site_fract_x
   _atom_site_fract_y
   _atom_site_fract_z
   _atom_site_charge
C	0.5697366510644121 0.2648226819204254 0.3594298277588819	-0.174960
C	0.4641049665885200 0.2699629592248628 0.3638150929751222	0.108521
C	0.9424061408187168 0.2875543935058530 0.4133840584655750	-0.160206
C	0.0478218218966638 0.2806457009035525 0.3991545388876637	0.116189
C	0.2628162988501168 0.5696533127033074 0.3622791554455471	-0.176942
C	0.2679203817463188 0.4638543809482301 0.3665828379368758	0.108950
C	0.2957839230624429 0.9424919995908756 0.4091490957261565	-0.160407
C	0.2873490392915853 0.0479624163610895 0.3958649172847948	0.113654
C	0.9303836259275772 0.2376640840106260 0.1385311972797962	-0.175902
C	0.0360421656682549 0.2330332840100771 0.1339267537870032	0.108036
C	0.5575991937308853 0.2075330897263528 0.0881378636587072	-0.158419
C	0.4521698012090137 0.2150357193626183 0.1020385842931433	0.114474
C	0.2088382880593192 0.5575828719419108 0.0894006195605124	-0.160882
C	0.2167373382039834 0.4521304552577820 0.1030124171197118	0.113775
C	0.2346245000210300 0.9302877189396156 0.1399984742626020	-0.175389
C	0.2291541726379925 0.0360548012762512 0.1358397768022892	0.109511
C	0.4305787029250586 0.7360859546757931 0.6408478055416644	-0.173356
C	0.5361372521819927 0.7337423606384367 0.6349739171107975	0.107623
C	0.0571840160534334 0.7295103481418492 0.5791356602357561	-0.152839
C	0.9517713747465026 0.7309095554129713 0.5955793329394444	0.115858
C	0.7371721555133911 0.4304546265938393 0.6398782116484369	-0.174269
C	0.7343666034233809 0.5361515857803583 0.6343914065893818	0.108622
C	0.7172716041722769 0.0569058237853497 0.5828379676376300	-0.154589
C	0.7216694630575196 0.9513574975515904 0.5983087800783050	0.113784
C	0.0695496934577810 0.7614054733137399 0.8605059196028846	-0.175605
C	0.9639770906356162 0.7627976747810236 0.8664999076399440	0.107805
C	0.4430805015666958 0.7760921684111270 0.9196558157511424	-0.153677
C	0.5485034551474414 0.7738782294023516 0.9031772597752309	0.117259
C	0.7771958368392142 0.4427906587776125 0.9186733049150054	-0.156045
C	0.7736286946456058 0.5483296637247522 0.9029450087930899	0.115754
C	0.7653218172714721 0.0692834433326353 0.8585011627427410	-0.172969
C	0.7689541665212593 0.9635979279430279 0.8636746610160303	0.108154
C	0.6177353474802806 0.2343944239230168 0.2177885249734290	0.193728
C	0.8823335551404450 0.2640794685994839 0.2820036131339660	0.194926
C	0.2340458676942162 0.6176933781362250 0.2199942406583591	0.196844
C	0.2672190480381240 0.8823124828602017 0.2803973276640760	0.194288
C	0.3828134257399783 0.7570719257247855 0.7868063666816518	0.192535
C	0.1173728809816293 0.7449756255060846 0.7132624597933250	0.193277
C	0.7582207075625281 0.3825679405717065 0.7856228517804490	0.195421
C	0.7397975965918648 0.1171651768447684 0.7144273188880830	0.191726
H	0.6141496220095720 0.2809809007507011 0.4649632025273130	0.108790
H	0.4235531757554490 0.2920395151621382 0.4715708888625554	0.102757
H	0.9077374142996287 0.3100951528489886 0.5255170559385725	0.130671
H	0.0967280330548915 0.2982404689110961 0.4990953929788463	0.096862
H	0.2776163964958482 0.6142901697566714 0.4681757638275824	0.112235
H	0.2885487988449929 0.4231583621657924 0.4748642276442165	0.102533
H	0.3231105699425349 0.9078271185374854 0.5186855940909848	0.130788
H	0.3081072064720558 0.0970079338660447 0.4942188132858613	0.098267
H	0.8859503397364368 0.2242238247584870 0.0319938055099195	0.109307
H	0.0766866006507936 0.2139972299420985 0.0249202061701712	0.102316
H	0.5922068549976955 0.1817828103903040 0.9776021062124165	0.130783
H	0.4031869937503297 0.1948500959052405 0.0033964451024697	0.097423
H	0.1845966345539886 0.5923063916788737 0.9781949138839381	0.129708
H	0.1983623075317608 0.4032015125900910 0.0033486248620781	0.097463
H	0.2171267860952278 0.8856497308878031 0.0352070683084984	0.111498
H	0.2056938720153591 0.0766683790007312 0.0288455123798563	0.102783
H	0.3864239705230526 0.7240562577194884 0.5335721735993514	0.104159
H	0.5767110151857496 0.7179304785723734 0.5248101693159424	0.103325
H	0.0916403386007273 0.7164372324540149 0.4634369071482412	0.129627
H	0.9029370668583224 0.7174443745262895 0.4941453244934642	0.094643
H	0.7260018382768354 0.3861351984382452 0.5324311040233449	0.105472
H	0.7188534344348574 0.5768608860502867 0.5242529223606026	0.103651
H	0.6965473043878162 0.0914397396117723 0.4698694781137001	0.130406
H	0.7033688032614934 0.9024213139696790 0.4987433708140274	0.095952
H	0.1137185301740084 0.7706863142907467 0.9685276333468831	0.104486
H	0.9233468879338251 0.7750360660593550 0.9776596395598940	0.103467
H	0.4087008722114995 0.7926382678839157 0.0343692680116688	0.129917
H	0.5974075503900906 0.7902294610003920 0.0034793628797488	0.094382
H	0.7943792488141836 0.4082299743359367 0.0330055171271750	0.129815
H	0.7890835419647568 0.5972561241322251 0.0037219211956445	0.095276
H	0.7793093791043710 0.1135566519929508 0.9650925967072348	0.105489
H	0.7879414619861663 0.9229276580729410 0.9725858958873904	0.104289
N	0.7753372340699582 0.2733382021419133 0.3008320755472453	-0.101457
N	0.2778091820475582 0.7751481144959573 0.2977216506769991	-0.102801
N	0.7247874439329065 0.2246912373399327 0.1990559464434871	-0.101789
N	0.2238100448619217 0.7247956150816366 0.2025797934196687	-0.102026
N	0.2241974643843429 0.7398511328410046 0.6896173797149593	-0.101029
N	0.7318768610406347 0.2241563256690949 0.6927288721764694	-0.099854
N	0.2759616270375571 0.7627981973700525 0.8103984653548156	-0.100544
N	0.7655261081439900 0.2756225305196962 0.8074894963362163	-0.102024
N	0.4062805127402461 0.2462591273964218 0.2370452702565748	-0.216565
N	0.0938252171341490 0.2533534508352543 0.2622354635280403	-0.216934
N	0.2461418568447399 0.4060762763052502 0.2388590300883938	-0.217696
N	0.2542203092554478 0.0938768356047125 0.2619584045601560	-0.217746
N	0.5941707786540799 0.7524150888844636 0.7638142115468807	-0.215076
N	0.9059972829295460 0.7478033644135882 0.7363456820331964	-0.214516
N	0.7521939976269177 0.5941404077157716 0.7636558306912757	-0.216244
N	0.7475121103801994 0.9055999376233625 0.7358544886542042	-0.214746
F	0.3580006557440927 0.1383330766223843 0.7504608120826403	-0.568035
F	0.1440033542614152 0.3603554622635051 0.7494932434236695	-0.568824
F	0.3590716537986566 0.3534714688562945 0.7664549394566765	-0.577242
F	0.1428719638653592 0.1449913698684712 0.7331365284023150	-0.577305
F	0.6396549995122068 0.8591019965106262 0.2511212270444062	-0.565937
F	0.8586657601912049 0.6426862647988991 0.2491736943127462	-0.567461
F	0.6440010278884014 0.6445374930653562 0.2257205154294344	-0.573619
F	0.8543185345435311 0.8574716979303534 0.2738999489005270	-0.573554
F	0.2613780981501291 0.2592774001692154 0.5108901096966731	-0.555880
F	0.2398392806102764 0.2393594032818179 0.9890250527155715	-0.555863
F	0.7372674873914580 0.7377903473392542 0.4885447498432031	-0.553562
F	0.7618762564727092 0.7632174403966837 0.0113219640809984	-0.553897
Sn	0.2509621755568210 0.2492504032995173 0.7499757127617753	1.867972
Sn	0.7492061253258371 0.7509456244150574 0.2499335584081339	1.864820
Cu	0.2500500425166546 0.2499777838065004 0.2500316775155506	0.709823
Cu	0.7500628636081978 0.7498782877586742 0.7498868818922846	0.706813
	  	
