#======================================================================

# CRYSTAL DATA

#----------------------------------------------------------------------

data_VESTA_phase_1


_pd_phase_name                         SnFSIX_3_Fe
_cell_length_a                         14.46775
_cell_length_b                         14.46775
_cell_length_c                         8.12111
_cell_angle_alpha                      90
_cell_angle_beta                       90
_cell_angle_gamma                      90
_symmetry_space_group_name_H-M         P 1
_symmetry_Int_Tables_number            1

loop_
_symmetry_equiv_pos_as_xyz
   x, y, z

loop_
   _atom_site_label
   _atom_site_fract_x
   _atom_site_fract_y
   _atom_site_fract_z
   _atom_site_charge
C	0.2701225825775493 0.4518683684674752 0.6369613017498778	0.066196
C	0.2298774174224505 0.0481316355325252 0.6369613017498778	0.066197
C	0.2298774174224505 0.4518683684674752 0.3630386662501200	0.066199
C	0.2701225825775493 0.0481316355325252 0.3630386662501200	0.066200
C	0.0481316355325252 0.2701225825775493 0.3630386662501200	0.066202
C	0.4518683684674752 0.2298774174224505 0.3630386662501200	0.066201
C	0.4518683684674752 0.2701225825775493 0.6369613017498778	0.066204
C	0.0481316355325252 0.2298774174224505 0.6369613017498778	0.066205
C	0.9518683004674768 0.2298774174224505 0.6369613017498778	0.066219
C	0.5481316995325232 0.2701225825775493 0.6369613017498778	0.066220
C	0.5481316995325232 0.2298774174224505 0.3630386662501200	0.066222
C	0.9518683004674768 0.2701225825775493 0.3630386662501200	0.066222
C	0.7298774344224486 0.0481316355325252 0.3630386662501200	0.066202
C	0.7701225655775514 0.4518683684674752 0.3630386662501200	0.066201
C	0.7701225655775514 0.0481316355325252 0.6369613017498778	0.066205
C	0.7298774344224486 0.4518683684674752 0.6369613017498778	0.066204
C	0.4518683684674752 0.7298774344224486 0.6369613017498778	0.066197
C	0.0481316355325252 0.7701225655775514 0.6369613017498778	0.066198
C	0.0481316355325252 0.7298774344224486 0.3630386662501200	0.066200
C	0.4518683684674752 0.7701225655775514 0.3630386662501200	0.066200
C	0.2298774174224505 0.5481316995325232 0.3630386662501200	0.066225
C	0.2701225825775493 0.9518683004674768 0.3630386662501200	0.066224
C	0.2701225825775493 0.5481316995325232 0.6369613017498778	0.066227
C	0.2298774174224505 0.9518683004674768 0.6369613017498778	0.066227
C	0.7701225655775514 0.9518683004674768 0.6369613017498778	0.066220
C	0.7298774344224486 0.5481316995325232 0.6369613017498778	0.066220
C	0.7298774344224486 0.9518683004674768 0.3630386662501200	0.066222
C	0.7701225655775514 0.5481316995325232 0.3630386662501200	0.066223
C	0.5481316995325232 0.7701225655775514 0.3630386662501200	0.066225
C	0.9518683004674768 0.7298774344224486 0.3630386662501200	0.066224
C	0.9518683004674768 0.7701225655775514 0.6369613017498778	0.066227
C	0.5481316995325232 0.7298774344224486 0.6369613017498778	0.066227
H	0.2871588037681659 0.4139360878005598 0.7490405928203745	0.104732
H	0.2128411622318312 0.0860639121994403 0.7490405928203745	0.104732
H	0.2128411622318312 0.4139360878005598 0.2509593761796259	0.104732
H	0.2871588037681659 0.0860639121994403 0.2509593761796259	0.104732
H	0.0860639121994403 0.2871588037681659 0.2509593761796259	0.104731
H	0.4139360878005598 0.2128411622318312 0.2509593761796259	0.104732
H	0.4139360878005598 0.2871588037681659 0.7490405928203745	0.104731
H	0.0860639121994403 0.2128411622318312 0.7490405928203745	0.104731
H	0.9139361558005653 0.2128411622318312 0.7490405928203745	0.104729
H	0.5860638441994347 0.2871588037681659 0.7490405928203745	0.104729
H	0.5860638441994347 0.2128411622318312 0.2509593761796259	0.104729
H	0.9139361558005653 0.2871588037681659 0.2509593761796259	0.104729
H	0.7128411282318355 0.0860639121994403 0.2509593761796259	0.104732
H	0.7871588717681645 0.4139360878005598 0.2509593761796259	0.104732
H	0.7871588717681645 0.0860639121994403 0.7490405928203745	0.104731
H	0.7128411282318355 0.4139360878005598 0.7490405928203745	0.104731
H	0.4139360878005598 0.7128411282318355 0.7490405928203745	0.104732
H	0.0860639121994403 0.7871588717681645 0.7490405928203745	0.104732
H	0.0860639121994403 0.7128411282318355 0.2509593761796259	0.104732
H	0.4139360878005598 0.7871588717681645 0.2509593761796259	0.104732
H	0.2128411622318312 0.5860638441994347 0.2509593761796259	0.104729
H	0.2871588037681659 0.9139361558005653 0.2509593761796259	0.104728
H	0.2871588037681659 0.5860638441994347 0.7490405928203745	0.104728
H	0.2128411622318312 0.9139361558005653 0.7490405928203745	0.104728
H	0.7871588717681645 0.9139361558005653 0.7490405928203745	0.104729
H	0.7128411282318355 0.5860638441994347 0.7490405928203745	0.104729
H	0.7128411282318355 0.9139361558005653 0.2509593761796259	0.104729
H	0.7871588717681645 0.5860638441994347 0.2509593761796259	0.104729
H	0.5860638441994347 0.7871588717681645 0.2509593761796259	0.104728
H	0.9139361558005653 0.7128411282318355 0.2509593761796259	0.104729
H	0.9139361558005653 0.7871588717681645 0.7490405928203745	0.104728
H	0.5860638441994347 0.7128411282318355 0.7490405928203745	0.104728
Fe	0.2500000000000000 0.2500000000000000 0.5000000000000000	0.791928
Fe	0.7500000340000028 0.2500000000000000 0.5000000000000000	0.791930
Fe	0.2500000000000000 0.7500000340000028 0.5000000000000000	0.791930
Fe	0.7500000340000028 0.7500000340000028 0.5000000000000000	0.791931
Sn	0.2500000000000000 0.2500000000000000 0.0000000000000000	1.857580
Sn	0.7500000340000028 0.2500000000000000 0.0000000000000000	1.857580
Sn	0.2500000000000000 0.7500000340000028 0.0000000000000000	1.857580
Sn	0.7500000340000028 0.7500000340000028 0.0000000000000000	1.857580
F	0.2500000000000000 0.2500000000000000 0.7453305666579741	-0.505452
F	0.2500000000000000 0.2500000000000000 0.2546694333420255	-0.505452
F	0.3463353511864645 0.3463353511864645 -0.0136085659513538	-0.540415
F	0.1536646488135353 0.1536646488135353 -0.0136085659513538	-0.540413
F	0.1536646488135353 0.3463353511864645 0.0136085869513519	-0.540413
F	0.3463353511864645 0.1536646488135353 0.0136085869513519	-0.540413
F	0.7500000340000028 0.2500000000000000 0.7453305666579743	-0.505453
F	0.7500000340000028 0.2500000000000000 0.2546694333420254	-0.505453
F	0.8463353851864673 0.3463353511864645 0.0136085869513519	-0.540415
F	0.6536646148135327 0.1536646488135353 0.0136085869513519	-0.540413
F	0.6536646148135327 0.3463353511864645 -0.0136085659513538	-0.540414
F	0.8463353851864673 0.1536646488135353 -0.0136085659513538	-0.540415
F	0.2500000000000000 0.7500000340000028 0.7453305666579743	-0.505453
F	0.2500000000000000 0.7500000340000028 0.2546694333420255	-0.505453
F	0.3463353511864645 0.8463353851864673 0.0136085869513519	-0.540415
F	0.1536646488135353 0.6536646148135327 0.0136085869513519	-0.540413
F	0.1536646488135353 0.8463353851864673 -0.0136085659513538	-0.540415
F	0.3463353511864645 0.6536646148135327 -0.0136085659513538	-0.540414
F	0.7500000340000028 0.7500000340000028 0.7453305666579741	-0.505453
F	0.7500000340000028 0.7500000340000028 0.2546694333420255	-0.505453
F	0.8463353851864673 0.8463353851864673 -0.0136085659513538	-0.540417
F	0.6536646148135327 0.6536646148135327 -0.0136085659513538	-0.540414
F	0.6536646148135327 0.8463353851864673 0.0136085869513519	-0.540415
F	0.8463353851864673 0.6536646148135327 0.0136085869513519	-0.540415
N	0.4033725528304684 0.2500000000000000 0.5000000000000000	-0.211119
N	0.0966274471695316 0.2500000000000000 0.5000000000000000	-0.211119
N	0.2500000000000000 0.4033725528304684 0.5000000000000000	-0.211117
N	0.2500000000000000 0.0966274471695316 0.5000000000000000	-0.211117
N	0.9033725528304681 0.2500000000000000 0.5000000000000000	-0.211124
N	0.5966274471695319 0.2500000000000000 0.5000000000000000	-0.211123
N	0.7500000340000028 0.4033725528304684 0.5000000000000000	-0.211119
N	0.7500000340000028 0.0966274471695316 0.5000000000000000	-0.211118
N	0.4033725528304684 0.7500000340000028 0.5000000000000000	-0.211118
N	0.0966274471695316 0.7500000340000028 0.5000000000000000	-0.211118
N	0.2500000000000000 0.9033725528304681 0.5000000000000000	-0.211124
N	0.2500000000000000 0.5966274471695319 0.5000000000000000	-0.211123
N	0.9033725528304681 0.7500000340000028 0.5000000000000000	-0.211125
N	0.5966274471695319 0.7500000340000028 0.5000000000000000	-0.211124
N	0.7500000340000028 0.9033725528304681 0.5000000000000000	-0.211123
N	0.7500000340000028 0.5966274471695319 0.5000000000000000	-0.211122
	  	
