#======================================================================

# CRYSTAL DATA

#----------------------------------------------------------------------

data_VESTA_phase_1


_pd_phase_name                         SnFSIX_2_Cu
_cell_length_a                         13.72612
_cell_length_b                         13.72612
_cell_length_c                         8.37086
_cell_angle_alpha                      90
_cell_angle_beta                       90
_cell_angle_gamma                      90
_symmetry_space_group_name_H-M         P 1
_symmetry_Int_Tables_number            1

loop_
_symmetry_equiv_pos_as_xyz
   x, y, z

loop_
   _atom_site_label
   _atom_site_fract_x
   _atom_site_fract_y
   _atom_site_fract_z
   _atom_site_charge
C	0.5307893226404634 0.6988822081063718 0.1295963750317329	0.100197
C	0.5311452172318386 0.7999251876609222 0.1348638103567193	-0.158787
C	0.4692107473595352 0.3011177918936278 0.1295963750317329	0.100194
C	0.4688547477681622 0.2000747943390758 0.1348638103567193	-0.158784
C	0.3011177918936278 0.5307893226404634 0.1295963750317329	0.100197
C	0.2000747943390758 0.5311452172318386 0.1348638103567193	-0.158787
C	0.6988822081063718 0.4692107473595352 0.1295963750317329	0.100195
C	0.7999251876609222 0.4688547477681622 0.1348638103567193	-0.158784
C	0.4692107473595352 0.6988822081063718 0.8704036249682670	0.100197
C	0.4688547477681622 0.7999251876609222 0.8651361596432787	-0.158786
C	0.5307893226404634 0.3011177918936278 0.8704036249682670	0.100195
C	0.5311452172318386 0.2000747943390758 0.8651361596432787	-0.158783
C	0.6988822081063718 0.5307893226404634 0.8704036249682670	0.100195
C	0.7999251876609222 0.5311452172318386 0.8651361596432787	-0.158783
C	0.3011177918936278 0.4692107473595352 0.8704036249682670	0.100198
C	0.2000747943390758 0.4688547477681622 0.8651361596432787	-0.158786
C	0.5000000000000000 0.1472966245435925 -0.0000000000000000	0.169305
C	0.5000000000000000 0.0443677662885032 -0.0000000000000000	-0.089204
C	0.5000000000000000 0.8527033754564074 -0.0000000000000000	0.169274
C	0.5000000000000000 0.9556321767115030 -0.0000000000000000	-0.088955
C	0.8527033754564074 0.5000000000000000 -0.0000000000000000	0.169305
C	0.9556321767115030 0.5000000000000000 -0.0000000000000000	-0.089205
C	0.1472966245435925 0.5000000000000000 -0.0000000000000000	0.169273
C	0.0443677662885032 0.5000000000000000 -0.0000000000000000	-0.088955
H	0.5549193627261328 0.6559104131939921 0.2317959657215144	0.102456
H	0.5556048697907240 0.8372762884068093 0.2422428434199547	0.132912
H	0.4450806372738666 0.3440895168060096 0.2317959657215144	0.102456
H	0.4443951652092753 0.1627236415931920 0.2422428434199547	0.132913
H	0.3440895168060096 0.5549193627261328 0.2317959657215144	0.102456
H	0.1627236415931920 0.5556048697907240 0.2422428434199547	0.132912
H	0.6559104131939921 0.4450806372738666 0.2317959657215144	0.102456
H	0.8372762884068093 0.4443951652092753 0.2422428434199547	0.132913
H	0.4450806372738666 0.6559104131939921 0.7682040342784857	0.102456
H	0.4443951652092753 0.8372762884068093 0.7577571865800479	0.132911
H	0.5549193627261328 0.3440895168060096 0.7682040342784857	0.102456
H	0.5556048697907240 0.1627236415931920 0.7577571865800479	0.132912
H	0.6559104131939921 0.5549193627261328 0.7682040342784857	0.102456
H	0.8372762884068093 0.5556048697907240 0.7577571865800479	0.132912
H	0.3440895168060096 0.4450806372738666 0.7682040342784857	0.102456
H	0.1627236415931920 0.4443951652092753 0.7577571865800479	0.132911
Cu	0.5000000000000000 0.5000000000000000 -0.0000000000000000	0.723280
Sn	0.5000000000000000 0.5000000000000000 0.5000000000000000	1.873572
F	0.5000000000000000 0.5000000000000000 0.7403547222783113	-0.555451
F	0.5000000000000000 0.5000000000000000 0.2596453077216839	-0.555451
F	0.6030576196106814 0.6030576196106814 0.5000000000000000	-0.578694
F	0.3969424153893185 0.6030576196106814 0.5000000000000000	-0.578694
F	0.3969424153893185 0.3969424153893185 0.5000000000000000	-0.578694
F	0.6030576196106814 0.3969424153893185 0.5000000000000000	-0.578694
N	0.5000000000000000 0.3508474019884003 -0.0000000000000000	-0.226562
N	0.5000000000000000 0.6491525630116006 -0.0000000000000000	-0.226561
N	0.6491525630116006 0.5000000000000000 -0.0000000000000000	-0.226562
N	0.3508474019884003 0.5000000000000000 -0.0000000000000000	-0.226561
	  	
