#======================================================================

# CRYSTAL DATA

#----------------------------------------------------------------------

data_VESTA_phase_1


_pd_phase_name                         SnFSIX_2_Zn_i
_cell_length_a                         14.01007
_cell_length_b                         14.01007
_cell_length_c                         8.26168
_cell_angle_alpha                      90
_cell_angle_beta                       90
_cell_angle_gamma                      90
_symmetry_space_group_name_H-M         P 1
_symmetry_Int_Tables_number            1

loop_
_symmetry_equiv_pos_as_xyz
   x, y, z

loop_
   _atom_site_label
   _atom_site_fract_x
   _atom_site_fract_y
   _atom_site_fract_z
   _atom_site_charge
C	-0.0000000000000000 0.3035891113151118 0.3540680336855760	-0.159190
C	-0.0000000000000000 0.2045994196752614 0.3596239871238738	0.110286
C	0.5000000000000000 0.8035891113151113 0.8540680626855747	-0.159190
C	0.5000000000000000 0.7045994376752626 0.8596239871238740	0.110286
C	-0.0000000000000000 0.6964108886848887 0.3540680336855760	-0.159192
C	-0.0000000000000000 0.7954005623247374 0.3596239871238738	0.110289
C	0.5000000000000000 0.1964109056848862 0.8540680626855747	-0.159192
C	0.5000000000000000 0.2954005623247370 0.8596239871238740	0.110289
C	0.6964108886848887 -0.0000000000000000 0.3540680336855760	-0.159189
C	0.7954005623247374 -0.0000000000000000 0.3596239871238738	0.110288
C	0.1964109056848862 0.5000000000000000 0.8540680626855747	-0.159189
C	0.2954005623247370 0.5000000000000000 0.8596239871238740	0.110288
C	0.3035891113151118 -0.0000000000000000 0.3540680336855760	-0.159192
C	0.2045994196752614 -0.0000000000000000 0.3596239871238738	0.110291
C	0.8035891113151113 0.5000000000000000 0.8540680626855747	-0.159192
C	0.7045994376752626 0.5000000000000000 0.8596239871238740	0.110291
C	-0.0000000000000000 0.3035891113151118 0.6459319373144253	-0.159187
C	-0.0000000000000000 0.2045994196752614 0.6403760128761260	0.110287
C	0.5000000000000000 0.8035891113151113 0.1459319663144238	-0.159187
C	0.5000000000000000 0.7045994376752626 0.1403759978761284	0.110287
C	-0.0000000000000000 0.6964108886848887 0.6459319373144253	-0.159189
C	-0.0000000000000000 0.7954005623247374 0.6403760128761260	0.110289
C	0.5000000000000000 0.1964109056848862 0.1459319663144238	-0.159189
C	0.5000000000000000 0.2954005623247370 0.1403759978761284	0.110289
C	0.3035891113151118 -0.0000000000000000 0.6459319373144253	-0.159189
C	0.2045994196752614 -0.0000000000000000 0.6403760128761260	0.110291
C	0.8035891113151113 0.5000000000000000 0.1459319663144238	-0.159189
C	0.7045994376752626 0.5000000000000000 0.1403759978761284	0.110291
C	0.6964108886848887 -0.0000000000000000 0.6459319373144253	-0.159187
C	0.7954005623247374 -0.0000000000000000 0.6403760128761260	0.110288
C	0.1964109056848862 0.5000000000000000 0.1459319663144238	-0.159187
C	0.2954005623247370 0.5000000000000000 0.1403759978761284	0.110288
C	-0.0000000000000000 0.4564549515708656 0.5000000000000000	-0.094624
C	-0.0000000000000000 0.3554086091634066 0.5000000000000000	0.165076
C	0.5000000000000000 0.9564549855708685 0.0000000000000000	-0.094624
C	0.5000000000000000 0.8554085741634075 0.0000000000000000	0.165077
C	-0.0000000000000000 0.5435450484291343 0.5000000000000000	-0.094373
C	-0.0000000000000000 0.6445914258365925 0.5000000000000000	0.165046
C	0.5000000000000000 0.0435450274291291 0.0000000000000000	-0.094373
C	0.5000000000000000 0.1445914258365926 0.0000000000000000	0.165046
C	0.5435450484291343 -0.0000000000000000 0.5000000000000000	-0.094625
C	0.6445914258365925 -0.0000000000000000 0.5000000000000000	0.165077
C	0.0435450274291291 0.5000000000000000 0.0000000000000000	-0.094625
C	0.1445914258365926 0.5000000000000000 0.0000000000000000	0.165077
C	0.4564549515708656 -0.0000000000000000 0.5000000000000000	-0.094372
C	0.3554086091634066 -0.0000000000000000 0.5000000000000000	0.165046
C	0.9564549855708685 0.5000000000000000 0.0000000000000000	-0.094373
C	0.8554085741634075 0.5000000000000000 0.0000000000000000	0.165046
H	-0.0000000000000000 0.3399668828967332 0.2376310008897378	0.122267
H	-0.0000000000000000 0.1631342228104436 0.2483278075636937	0.091174
H	0.5000000000000000 0.8399668828967338 0.7376310008897379	0.122267
H	0.5000000000000000 0.6631341698104425 0.7483278375636959	0.091174
H	-0.0000000000000000 0.6600331171032662 0.2376310008897378	0.122266
H	-0.0000000000000000 0.8368658301895575 0.2483278075636937	0.091175
H	0.5000000000000000 0.1600331171032666 0.7376310008897379	0.122266
H	0.5000000000000000 0.3368657951895509 0.7483278375636959	0.091175
H	0.6600331171032662 -0.0000000000000000 0.2376310008897378	0.122267
H	0.8368658301895575 -0.0000000000000000 0.2483278075636937	0.091174
H	0.1600331171032666 0.5000000000000000 0.7376310008897379	0.122267
H	0.3368657951895509 0.5000000000000000 0.7483278375636959	0.091174
H	0.3399668828967332 -0.0000000000000000 0.2376310008897378	0.122266
H	0.1631342228104436 -0.0000000000000000 0.2483278075636937	0.091174
H	0.8399668828967338 0.5000000000000000 0.7376310008897379	0.122266
H	0.6631341698104425 0.5000000000000000 0.7483278375636959	0.091174
H	-0.0000000000000000 0.3399668828967332 0.7623689991102621	0.122264
H	-0.0000000000000000 0.1631342228104436 0.7516721044363064	0.091174
H	0.5000000000000000 0.8399668828967338 0.2623689991102622	0.122264
H	0.5000000000000000 0.6631341698104425 0.2516721924363061	0.091174
H	-0.0000000000000000 0.6600331171032662 0.7623689991102621	0.122263
H	-0.0000000000000000 0.8368658301895575 0.7516721044363064	0.091175
H	0.5000000000000000 0.1600331171032666 0.2623689991102622	0.122262
H	0.5000000000000000 0.3368657951895509 0.2516721924363061	0.091175
H	0.3399668828967332 -0.0000000000000000 0.7623689991102621	0.122263
H	0.1631342228104436 -0.0000000000000000 0.7516721044363064	0.091174
H	0.8399668828967338 0.5000000000000000 0.2623689991102622	0.122262
H	0.6631341698104425 0.5000000000000000 0.2516721924363061	0.091174
H	0.6600331171032662 -0.0000000000000000 0.7623689991102621	0.122264
H	0.8368658301895575 -0.0000000000000000 0.7516721044363064	0.091174
H	0.1600331171032666 0.5000000000000000 0.2623689991102622	0.122264
H	0.3368657951895509 0.5000000000000000 0.2516721924363061	0.091174
Zn	-0.0000000000000000 -0.0000000000000000 0.5000000000000000	0.741030
Zn	0.5000000000000000 0.5000000000000000 0.0000000000000000	0.741030
Sn	-0.0000000000000000 -0.0000000000000000 0.0000000000000000	1.870141
Sn	0.5000000000000000 0.5000000000000000 0.5000000000000000	1.870141
N	-0.0000000000000000 0.1553485443389032 0.5000000000000000	-0.229428
N	0.5000000000000000 0.6553485263389018 0.0000000000000000	-0.229428
N	-0.0000000000000000 0.8446514736610982 0.5000000000000000	-0.229428
N	0.5000000000000000 0.3446514736610982 0.0000000000000000	-0.229428
N	0.8446514736610982 -0.0000000000000000 0.5000000000000000	-0.229429
N	0.3446514736610983 0.5000000000000000 0.0000000000000000	-0.229429
N	0.1553485443389032 -0.0000000000000000 0.5000000000000000	-0.229429
N	0.6553485263389018 0.5000000000000000 0.0000000000000000	-0.229429
F	-0.0000000000000000 -0.0000000000000000 0.7523469113736254	-0.521168
F	0.5000000000000000 0.5000000000000000 0.2523470003736293	-0.521168
F	-0.0000000000000000 -0.0000000000000000 0.2476530146263755	-0.521168
F	0.5000000000000000 0.5000000000000000 0.7476530886263746	-0.521168
F	0.6001702933667118 0.6001702933667118 0.5000000000000000	-0.562420
F	0.6001702933667118 0.3998297066332881 0.5000000000000000	-0.562420
F	0.3998297066332881 0.6001702933667118 0.5000000000000000	-0.562420
F	0.3998297066332880 0.3998297066332881 0.5000000000000000	-0.562420
F	0.1001703103667096 0.1001703103667097 0.0000000000000000	-0.562420
F	0.8998297066332882 0.8998297066332882 0.0000000000000000	-0.562420
F	0.8998297066332882 0.1001703103667096 0.0000000000000000	-0.562420
F	0.1001703103667096 0.8998297066332882 0.0000000000000000	-0.562420
	  	
