#======================================================================

# CRYSTAL DATA

#----------------------------------------------------------------------

data_VESTA_phase_1


_pd_phase_name                         SnFSIX_7_Zn
_cell_length_a                         19.30878
_cell_length_b                         19.30878
_cell_length_c                         8.26767
_cell_angle_alpha                      90
_cell_angle_beta                       90
_cell_angle_gamma                      90
_symmetry_space_group_name_H-M         P 1
_symmetry_Int_Tables_number            1

loop_
_symmetry_equiv_pos_as_xyz
   x, y, z

loop_
   _atom_site_label
   _atom_site_fract_x
   _atom_site_fract_y
   _atom_site_fract_z
   _atom_site_charge
C	0.6639562074002824 0.8724057553651725 0.6935377716962776	0.103160
C	0.6132815796351001 0.9234123458549230 0.6976194813569007	-0.173828
C	0.5793962437095219 0.8889447024446546 0.4306180734511133	-0.170404
C	0.6303465122746756 0.8383959573593027 0.4364872532460202	0.099765
C	0.8360437925997176 0.6275942446348275 0.6935377716962776	0.103160
C	0.8867184703648969 0.5765877051450776 0.6976194813569007	-0.173828
C	0.9206036552904804 0.6110553485553389 0.4306180734511133	-0.170403
C	0.8696534877253244 0.6616040426406973 0.4364872532460202	0.099764
C	0.6275942446348275 0.6639562074002824 0.6935377716962776	0.103160
C	0.5765877051450776 0.6132815796351001 0.6976194813569007	-0.173828
C	0.6110553485553389 0.5793962437095219 0.4306180734511133	-0.170403
C	0.6616040426406973 0.6303465122746756 0.4364872532460202	0.099765
C	0.8724057553651725 0.8360437925997176 0.6935377716962776	0.103160
C	0.9234123458549230 0.8867184703648969 0.6976194813569007	-0.173828
C	0.8889447024446546 0.9206036552904804 0.4306180734511133	-0.170403
C	0.8383959573593027 0.8696534877253244 0.4364872532460202	0.099764
C	0.3360437675997190 0.3724057053651684 0.3064622583037246	0.103160
C	0.3867184203648998 0.4234123458549225 0.3023805486431018	-0.173828
C	0.4206037562904784 0.3889446514446614 0.5693819265488865	-0.170403
C	0.3696534367253309 0.3383959573593029 0.5635127767539826	0.099764
C	0.1639562324002809 0.1275942816348341 0.3064622583037246	0.103160
C	0.1132815796351001 0.0765876541450773 0.3023805486431018	-0.173828
C	0.0793962247095165 0.1110553485553385 0.5693819265488865	-0.170403
C	0.1303465632746691 0.1616040306406963 0.5635127767539826	0.099764
C	0.3724057053651684 0.1639562324002809 0.3064622583037246	0.103160
C	0.4234123458549225 0.1132815796351001 0.3023805486431018	-0.173827
C	0.3889446514446614 0.0793962247095165 0.5693819265488865	-0.170403
C	0.3383959573593029 0.1303465632746691 0.5635127767539826	0.099765
C	0.1275942816348341 0.3360437675997190 0.3064622583037246	0.103160
C	0.0765876541450773 0.3867184203648998 0.3023805486431018	-0.173827
C	0.1110553485553385 0.4206037562904784 0.5693819265488865	-0.170403
C	0.1616040306406963 0.3696534367253309 0.5635127767539826	0.099765
C	0.4335150570683126 0.0697456863257294 0.4367037999550580	0.141139
C	0.4874708490671022 0.0167549928874231 0.4340496132984933	-0.121478
C	0.0664849429316875 0.4302543066742736 0.4367037999550580	0.141139
C	0.0125291189328952 0.4832449431125788 0.4340496132984933	-0.121478
C	0.4302543066742736 0.4335150570683126 0.4367037999550580	0.141139
C	0.4832449431125788 0.4874708490671022 0.4340496132984933	-0.121478
C	0.0697456863257294 0.0664849429316875 0.4367037999550580	0.141139
C	0.0167549928874231 0.0125291189328952 0.4340496132984933	-0.121478
C	0.5664849429316877 0.5697456933257267 0.5632962000449422	0.141137
C	0.5125292019328915 0.5167550068874173 0.5659504157015056	-0.121461
C	0.9335150070683153 0.9302542566742692 0.5632962000449422	0.141137
C	0.9874708490671020 0.9832450441125833 0.5659504157015056	-0.121460
C	0.5697456933257267 0.9335150070683153 0.5632962000449422	0.141137
C	0.5167550068874173 0.9874708490671020 0.5659504157015056	-0.121461
C	0.9302542566742692 0.5664849429316877 0.5632962000449422	0.141137
C	0.9832450441125833 0.5125292019328915 0.5659504157015056	-0.121461
H	0.6978076040175748 0.8639188300068502 0.7969613429723076	0.097711
H	0.6082362336628447 0.9552621265136866 0.8058152333340707	0.118636
H	0.5467220343419722 0.8921376817334770 0.3235544544273607	0.119316
H	0.6385020618107972 0.8037761706938839 0.3344028226060020	0.097404
H	0.8021923959824252 0.6360811699931498 0.7969613429723076	0.097711
H	0.8917637663371553 0.5447379244863141 0.8058152333340707	0.118637
H	0.9532780166580285 0.6078623692665237 0.3235544544273607	0.119316
H	0.8614979381892028 0.6962238293061161 0.3344028226060020	0.097404
H	0.6360811699931498 0.6978076040175748 0.7969613429723076	0.097711
H	0.5447379244863141 0.6082362336628447 0.8058152333340707	0.118636
H	0.6078623692665237 0.5467220343419722 0.3235544544273607	0.119316
H	0.6962238293061161 0.6385020618107972 0.3344028226060020	0.097404
H	0.8639188300068502 0.8021923959824252 0.7969613429723076	0.097711
H	0.9552621265136866 0.8917637663371553 0.8058152333340707	0.118636
H	0.8921376817334770 0.9532780166580285 0.3235544544273607	0.119316
H	0.8037761706938839 0.8614979381892028 0.3344028226060020	0.097404
H	0.3021924219824275 0.3639187540068513 0.2030386420276947	0.097711
H	0.3917636903371493 0.4552620755136858 0.1941847226659257	0.118636
H	0.4532780166580284 0.3921376817334772 0.6764455155726443	0.119316
H	0.3614979631892083 0.3037761966938861 0.6655971773939985	0.097404
H	0.1978075910175701 0.1360812719931510 0.2030386420276947	0.097711
H	0.1082362846628452 0.0447379404863155 0.1941847226659257	0.118636
H	0.0467219773419711 0.1078623442665252 0.6764455155726443	0.119316
H	0.1385020618107973 0.1962237913061130 0.6655971773939985	0.097404
H	0.3639187540068513 0.1978075910175701 0.2030386420276947	0.097711
H	0.4552620755136858 0.1082362846628452 0.1941847226659257	0.118636
H	0.3921376817334772 0.0467219773419711 0.6764455155726443	0.119315
H	0.3037761966938861 0.1385020618107973 0.6655971773939985	0.097404
H	0.1360812719931510 0.3021924219824275 0.2030386420276947	0.097711
H	0.0447379404863155 0.3917636903371493 0.1941847226659257	0.118636
H	0.1078623442665252 0.4532780166580284 0.6764455155726443	0.119316
H	0.1962237913061130 0.3614979631892083 0.6655971773939985	0.097404
H	0.5060761351886444 0.0020069595798738 0.3136985786479933	0.104338
H	0.9939239158113563 0.4979930124201238 0.3136985786479933	0.104338
H	0.4979930124201238 0.5060761351886444 0.3136985786479933	0.104338
H	0.0020069595798738 0.9939239158113563 0.3136985786479933	0.104338
H	0.4939238648113555 0.5020069375798792 0.6863014513520025	0.104337
H	0.0060761261886473 0.9979930124201237 0.6863014513520025	0.104337
H	0.5020069375798792 0.0060761261886473 0.6863014513520025	0.104337
H	0.9979930124201237 0.4939238648113555 0.6863014513520025	0.104337
Zn	0.2500000000000000 0.2500000000000000 0.4336774152623966	0.734939
Zn	0.7500000000000000 0.7500000000000000 0.5663225847376031	0.734939
Sn	0.2500000000000000 0.2500000000000000 0.9345337880353772	1.874961
Sn	0.7500000000000000 0.7500000000000000 0.0654661969646252	1.874961
F	0.2500000000000000 0.2500000000000000 0.1812332977437983	-0.524976
F	0.2500000000000000 0.2500000000000000 0.6877252250562162	-0.525906
F	0.7500000000000000 0.7500000000000000 0.8187667322562043	-0.524976
F	0.7500000000000000 0.7500000000000000 0.3122747749437839	-0.525906
F	0.3237067658326286 0.3219508340754547 0.9349509310615112	-0.572238
F	0.1762932591673698 0.1780491909245439 0.9349509310615112	-0.572238
F	0.1780491909245439 0.3237067658326286 0.9349509310615112	-0.572238
F	0.3219508340754547 0.1762932591673698 0.9349509310615112	-0.572238
F	0.6762932591673696 0.8219508340754546 0.0650490689384889	-0.572238
F	0.8237067408326304 0.6780491659245454 0.0650490689384889	-0.572238
F	0.8219508340754546 0.8237067408326304 0.0650490689384889	-0.572238
F	0.6780491659245454 0.6762932591673696 0.0650490689384889	-0.572238
N	0.3302600875275921 0.1724175868188487 0.4346909424879344	-0.233283
N	0.1697399374724063 0.3275824381811497 0.4346909424879344	-0.233283
N	0.3275824381811497 0.3302600875275921 0.4346909424879344	-0.233283
N	0.1724175868188487 0.1697399374724063 0.4346909424879344	-0.233283
N	0.6697399124724076 0.6724175618188504 0.5653090575120659	-0.233283
N	0.8302600875275924 0.8275824381811496 0.5653090575120659	-0.233283
N	0.6724175618188504 0.8302600875275924 0.5653090575120659	-0.233283
N	0.8275824381811496 0.6697399124724076 0.5653090575120659	-0.233283
	  	
