#======================================================================

# CRYSTAL DATA

#----------------------------------------------------------------------

data_VESTA_phase_1


_pd_phase_name                         SnFSIX_6_Zn_i
_cell_length_a                         17.81051
_cell_length_b                         17.81051
_cell_length_c                         16.07785
_cell_angle_alpha                      90
_cell_angle_beta                       90
_cell_angle_gamma                      90
_symmetry_space_group_name_H-M         P 1
_symmetry_Int_Tables_number            1

loop_
_symmetry_equiv_pos_as_xyz
   x, y, z

loop_
   _atom_site_label
   _atom_site_fract_x
   _atom_site_fract_y
   _atom_site_fract_z
   _atom_site_charge
N	0.2439538131386275 0.1293731521910129 0.1280833496702420	-0.235959
N	0.2560461868613727 0.3706268618089882 0.1280833496702420	-0.235958
N	0.3706268618089882 0.2439538131386275 0.1280833496702420	-0.235958
N	0.1293731521910129 0.2560461868613727 0.1280833496702420	-0.235958
N	0.7560461598613735 0.6293731651910175 0.3719166353297604	-0.235958
N	0.7439538401386265 0.8706268348089825 0.3719166353297604	-0.235957
N	0.6293731651910175 0.7439538401386265 0.3719166353297604	-0.235958
N	0.8706268348089825 0.7560461598613735 0.3719166353297604	-0.235958
N	0.7560461598613735 0.8706268348089825 0.8719166353297604	-0.235958
N	0.7439538401386265 0.6293731651910175 0.8719166353297604	-0.235959
N	0.6293731651910175 0.7560461598613735 0.8719166353297604	-0.235959
N	0.8706268348089825 0.7439538401386265 0.8719166353297604	-0.235959
N	0.2439538131386275 0.3706268618089882 0.6280833646702396	-0.235958
N	0.2560461868613727 0.1293731521910129 0.6280833646702396	-0.235959
N	0.3706268618089882 0.2560461868613727 0.6280833646702396	-0.235959
N	0.1293731521910129 0.2439538131386275 0.6280833646702396	-0.235959
C	0.2012767547845160 0.0932375156874997 0.1844072068823666	0.102245
C	0.1931427441092246 0.0156728389355094 0.1840053798834164	-0.177530
C	0.2324492564531654 0.9728421410153644 0.1251585611272984	0.111006
C	0.2778566593798570 0.0111947485176164 0.0679187188665202	-0.176820
C	0.2811830174434140 0.0891028855087179 0.0705047907058331	0.105236
C	0.2265255021054195 0.8903880730178991 0.1238921314176009	0.061436
C	0.2906870064873550 0.8465730491548101 0.1209126636598338	-0.173674
C	0.2862829468889095 0.7674468866066386 0.1220308702775569	0.085590
C	0.1485239085032891 0.7784298110202226 0.1245896304527184	-0.124791
C	0.1548597279047817 0.8553690571503059 0.1268428208028655	-0.134509
C	0.2987232052154879 0.4067624973124980 0.1844072068823666	0.102243
C	0.3068572158907721 0.4843271420644926 0.1840053798834164	-0.177529
C	0.2675507435468345 0.5271578589846356 0.1251585611272984	0.111007
C	0.2221433536201406 0.4888052484823798 0.0679187188665202	-0.176820
C	0.2188169965565873 0.4108971214912863 0.0705047907058331	0.105234
C	0.2734744978945807 0.6096119269821009 0.1238921314176009	0.061435
C	0.2093130345126451 0.6534269508451899 0.1209126636598338	-0.173671
C	0.2137170261110919 0.7325531133933614 0.1220308702775569	0.085588
C	0.3514760774967097 0.7215701889797774 0.1245896304527184	-0.124792
C	0.3451402720952185 0.6446309428496941 0.1268428208028655	-0.134508
C	0.4067624973124980 0.2012767547845160 0.1844072068823666	0.102245
C	0.4843271420644926 0.1931427441092246 0.1840053798834164	-0.177529
C	0.5271578589846356 0.2324492564531654 0.1251585611272984	0.111006
C	0.4888052484823798 0.2778566593798570 0.0679187188665202	-0.176819
C	0.4108971214912863 0.2811830174434140 0.0705047907058331	0.105235
C	0.6096119269821009 0.2265255021054195 0.1238921314176009	0.061436
C	0.6534269508451899 0.2906870064873550 0.1209126636598338	-0.173672
C	0.7325531133933614 0.2862829468889095 0.1220308702775569	0.085590
C	0.7215701889797774 0.1485239085032891 0.1245896304527184	-0.124791
C	0.6446309428496941 0.1548597279047817 0.1268428208028655	-0.134508
C	0.0932375156874997 0.2987232052154879 0.1844072068823666	0.102244
C	0.0156728389355094 0.3068572158907721 0.1840053798834164	-0.177529
C	0.9728421410153644 0.2675507435468345 0.1251585611272984	0.111007
C	0.0111947485176164 0.2221433536201406 0.0679187188665202	-0.176821
C	0.0891028855087179 0.2188169965565873 0.0705047907058331	0.105236
C	0.8903880730178991 0.2734744978945807 0.1238921314176009	0.061435
C	0.8465730491548101 0.2093130345126451 0.1209126636598338	-0.173673
C	0.7674468866066386 0.2137170261110919 0.1220308702775569	0.085588
C	0.7784298110202226 0.3514760774967097 0.1245896304527184	-0.124792
C	0.8553690571503059 0.3451402720952185 0.1268428208028655	-0.134509
C	0.7987232582154814 0.5932375026875022 0.3155928091176347	0.102244
C	0.8068572688907725 0.5156728039355029 0.3159945891165848	-0.177513
C	0.7675507435468344 0.4728421410153643 0.3748414068726991	0.110957
C	0.7221433136201446 0.5111948055176178 0.4320812851334802	-0.176806
C	0.7188169565565840 0.5891029325087181 0.4294952492941632	0.105234
C	0.7734745778945802 0.3903881260178999 0.3761078605823984	0.061439
C	0.7093130205126439 0.3465729961548095 0.3790873283401656	-0.173674
C	0.7137170531110905 0.2674468066066393 0.3779691297224430	0.085591
C	0.8514761044967154 0.2784297840202242 0.3754103535472805	-0.124793
C	0.8451402190952174 0.3553690311503038 0.3731572111971372	-0.134485
C	0.7012767417845186 0.9067624973124978 0.3155928091176347	0.102242
C	0.6931427311092275 0.9843271420644927 0.3159945891165848	-0.177513
C	0.7324492564531656 0.0271578649846362 0.3748414068726991	0.110958
C	0.7778566863798554 0.9888052484823796 0.4320812851334802	-0.176805
C	0.7811830434434160 0.9108971744912872 0.4294952492941632	0.105233
C	0.7265254221054198 0.1096119009820987 0.3761078605823984	0.061439
C	0.7906869794873561 0.1534269908451859 0.3790873283401656	-0.173674
C	0.7862829468889095 0.2325531663933622 0.3779691297224430	0.085589
C	0.6485238955032846 0.2215702029797783 0.3754103535472805	-0.124794
C	0.6548597809047826 0.1446309428496942 0.3731572111971372	-0.134483
C	0.5932375026875022 0.7012767417845186 0.3155928091176347	0.102244
C	0.5156728039355029 0.6931427311092275 0.3159945891165848	-0.177514
C	0.4728421410153643 0.7324492564531656 0.3748414068726991	0.110958
C	0.5111948055176178 0.7778566863798554 0.4320812851334802	-0.176805
C	0.5891029325087181 0.7811830434434160 0.4294952492941632	0.105234
C	0.3903881260178999 0.7265254221054198 0.3761078605823984	0.061438
C	0.3465729961548095 0.7906869794873561 0.3790873283401656	-0.173675
C	0.2674468066066393 0.7862829468889095 0.3779691297224430	0.085590
C	0.2784297840202242 0.6485238955032846 0.3754103535472805	-0.124793
C	0.3553690311503038 0.6548597809047826 0.3731572111971372	-0.134485
C	0.9067624973124978 0.7987232582154814 0.3155928091176347	0.102243
C	0.9843271420644927 0.8068572688907725 0.3159945891165848	-0.177511
C	0.0271578649846362 0.7675507435468344 0.3748414068726991	0.110957
C	0.9888052484823796 0.7221433136201446 0.4320812851334802	-0.176806
C	0.9108971744912872 0.7188169565565840 0.4294952492941632	0.105235
C	0.1096119009820987 0.7734745778945802 0.3761078605823984	0.061439
C	0.1534269908451859 0.7093130205126439 0.3790873283401656	-0.173674
C	0.2325531663933622 0.7137170531110905 0.3779691297224430	0.085589
C	0.2215702029797783 0.8514761044967154 0.3754103535472805	-0.124794
C	0.1446309428496942 0.8451402190952174 0.3731572111971372	-0.134483
C	0.7987232582154814 0.9067624973124978 0.8155927771176320	0.102242
C	0.8068572688907725 0.9843271420644927 0.8159946521165865	-0.177512
C	0.7675507435468344 0.0271578649846362 0.8748414708726973	0.110958
C	0.7221433136201446 0.9888052484823796 0.9320812541334812	-0.176806
C	0.7188169565565840 0.9108971744912872 0.9294952172941603	0.105233
C	0.7734745778945802 0.1096119009820987 0.8761078605823984	0.061439
C	0.7093130205126439 0.1534269908451859 0.8790873603401682	-0.173674
C	0.7137170531110905 0.2325531663933622 0.8779691617224386	0.085590
C	0.8514761044967154 0.2215702029797783 0.8754104165472818	-0.124793
C	0.8451402190952174 0.1446309428496942 0.8731572431971325	-0.134484
C	0.7012767417845186 0.5932375026875022 0.8155927771176320	0.102244
C	0.6931427311092275 0.5156728039355029 0.8159946521165865	-0.177513
C	0.7324492564531656 0.4728421410153643 0.8748414708726973	0.110956
C	0.7778566863798554 0.5111948055176178 0.9320812541334812	-0.176805
C	0.7811830434434160 0.5891029325087181 0.9294952172941603	0.105235
C	0.7265254221054198 0.3903881260178999 0.8761078605823984	0.061439
C	0.7906869794873561 0.3465729961548095 0.8790873603401682	-0.173675
C	0.7862829468889095 0.2674468066066393 0.8779691617224386	0.085589
C	0.6485238955032846 0.2784297840202242 0.8754104165472818	-0.124793
C	0.6548597809047826 0.3553690311503038 0.8731572431971325	-0.134484
C	0.5932375026875022 0.7987232582154814 0.8155927771176320	0.102243
C	0.5156728039355029 0.8068572688907725 0.8159946521165865	-0.177512
C	0.4728421410153643 0.7675507435468344 0.8748414708726973	0.110958
C	0.5111948055176178 0.7221433136201446 0.9320812541334812	-0.176806
C	0.5891029325087181 0.7188169565565840 0.9294952172941603	0.105235
C	0.3903881260178999 0.7734745778945802 0.8761078605823984	0.061438
C	0.3465729961548095 0.7093130205126439 0.8790873603401682	-0.173675
C	0.2674468066066393 0.7137170531110905 0.8779691617224386	0.085590
C	0.2784297840202242 0.8514761044967154 0.8754104165472818	-0.124793
C	0.3553690311503038 0.8451402190952174 0.8731572431971325	-0.134484
C	0.9067624973124978 0.7012767417845186 0.8155927771176320	0.102244
C	0.9843271420644927 0.6931427311092275 0.8159946521165865	-0.177513
C	0.0271578649846362 0.7324492564531656 0.8748414708726973	0.110957
C	0.9888052484823796 0.7778566863798554 0.9320812541334812	-0.176804
C	0.9108971744912872 0.7811830434434160 0.9294952172941603	0.105234
C	0.1096119009820987 0.7265254221054198 0.8761078605823984	0.061439
C	0.1534269908451859 0.7906869794873561 0.8790873603401682	-0.173674
C	0.2325531663933622 0.7862829468889095 0.8779691617224386	0.085589
C	0.2215702029797783 0.6485238955032846 0.8754104165472818	-0.124793
C	0.1446309428496942 0.6548597809047826 0.8731572431971325	-0.134484
C	0.2012767547845160 0.4067624973124980 0.6844072228823680	0.102243
C	0.1931427441092246 0.4843271420644926 0.6840053478834135	-0.177529
C	0.2324492564531654 0.5271578589846356 0.6251585291273027	0.111007
C	0.2778566593798570 0.4888052484823798 0.5679187458665188	-0.176819
C	0.2811830174434140 0.4108971214912863 0.5705047827058397	0.105234
C	0.2265255021054195 0.6096119269821009 0.6238921394176016	0.061436
C	0.2906870064873550 0.6534269508451899 0.6209126396598318	-0.173673
C	0.2862829468889095 0.7325531133933614 0.6220308382775614	0.085590
C	0.1485239085032891 0.7215701889797774 0.6245895834527182	-0.124791
C	0.1548597279047817 0.6446309428496941 0.6268427568028675	-0.134508
C	0.2987232052154879 0.0932375156874997 0.6844072228823680	0.102245
C	0.3068572158907721 0.0156728389355094 0.6840053478834135	-0.177528
C	0.2675507435468345 0.9728421410153644 0.6251585291273027	0.111005
C	0.2221433536201406 0.0111947485176164 0.5679187458665188	-0.176820
C	0.2188169965565873 0.0891028855087179 0.5705047827058397	0.105235
C	0.2734744978945807 0.8903880730178991 0.6238921394176016	0.061435
C	0.2093130345126451 0.8465730491548101 0.6209126396598318	-0.173672
C	0.2137170261110919 0.7674468866066386 0.6220308382775614	0.085589
C	0.3514760774967097 0.7784298110202226 0.6245895834527182	-0.124791
C	0.3451402720952185 0.8553690571503059 0.6268427568028675	-0.134509
C	0.4067624973124980 0.2987232052154879 0.6844072228823680	0.102244
C	0.4843271420644926 0.3068572158907721 0.6840053478834135	-0.177527
C	0.5271578589846356 0.2675507435468345 0.6251585291273027	0.111005
C	0.4888052484823798 0.2221433536201406 0.5679187458665188	-0.176820
C	0.4108971214912863 0.2188169965565873 0.5705047827058397	0.105236
C	0.6096119269821009 0.2734744978945807 0.6238921394176016	0.061436
C	0.6534269508451899 0.2093130345126451 0.6209126396598318	-0.173673
C	0.7325531133933614 0.2137170261110919 0.6220308382775614	0.085590
C	0.7215701889797774 0.3514760774967097 0.6245895834527182	-0.124791
C	0.6446309428496941 0.3451402720952185 0.6268427568028675	-0.134508
C	0.0932375156874997 0.2012767547845160 0.6844072228823680	0.102245
C	0.0156728389355094 0.1931427441092246 0.6840053478834135	-0.177530
C	0.9728421410153644 0.2324492564531654 0.6251585291273027	0.111007
C	0.0111947485176164 0.2778566593798570 0.5679187458665188	-0.176819
C	0.0891028855087179 0.2811830174434140 0.5705047827058397	0.105235
C	0.8903880730178991 0.2265255021054195 0.6238921394176016	0.061435
C	0.8465730491548101 0.2906870064873550 0.6209126396598318	-0.173673
C	0.7674468866066386 0.2862829468889095 0.6220308382775614	0.085588
C	0.7784298110202226 0.1485239085032891 0.6245895834527182	-0.124791
C	0.8553690571503059 0.1548597279047817 0.6268427568028675	-0.134509
H	0.1739818836503391 0.1279709213601301 0.2314792380262765	0.099345
H	0.1582512780813025 0.9883395577422999 0.2307226080510118	0.114734
H	0.3085152208366160 0.9804028008261841 0.0201948064820772	0.115730
H	0.3134568033944494 0.1209157229413321 0.0247650979047982	0.097666
H	0.3458796052604242 0.8731276676622028 0.1202668577431800	0.108643
H	0.0933439235506653 0.7517176933371268 0.1252580533755498	0.110300
H	0.1048285172540625 0.8907207436818000 0.1289353780817976	0.100752
H	0.3260180893496622 0.3720291056398758 0.2314792380262765	0.099344
H	0.3417487619186937 0.5116604422577001 0.2307226080510118	0.114733
H	0.1914847921633814 0.5195971991738159 0.0201948064820772	0.115731
H	0.1865431966055504 0.3790842770586680 0.0247650979047982	0.097666
H	0.1541204087395770 0.6268723323377972 0.1202668577431800	0.108642
H	0.4066560694493305 0.7482823066628732 0.1252580533755498	0.110300
H	0.3951714957459422 0.6092792563182000 0.1289353780817976	0.100753
H	0.3720291056398758 0.1739818836503391 0.2314792380262765	0.099344
H	0.5116604422577001 0.1582512780813025 0.2307226080510118	0.114735
H	0.5195971991738159 0.3085152208366160 0.0201948064820772	0.115731
H	0.3790842770586680 0.3134568033944494 0.0247650979047982	0.097666
H	0.6268723323377972 0.3458796052604242 0.1202668577431800	0.108644
H	0.7482823066628732 0.0933439235506653 0.1252580533755498	0.110300
H	0.6092792563182000 0.1048285172540625 0.1289353780817976	0.100753
H	0.1279709213601301 0.3260180893496622 0.2314792380262765	0.099345
H	0.9883395577422999 0.3417487619186937 0.2307226080510118	0.114733
H	0.9804028008261841 0.1914847921633814 0.0201948064820772	0.115731
H	0.1209157229413321 0.1865431966055504 0.0247650979047982	0.097667
H	0.8731276676622028 0.1541204087395770 0.1202668577431800	0.108641
H	0.7517176933371268 0.4066560694493305 0.1252580533755498	0.110301
H	0.8907207436818000 0.3951714957459422 0.1289353780817976	0.100753
H	0.8260180893496623 0.6279709483601288 0.2685207779737246	0.099345
H	0.8417486809186978 0.4883396117422972 0.2692773919489882	0.114733
H	0.6914847791633839 0.4804028008261844 0.4798051955179228	0.115729
H	0.6865432496055515 0.6209157499413305 0.4752349000952016	0.097666
H	0.6541203947395759 0.3731276136622054 0.3797331502568205	0.108642
H	0.9066560164493297 0.2517177203371256 0.3747419386244497	0.110301
H	0.8951714687459433 0.3907207696817947 0.3710646299182030	0.100751
H	0.6739819106503377 0.8720290516398712 0.2685207779737246	0.099345
H	0.6582513190813022 0.0116604042576971 0.2692773919489882	0.114733
H	0.8085152208366161 0.0195971981738120 0.4798051955179228	0.115729
H	0.8134567503944485 0.8790842500586695 0.4752349000952016	0.097666
H	0.8458796052604241 0.1268723993377992 0.3797331502568205	0.108643
H	0.5933439305506695 0.2482822526628688 0.3747419386244497	0.110298
H	0.6048285312540567 0.1092792433182027 0.3710646299182030	0.100749
H	0.6279709483601288 0.6739819106503377 0.2685207779737246	0.099345
H	0.4883396117422972 0.6582513190813022 0.2692773919489882	0.114734
H	0.4804028008261844 0.8085152208366161 0.4798051955179228	0.115729
H	0.6209157499413305 0.8134567503944485 0.4752349000952016	0.097667
H	0.3731276136622054 0.8458796052604241 0.3797331502568205	0.108644
H	0.2517177203371256 0.5933439305506695 0.3747419386244497	0.110300
H	0.3907207696817947 0.6048285312540567 0.3710646299182030	0.100749
H	0.8720290516398712 0.8260180893496623 0.2685207779737246	0.099345
H	0.0116604042576971 0.8417486809186978 0.2692773919489882	0.114733
H	0.0195971981738120 0.6914847791633839 0.4798051955179228	0.115730
H	0.8790842500586695 0.6865432496055515 0.4752349000952016	0.097666
H	0.1268723993377992 0.6541203947395759 0.3797331502568205	0.108642
H	0.2482822526628688 0.9066560164493297 0.3747419386244497	0.110300
H	0.1092792433182027 0.8951714687459433 0.3710646299182030	0.100751
H	0.8260180893496623 0.8720290516398712 0.7685207469737256	0.099344
H	0.8417486809186978 0.0116604042576971 0.7692774069489929	0.114733
H	0.6914847791633839 0.0195971981738120 0.9798052265179222	0.115729
H	0.6865432496055515 0.8790842500586695 0.9752348360952038	0.097666
H	0.6541203947395759 0.1268723993377992 0.8797331182568181	0.108643
H	0.9066560164493297 0.2482822526628688 0.8747418756244479	0.110301
H	0.8951714687459433 0.1092792433182027 0.8710645979182001	0.100750
H	0.6739819106503377 0.6279709483601288 0.7685207469737256	0.099345
H	0.6582513190813022 0.4883396117422972 0.7692774069489929	0.114734
H	0.8085152208366161 0.4804028008261844 0.9798052265179222	0.115728
H	0.8134567503944485 0.6209157499413305 0.9752348360952038	0.097666
H	0.8458796052604241 0.3731276136622054 0.8797331182568181	0.108642
H	0.5933439305506695 0.2517177203371256 0.8747418756244479	0.110298
H	0.6048285312540567 0.3907207696817947 0.8710645979182001	0.100750
H	0.6279709483601288 0.8260180893496623 0.7685207469737256	0.099345
H	0.4883396117422972 0.8417486809186978 0.7692774069489929	0.114733
H	0.4804028008261844 0.6914847791633839 0.9798052265179222	0.115729
H	0.6209157499413305 0.6865432496055515 0.9752348360952038	0.097666
H	0.3731276136622054 0.6541203947395759 0.8797331182568181	0.108643
H	0.2517177203371256 0.9066560164493297 0.8747418756244479	0.110301
H	0.3907207696817947 0.8951714687459433 0.8710645979182001	0.100750
H	0.8720290516398712 0.6739819106503377 0.7685207469737256	0.099344
H	0.0116604042576971 0.6582513190813022 0.7692774069489929	0.114734
H	0.0195971981738120 0.8085152208366161 0.9798052265179222	0.115729
H	0.8790842500586695 0.8134567503944485 0.9752348360952038	0.097666
H	0.1268723993377992 0.8458796052604241 0.8797331182568181	0.108643
H	0.2482822526628688 0.5933439305506695 0.8747418756244479	0.110298
H	0.1092792433182027 0.6048285312540567 0.8710645979182001	0.100750
H	0.1739818836503391 0.3720291056398758 0.7314792530262744	0.099345
H	0.1582512780813025 0.5116604422577001 0.7307225930510071	0.114734
H	0.3085152208366160 0.5195971991738159 0.5201948044820768	0.115730
H	0.3134568033944494 0.3790842770586680 0.5247650999047980	0.097666
H	0.3458796052604242 0.6268723323377972 0.6202668817431819	0.108644
H	0.0933439235506653 0.7482823066628732 0.6252581243755521	0.110299
H	0.1048285172540625 0.6092792563182000 0.6289354020817999	0.100751
H	0.3260180893496622 0.1279709213601301 0.7314792530262744	0.099345
H	0.3417487619186937 0.9883395577422999 0.7307225930510071	0.114733
H	0.1914847921633814 0.9804028008261841 0.5201948044820768	0.115730
H	0.1865431966055504 0.1209157229413321 0.5247650999047980	0.097667
H	0.1541204087395770 0.8731276676622028 0.6202668817431819	0.108641
H	0.4066560694493305 0.7517176933371268 0.6252581243755521	0.110299
H	0.3951714957459422 0.8907207436818000 0.6289354020817999	0.100754
H	0.3720291056398758 0.3260180893496622 0.7314792530262744	0.099345
H	0.5116604422577001 0.3417487619186937 0.7307225930510071	0.114733
H	0.5195971991738159 0.1914847921633814 0.5201948044820768	0.115731
H	0.3790842770586680 0.1865431966055504 0.5247650999047980	0.097666
H	0.6268723323377972 0.1541204087395770 0.6202668817431819	0.108643
H	0.7482823066628732 0.4066560694493305 0.6252581243755521	0.110300
H	0.6092792563182000 0.3951714957459422 0.6289354020817999	0.100753
H	0.1279709213601301 0.1739818836503391 0.7314792530262744	0.099345
H	0.9883395577422999 0.1582512780813025 0.7307225930510071	0.114734
H	0.9804028008261841 0.3085152208366160 0.5201948044820768	0.115729
H	0.1209157229413321 0.3134568033944494 0.5247650999047980	0.097667
H	0.8731276676622028 0.3458796052604242 0.6202668817431819	0.108642
H	0.7517176933371268 0.0933439235506653 0.6252581243755521	0.110298
H	0.8907207436818000 0.1048285172540625 0.6289354020817999	0.100752
F	0.3130015805064408 0.1573132024045247 0.3782769543222612	-0.586776
F	0.1869984464935579 0.3426867975954754 0.3782769543222612	-0.586774
F	0.3426867975954754 0.3130015805064408 0.3782769543222612	-0.586775
F	0.1573132024045247 0.1869984464935579 0.3782769543222612	-0.586775
F	0.6869984194935589 0.6573131484045273 0.1217230456777388	-0.586775
F	0.8130015805064411 0.8426868515954727 0.1217230456777388	-0.586775
F	0.6573131484045273 0.8130015805064411 0.1217230456777388	-0.586774
F	0.8426868515954727 0.6869984194935589 0.1217230456777388	-0.586776
F	0.6869984194935589 0.8426868515954727 0.6217230136777360	-0.586774
F	0.8130015805064411 0.6573131484045273 0.6217230136777360	-0.586775
F	0.6573131484045273 0.6869984194935589 0.6217230136777360	-0.586775
F	0.8426868515954727 0.8130015805064411 0.6217230136777360	-0.586775
F	0.3130015805064408 0.3426867975954754 0.8782769863222640	-0.586775
F	0.1869984464935579 0.1573132024045247 0.8782769863222640	-0.586775
F	0.3426867975954754 0.1869984464935579 0.8782769863222640	-0.586776
F	0.1573132024045247 0.3130015805064408 0.8782769863222640	-0.586774
F	0.2500000000000000 0.2500000000000000 0.2534056129839696	-0.523451
F	0.2500000000000000 0.2500000000000000 0.5032715023348173	-0.525042
F	0.7500000000000000 0.7500000000000000 0.2465944030160317	-0.523452
F	0.7500000000000000 0.7500000000000000 -0.0032714953348134	-0.525046
F	0.7500000000000000 0.7500000000000000 0.7465943550160274	-0.523452
F	0.7500000000000000 0.7500000000000000 0.4967285296651852	-0.525046
F	0.2500000000000000 0.2500000000000000 0.7534056449839726	-0.523452
F	0.2500000000000000 0.2500000000000000 0.0032714703348149	-0.525046
Zn	0.2500000000000000 0.2500000000000000 0.1284141156342896	0.736572
Zn	0.7500000000000000 0.7500000000000000 0.3715859003657117	0.736572
Zn	0.7500000000000000 0.7500000000000000 0.8715858693657126	0.736574
Zn	0.2500000000000000 0.2500000000000000 0.6284141306342874	0.736575
Sn	0.2500000000000000 0.2500000000000000 0.3783083413246702	1.901418
Sn	0.7500000000000000 0.7500000000000000 0.1216916666753303	1.901423
Sn	0.7500000000000000 0.7500000000000000 0.6216916276753307	1.901423
Sn	0.2500000000000000 0.2500000000000000 0.8783083723246693	1.901422
	  	
