#======================================================================

# CRYSTAL DATA

#----------------------------------------------------------------------

data_VESTA_phase_1


_pd_phase_name                         SnFSIX_5_Ni_i
_cell_length_a                         19.83776
_cell_length_b                         19.83776
_cell_length_c                         16.00673
_cell_angle_alpha                      90
_cell_angle_beta                       90
_cell_angle_gamma                      90
_symmetry_space_group_name_H-M         P 1
_symmetry_Int_Tables_number            1

loop_
_symmetry_equiv_pos_as_xyz
   x, y, z

loop_
   _atom_site_label
   _atom_site_fract_x
   _atom_site_fract_y
   _atom_site_fract_z
   _atom_site_charge
F	0.3278489335262516 0.1866640890570850 0.3513543494992561	-0.570452
F	0.1721510544737473 0.3133359109429147 0.3513543494992561	-0.570456
F	0.3133359109429147 0.3278489335262516 0.3513543494992561	-0.570454
F	0.1866640890570850 0.1721510544737473 0.3513543494992561	-0.570454
F	0.6721510904737432 0.6866641130570871 0.1486456505007439	-0.570454
F	0.8278489095262568 0.8133358869429129 0.1486456505007439	-0.570454
F	0.6866641130570872 0.8278489095262568 0.1486456505007439	-0.570455
F	0.8133358869429128 0.6721510904737432 0.1486456505007439	-0.570453
F	0.6721510904737432 0.8133358869429129 0.6486456825007467	-0.570456
F	0.8278489095262568 0.6866641130570871 0.6486456825007467	-0.570452
F	0.6866641130570871 0.6721510904737432 0.6486456825007467	-0.570454
F	0.8133358869429129 0.8278489095262568 0.6486456825007467	-0.570454
F	0.3278489335262516 0.3133359109429147 0.8513543174992533	-0.570454
F	0.1721510544737473 0.1866640890570850 0.8513543174992533	-0.570454
F	0.3133359109429147 0.1721510544737473 0.8513543174992533	-0.570453
F	0.1866640890570850 0.3278489335262516 0.8513543174992533	-0.570455
F	0.2500000000000000 0.2500000000000000 0.4771933286875261	-0.528699
F	0.2500000000000000 0.2500000000000000 0.2250445816752953	-0.528093
F	0.7500000000000000 0.7500000000000000 0.0228066983124726	-0.528699
F	0.7500000000000000 0.7500000000000000 0.2749554023247032	-0.528093
F	0.7500000000000000 0.7500000000000000 0.5228067023124729	-0.528697
F	0.7500000000000000 0.7500000000000000 0.7749554023247035	-0.528095
F	0.2500000000000000 0.2500000000000000 -0.0228067023124731	-0.528697
F	0.2500000000000000 0.2500000000000000 0.7250445976752965	-0.528095
N	0.3552152063435693 0.2475967611107167 0.6014048475702869	-0.242370
N	0.1447847936564305 0.2524032388892834 0.6014048475702869	-0.242370
N	0.2524032388892834 0.3552152063435693 0.6014048475702869	-0.242371
N	0.2475967611107167 0.1447847936564305 0.6014048475702869	-0.242369
N	0.6447848176564327 0.7475967371107146 0.8985951524297131	-0.242370
N	0.8552151823435673 0.7524032628892854 0.8985951524297131	-0.242371
N	0.7475967371107146 0.8552151823435673 0.8985951524297131	-0.242371
N	0.7524032628892854 0.6447848176564327 0.8985951524297131	-0.242370
N	0.6447848176564327 0.7524032628892854 0.3985951834297122	-0.242373
N	0.8552151823435673 0.7475967371107146 0.3985951834297122	-0.242373
N	0.7475967371107146 0.6447848176564327 0.3985951834297122	-0.242373
N	0.7524032628892854 0.8552151823435673 0.3985951834297122	-0.242374
N	0.3552152063435693 0.2524032388892834 0.1014048475702868	-0.242374
N	0.1447847936564305 0.2475967611107167 0.1014048475702868	-0.242373
N	0.2524032388892834 0.1447847936564305 0.1014048475702868	-0.242372
N	0.2475967611107167 0.3552152063435694 0.1014048475702868	-0.242374
C	0.3887198269010262 0.2182141578739983 0.6648793420129108	0.102967
C	0.4586506553429706 0.2168956769428134 0.6687468412257883	-0.175513
C	0.4967516349712418 0.2471386736434475 0.6051280539364113	0.105810
C	0.4610902564556821 0.2771957116746457 0.5391845302429020	-0.177074
C	0.3910465578578307 0.2763757938476604 0.5394580734498122	0.104520
C	0.5709237091829219 0.2478070224992469 0.6081834337088364	0.053529
C	0.6069691637082426 0.1915886968057219 0.6375500618856222	-0.127934
C	0.6769902905703311 0.1923939136545775 0.6401337110169641	-0.126666
C	0.7130066299752156 0.2497918259524336 0.6148229147083549	0.069398
C	0.6770307540165791 0.3063185960094880 0.5866545679375580	-0.119537
C	0.6070583407321846 0.3051073330908295 0.5826006746868183	-0.126000
C	0.1112801490989788 0.2817858661260036 0.6648793420129108	0.102967
C	0.0413492846570315 0.2831043470571884 0.6687468412257883	-0.175515
C	0.0032483440287601 0.2528613263565525 0.6051280539364113	0.105809
C	0.0389097705443165 0.2228042883253542 0.5391845302429020	-0.177065
C	0.1089534061421663 0.2236242301523417 0.5394580734498122	0.104516
C	0.9290762428170812 0.2521929535007510 0.6081834337088364	0.053530
C	0.8930308842917543 0.3084113381942776 0.6375500618856222	-0.127932
C	0.8230097094296689 0.3076060983454163 0.6401337110169641	-0.126665
C	0.7869933700247844 0.2502081500475645 0.6148229147083549	0.069397
C	0.8229692929834213 0.1936814039905120 0.5866545679375580	-0.119534
C	0.8929417552678163 0.1948927019091698 0.5826006746868183	-0.125998
C	0.2817858661260036 0.3887198269010262 0.6648793420129108	0.102969
C	0.2831043470571884 0.4586506553429706 0.6687468412257883	-0.175515
C	0.2528613263565525 0.4967516349712418 0.6051280539364113	0.105809
C	0.2228042883253542 0.4610902564556821 0.5391845302429020	-0.177072
C	0.2236242301523417 0.3910465578578307 0.5394580734498122	0.104520
C	0.2521929535007510 0.5709237091829219 0.6081834337088364	0.053529
C	0.3084113381942776 0.6069691637082426 0.6375500618856222	-0.127934
C	0.3076060983454163 0.6769902905703311 0.6401337110169641	-0.126667
C	0.2502081500475645 0.7130066299752156 0.6148229147083549	0.069396
C	0.1936814039905120 0.6770307540165791 0.5866545679375580	-0.119536
C	0.1948927019091698 0.6070583407321846 0.5826006746868183	-0.126001
C	0.2182141578739983 0.1112801490989788 0.6648793420129108	0.102966
C	0.2168956769428134 0.0413492846570315 0.6687468412257883	-0.175513
C	0.2471386736434475 0.0032483440287601 0.6051280539364113	0.105810
C	0.2771957116746457 0.0389097705443165 0.5391845302429020	-0.177068
C	0.2763757938476604 0.1089534061421663 0.5394580734498122	0.104516
C	0.2478070224992469 0.9290762428170812 0.6081834337088364	0.053530
C	0.1915886968057219 0.8930308842917543 0.6375500618856222	-0.127931
C	0.1923939136545775 0.8230097094296689 0.6401337110169641	-0.126664
C	0.2497918259524336 0.7869933700247844 0.6148229147083549	0.069399
C	0.3063185960094880 0.8229692929834213 0.5866545679375580	-0.119535
C	0.3051073330908295 0.8929417552678163 0.5826006746868183	-0.125997
C	0.6112801490989790 0.7182142058739951 0.8351206579870892	0.102965
C	0.5413492966570325 0.7168957009428087 0.8312531587742117	-0.175512
C	0.5032483650287582 0.7471387216434445 0.8948719460635887	0.105808
C	0.5389098395443186 0.7771956636746417 0.9608154697570980	-0.177073
C	0.6089534661421639 0.7763758178476552 0.9605419265501878	0.104518
C	0.4290762908170783 0.7478070944992458 0.8918165662911636	0.053530
C	0.3930308362917574 0.6915886618057222 0.8624499381143778	-0.127932
C	0.3230096374296625 0.6923938776545818 0.8598662889830359	-0.126665
C	0.2869934180247882 0.7497918499524353 0.8851770852916451	0.069396
C	0.3229691979834171 0.8063185960094880 0.9133454320624420	-0.119536
C	0.3929416832678101 0.8051072620908275 0.9173993253131817	-0.125998
C	0.8887198509010210 0.7817857941260049 0.8351206579870892	0.102968
C	0.9586507033429675 0.7831042990571913 0.8312531587742117	-0.175517
C	0.9967516829712386 0.7528612783565555 0.8948719460635887	0.105810
C	0.9610902084556854 0.7228043363253583 0.9608154697570980	-0.177070
C	0.8910465338578361 0.7236241821523448 0.9605419265501878	0.104519
C	0.0709237451829176 0.7521929055007542 0.8918165662911636	0.053529
C	0.1069691517082416 0.8084113381942778 0.8624499381143778	-0.127933
C	0.1769903385703354 0.8076060743454213 0.8598662889830359	-0.126666
C	0.2130065819752117 0.7502081500475647 0.8851770852916451	0.069398
C	0.1770307780165810 0.6936814039905120 0.9133454320624420	-0.119536
C	0.1070583167321898 0.6948926909091722 0.9173993253131817	-0.126002
C	0.7182142058739951 0.8887198509010210 0.8351206579870892	0.102970
C	0.7168957009428087 0.9586507033429675 0.8312531587742117	-0.175513
C	0.7471387216434445 0.9967516829712386 0.8948719460635887	0.105809
C	0.7771956636746417 0.9610902084556854 0.9608154697570980	-0.177073
C	0.7763758178476552 0.8910465338578361 0.9605419265501878	0.104519
C	0.7478070944992458 0.0709237451829176 0.8918165662911636	0.053529
C	0.6915886618057222 0.1069691517082416 0.8624499381143778	-0.127934
C	0.6923938776545818 0.1769903385703354 0.8598662889830359	-0.126665
C	0.7497918499524353 0.2130065819752117 0.8851770852916451	0.069396
C	0.8063185960094880 0.1770307780165810 0.9133454320624420	-0.119535
C	0.8051072620908275 0.1070583167321898 0.9173993253131817	-0.126001
C	0.7817857941260049 0.6112801490989790 0.8351206579870892	0.102965
C	0.7831042990571913 0.5413492966570325 0.8312531587742117	-0.175515
C	0.7528612783565555 0.5032483650287582 0.8948719460635887	0.105809
C	0.7228043363253583 0.5389098395443186 0.9608154697570980	-0.177070
C	0.7236241821523448 0.6089534661421639 0.9605419265501878	0.104518
C	0.7521929055007542 0.4290762908170783 0.8918165662911636	0.053530
C	0.8084113381942778 0.3930308362917574 0.8624499381143778	-0.127931
C	0.8076060743454213 0.3230096374296625 0.8598662889830359	-0.126666
C	0.7502081500475647 0.2869934180247882 0.8851770852916451	0.069398
C	0.6936814039905120 0.3229691979834171 0.9133454320624420	-0.119536
C	0.6948926909091722 0.3929416832678101 0.9173993253131817	-0.125999
C	0.6112801490989790 0.7817857941260049 0.3351206889870884	0.102966
C	0.5413492966570325 0.7831042990571913 0.3312531587742117	-0.175510
C	0.5032483650287582 0.7528612783565555 0.3948719460635886	0.105759
C	0.5389098395443186 0.7228043363253583 0.4608155007571041	-0.177059
C	0.6089534661421639 0.7236241821523448 0.4605419265501877	0.104528
C	0.4290762908170783 0.7521929055007542 0.3918165662911635	0.053538
C	0.3930308362917574 0.8084113381942778 0.3624499071143790	-0.127931
C	0.3230096374296625 0.8076060743454213 0.3598663199830346	-0.126666
C	0.2869934180247882 0.7502081500475647 0.3851769912916448	0.069397
C	0.3229691979834171 0.6936814039905120 0.4133454630624411	-0.119534
C	0.3929416832678101 0.6948926909091722 0.4173993253131819	-0.126000
C	0.8887198509010210 0.7182142058739951 0.3351206889870884	0.102965
C	0.9586507033429675 0.7168957009428087 0.3312531587742117	-0.175507
C	0.9967516829712386 0.7471387216434445 0.3948719460635886	0.105762
C	0.9610902084556854 0.7771956636746417 0.4608155007571041	-0.177064
C	0.8910465338578361 0.7763758178476552 0.4605419265501877	0.104530
C	0.0709237451829176 0.7478070944992458 0.3918165662911635	0.053537
C	0.1069691517082416 0.6915886618057222 0.3624499071143790	-0.127934
C	0.1769903385703353 0.6923938776545818 0.3598663199830346	-0.126667
C	0.2130065819752117 0.7497918499524353 0.3851769912916448	0.069398
C	0.1770307780165810 0.8063185960094880 0.4133454630624411	-0.119537
C	0.1070583167321898 0.8051072620908275 0.4173993253131819	-0.126000
C	0.7182142058739951 0.6112801490989790 0.3351206889870884	0.102965
C	0.7168957009428087 0.5413492966570325 0.3312531587742117	-0.175507
C	0.7471387216434445 0.5032483650287582 0.3948719460635886	0.105761
C	0.7771956636746417 0.5389098395443186 0.4608155007571041	-0.177061
C	0.7763758178476552 0.6089534661421639 0.4605419265501877	0.104527
C	0.7478070944992458 0.4290762908170783 0.3918165662911635	0.053538
C	0.6915886618057222 0.3930308362917574 0.3624499071143790	-0.127931
C	0.6923938776545818 0.3230096374296625 0.3598663199830346	-0.126666
C	0.7497918499524353 0.2869934180247882 0.3851769912916448	0.069399
C	0.8063185960094880 0.3229691979834171 0.4133454630624411	-0.119535
C	0.8051072620908275 0.3929416832678101 0.4173993253131819	-0.125999
C	0.7817857941260049 0.8887198509010210 0.3351206889870884	0.102967
C	0.7831042990571913 0.9586507033429675 0.3312531587742117	-0.175510
C	0.7528612783565555 0.9967516829712386 0.3948719460635886	0.105760
C	0.7228043363253583 0.9610902084556854 0.4608155007571041	-0.177061
C	0.7236241821523448 0.8910465338578361 0.4605419265501877	0.104531
C	0.7521929055007542 0.0709237451829176 0.3918165662911635	0.053537
C	0.8084113381942778 0.1069691517082416 0.3624499071143790	-0.127934
C	0.8076060743454213 0.1769903385703353 0.3598663199830346	-0.126668
C	0.7502081500475647 0.2130065819752117 0.3851769912916448	0.069396
C	0.6936814039905120 0.1770307780165810 0.4133454630624411	-0.119536
C	0.6948926909091722 0.1070583167321898 0.4173993253131819	-0.126002
C	0.3887198269010262 0.2817858661260036 0.1648793270129132	0.102967
C	0.4586506553429706 0.2831043470571884 0.1687468102257893	-0.175511
C	0.4967516349712418 0.2528613263565525 0.1051280539364114	0.105761
C	0.4610902564556821 0.2228042883253542 0.0391844952429025	-0.177060
C	0.3910465578578307 0.2236242301523417 0.0394580654498117	0.104529
C	0.5709237091829219 0.2521929535007510 0.1081834257088359	0.053537
C	0.6069691637082426 0.3084113381942776 0.1375500618856221	-0.127934
C	0.6769902905703311 0.3076060983454163 0.1401336640169642	-0.126667
C	0.7130066299752156 0.2502081500475645 0.1148229857083569	0.069399
C	0.6770307540165791 0.1936814039905120 0.0866545519375566	-0.119536
C	0.6070583407321846 0.1948927019091698 0.0826006896868158	-0.126002
C	0.1112801490989788 0.2182141578739983 0.1648793270129132	0.102964
C	0.0413492846570315 0.2168956769428134 0.1687468102257893	-0.175506
C	0.0032483440287601 0.2471386736434475 0.1051280539364114	0.105761
C	0.0389097705443165 0.2771957116746457 0.0391844952429025	-0.177059
C	0.1089534061421663 0.2763757938476604 0.0394580654498117	0.104528
C	0.9290762428170812 0.2478070224992469 0.1081834257088359	0.053539
C	0.8930308842917543 0.1915886968057219 0.1375500618856221	-0.127933
C	0.8230097094296689 0.1923939136545775 0.1401336640169642	-0.126665
C	0.7869933700247844 0.2497918259524336 0.1148229857083569	0.069397
C	0.8229692929834213 0.3063185960094880 0.0866545519375566	-0.119535
C	0.8929417552678163 0.3051073330908295 0.0826006896868158	-0.125997
C	0.2817858661260036 0.1112801490989788 0.1648793270129132	0.102964
C	0.2831043470571884 0.0413492846570315 0.1687468102257893	-0.175509
C	0.2528613263565525 0.0032483440287601 0.1051280539364114	0.105762
C	0.2228042883253542 0.0389097705443165 0.0391844952429025	-0.177056
C	0.2236242301523417 0.1089534061421663 0.0394580654498117	0.104528
C	0.2521929535007510 0.9290762428170812 0.1081834257088359	0.053538
C	0.3084113381942776 0.8930308842917543 0.1375500618856221	-0.127932
C	0.3076060983454163 0.8230097094296689 0.1401336640169642	-0.126667
C	0.2502081500475645 0.7869933700247844 0.1148229857083569	0.069398
C	0.1936814039905120 0.8229692929834213 0.0866545519375566	-0.119536
C	0.1948927019091698 0.8929417552678163 0.0826006896868158	-0.125998
C	0.2182141578739983 0.3887198269010262 0.1648793270129132	0.102968
C	0.2168956769428134 0.4586506553429706 0.1687468102257893	-0.175508
C	0.2471386736434475 0.4967516349712418 0.1051280539364114	0.105760
C	0.2771957116746457 0.4610902564556821 0.0391844952429025	-0.177063
C	0.2763757938476604 0.3910465578578307 0.0394580654498117	0.104530
C	0.2478070224992469 0.5709237091829219 0.1081834257088359	0.053537
C	0.1915886968057219 0.6069691637082426 0.1375500618856221	-0.127935
C	0.1923939136545775 0.6769902905703311 0.1401336640169642	-0.126665
C	0.2497918259524336 0.7130066299752156 0.1148229857083569	0.069397
C	0.3063185960094880 0.6770307540165791 0.0866545519375566	-0.119535
C	0.3051073330908295 0.6070583407321846 0.0826006896868158	-0.126001
H	0.3583152707004780 0.1962394304810814 0.7146260821397693	0.095702
H	0.4832253598595359 0.1941910769134616 0.7227285913290833	0.115585
H	0.4876704933753754 0.2999653294512697 0.4866923869292135	0.116065
H	0.3623449367692487 0.2987217603017864 0.4883983240827617	0.095387
H	0.5795369381500710 0.1465657518391471 0.6570742687099631	0.099841
H	0.7045239099260038 0.1485607718582051 0.6631201479443818	0.101900
H	0.7045640279169662 0.3507345552859774 0.5654199607660397	0.102126
H	0.5797545919539112 0.3493524353384288 0.5604357691574352	0.104507
H	0.1416846932995190 0.3037605935189206 0.7146260821397693	0.095700
H	0.0167746461404576 0.3058089470865403 0.7227285913290833	0.115588
H	0.0123294956246272 0.2000346825487313 0.4866923869292135	0.116057
H	0.1376550872307535 0.2012782276982125 0.4883983240827617	0.095387
H	0.9204631088499293 0.3534342481608529 0.6570742687099631	0.099841
H	0.7954760900739962 0.3514392161417939 0.6631201479443818	0.101899
H	0.7954359720830338 0.1492654567140236 0.5654199607660397	0.102131
H	0.9202454080460888 0.1506475526615773 0.5604357691574352	0.104511
H	0.3037605935189206 0.3583152707004780 0.7146260821397693	0.095702
H	0.3058089470865403 0.4832253598595359 0.7227285913290833	0.115588
H	0.2000346825487313 0.4876704933753754 0.4866923869292135	0.116064
H	0.2012782276982125 0.3623449367692487 0.4883983240827617	0.095387
H	0.3534342481608529 0.5795369381500710 0.6570742687099631	0.099840
H	0.3514392161417939 0.7045239099260038 0.6631201479443818	0.101899
H	0.1492654567140236 0.7045640279169662 0.5654199607660397	0.102129
H	0.1506475526615773 0.5797545919539112 0.5604357691574352	0.104511
H	0.1962394304810814 0.1416846932995190 0.7146260821397693	0.095701
H	0.1941910769134616 0.0167746461404576 0.7227285913290833	0.115585
H	0.2999653294512697 0.0123294956246272 0.4866923869292135	0.116058
H	0.2987217603017864 0.1376550872307535 0.4883983240827617	0.095387
H	0.1465657518391471 0.9204631088499293 0.6570742687099631	0.099843
H	0.1485607718582051 0.7954760900739962 0.6631201479443818	0.101901
H	0.3507345552859774 0.7954359720830338 0.5654199607660397	0.102128
H	0.3493524353384288 0.9202454080460888 0.5604357691574352	0.104508
H	0.6416846812995177 0.6962394304810812 0.7853739178602307	0.095701
H	0.5167745921404602 0.6941910529134597 0.7772714086709167	0.115585
H	0.5123295066246244 0.7999653294512697 0.0133075980707817	0.116064
H	0.6376550632307514 0.7987217363017847 0.0116017039172406	0.095386
H	0.4204630618499291 0.6465657518391471 0.8429257312900369	0.099842
H	0.2954761140739985 0.6485607838582063 0.8368798520556182	0.101900
H	0.2954359720830340 0.8507345552859776 0.9345800392339603	0.102128
H	0.4202454560460855 0.8493524593384238 0.9395642308425648	0.104510
H	0.8583153667004791 0.8037606175189228 0.7853739178602307	0.095701
H	0.9832253118595390 0.8058089470865403 0.7772714086709167	0.115586
H	0.9876704453753787 0.7000346705487303 0.0133075980707817	0.116065
H	0.8623448407692478 0.7012782636982153 0.0116017039172406	0.095389
H	0.0795369381500709 0.8534342481608529 0.8429257312900369	0.099840
H	0.2045238859260016 0.8514392161417937 0.8368798520556182	0.101898
H	0.2045640279169661 0.6492654927140192 0.9345800392339603	0.102129
H	0.0797545859539109 0.6506475406615760 0.9395642308425648	0.104508
H	0.6962394304810812 0.8583153667004791 0.7853739178602307	0.095701
H	0.6941910529134597 0.9832253118595390 0.7772714086709167	0.115586
H	0.7999653294512697 0.9876704453753787 0.0133075980707817	0.116066
H	0.7987217363017847 0.8623448407692478 0.0116017039172406	0.095389
H	0.6465657518391471 0.0795369381500709 0.8429257312900369	0.099843
H	0.6485607838582063 0.2045238859260016 0.8368798520556182	0.101899
H	0.8507345552859776 0.2045640279169661 0.9345800392339603	0.102127
H	0.8493524593384240 0.0797545859539109 0.9395642308425648	0.104508
H	0.8037606175189228 0.6416846812995177 0.7853739178602307	0.095701
H	0.8058089470865403 0.5167745921404602 0.7772714086709167	0.115586
H	0.7000346705487303 0.5123295066246244 0.0133075980707817	0.116063
H	0.7012782636982153 0.6376550632307514 0.0116017039172406	0.095387
H	0.8534342481608529 0.4204630618499291 0.8429257312900369	0.099840
H	0.8514392161417937 0.2954761140739985 0.8368798520556182	0.101899
H	0.6492654927140192 0.2954359720830340 0.9345800392339603	0.102130
H	0.6506475406615762 0.4202454560460855 0.9395642308425648	0.104510
H	0.6416846812995177 0.8037606175189228 0.2853739498602259	0.095700
H	0.5167745921404602 0.8058089470865403 0.2772714396709154	0.115585
H	0.5123295066246244 0.7000346705487303 0.5133075820707873	0.116086
H	0.6376550632307514 0.7012782636982153 0.5116016759172384	0.095386
H	0.4204630618499291 0.8534342481608529 0.3429257002900379	0.099841
H	0.2954761140739985 0.8514392161417937 0.3368798200556153	0.101900
H	0.2954359720830340 0.6492654927140192 0.4345800702339592	0.102131
H	0.4202454560460855 0.6506475406615762 0.4395642928425630	0.104509
H	0.8583153667004791 0.6962394304810812 0.2853739498602259	0.095702
H	0.9832253118595390 0.6941910529134597 0.2772714396709154	0.115583
H	0.9876704453753787 0.7999653294512697 0.5133075820707873	0.116088
H	0.8623448407692478 0.7987217363017847 0.5116016759172384	0.095385
H	0.0795369381500709 0.6465657518391471 0.3429257002900379	0.099841
H	0.2045238859260016 0.6485607838582063 0.3368798200556152	0.101899
H	0.2045640279169661 0.8507345552859776 0.4345800702339592	0.102126
H	0.0797545859539109 0.8493524593384238 0.4395642928425630	0.104506
H	0.6962394304810812 0.6416846812995177 0.2853739498602259	0.095701
H	0.6941910529134597 0.5167745921404602 0.2772714396709154	0.115583
H	0.7999653294512697 0.5123295066246244 0.5133075820707873	0.116087
H	0.7987217363017847 0.6376550632307514 0.5116016759172384	0.095386
H	0.6465657518391471 0.4204630618499291 0.3429257002900379	0.099842
H	0.6485607838582063 0.2954761140739985 0.3368798200556152	0.101901
H	0.8507345552859776 0.2954359720830340 0.4345800702339592	0.102129
H	0.8493524593384238 0.4202454560460855 0.4395642928425630	0.104507
H	0.8037606175189228 0.8583153667004791 0.2853739498602259	0.095702
H	0.8058089470865403 0.9832253118595390 0.2772714396709154	0.115585
H	0.7000346705487303 0.9876704453753787 0.5133075820707873	0.116087
H	0.7012782636982153 0.8623448407692478 0.5116016759172384	0.095385
H	0.8534342481608529 0.0795369381500709 0.3429257002900379	0.099840
H	0.8514392161417937 0.2045238859260016 0.3368798200556152	0.101898
H	0.6492654927140192 0.2045640279169661 0.4345800702339592	0.102128
H	0.6506475406615760 0.0797545859539109 0.4395642928425630	0.104509
H	0.3583152707004780 0.3037605935189206 0.2146260821397695	0.095701
H	0.4832253598595359 0.3058089470865403 0.2227286063290884	0.115584
H	0.4876704933753754 0.2000346825487313 0.9866924489292188	0.116087
H	0.3623449367692487 0.2012782276982125 0.9883982930827626	0.095387
H	0.5795369381500710 0.3534342481608529 0.1570742837099608	0.099840
H	0.7045239099260038 0.3514392161417939 0.1631201949443823	0.101898
H	0.7045640279169662 0.1492654567140236 0.0654199217660401	0.102129
H	0.5797545919539112 0.1506475526615773 0.0604357301574354	0.104507
H	0.1416846932995190 0.1962394304810814 0.2146260821397695	0.095701
H	0.0167746461404576 0.1941910769134616 0.2227286063290884	0.115583
H	0.0123294956246272 0.2999653294512697 0.9866924489292188	0.116080
H	0.1376550872307535 0.2987217603017864 0.9883982930827626	0.095384
H	0.9204631088499293 0.1465657518391471 0.1570742837099608	0.099842
H	0.7954760900739962 0.1485607718582051 0.1631201949443823	0.101900
H	0.7954359720830338 0.3507345552859774 0.0654199217660401	0.102128
H	0.9202454080460888 0.3493524353384288 0.0604357301574354	0.104509
H	0.3037605935189206 0.1416846932995190 0.2146260821397695	0.095701
H	0.3058089470865403 0.0167746461404576 0.2227286063290884	0.115584
H	0.2000346825487313 0.0123294956246272 0.9866924489292188	0.116079
H	0.2012782276982125 0.1376550872307535 0.9883982930827626	0.095384
H	0.3534342481608529 0.9204631088499293 0.1570742837099608	0.099840
H	0.3514392161417939 0.7954760900739962 0.1631201949443823	0.101899
H	0.1492654567140236 0.7954359720830338 0.0654199217660401	0.102130
H	0.1506475526615773 0.9202454080460888 0.0604357301574354	0.104509
H	0.1962394304810814 0.3583152707004780 0.2146260821397695	0.095701
H	0.1941910769134616 0.4832253598595359 0.2227286063290884	0.115584
H	0.2999653294512697 0.4876704933753754 0.9866924489292187	0.116088
H	0.2987217603017864 0.3623449367692487 0.9883982930827626	0.095386
H	0.1465657518391471 0.5795369381500710 0.1570742837099608	0.099843
H	0.1485607718582051 0.7045239099260038 0.1631201949443823	0.101899
H	0.3507345552859774 0.7045640279169662 0.0654199217660401	0.102127
H	0.3493524353384288 0.5797545919539112 0.0604357301574354	0.104507
Ni	0.2500000000000000 0.2500000000000000 0.6008787315815766	0.758171
Ni	0.7500000000000000 0.7500000000000000 0.8991212684184234	0.758171
Ni	0.7500000000000000 0.7500000000000000 0.3991212064184249	0.758168
Ni	0.2500000000000000 0.2500000000000000 0.1008787545815752	0.758168
Sn	0.2500000000000000 0.2500000000000000 0.3511878315300602	1.891447
Sn	0.7500000000000000 0.7500000000000000 0.1488121834699375	1.891447
Sn	0.7500000000000000 0.7500000000000000 0.6488122614699369	1.891447
Sn	0.2500000000000000 0.2500000000000000 0.8511877385300631	1.891447
	  	
