#======================================================================

# CRYSTAL DATA

#----------------------------------------------------------------------

data_VESTA_phase_1


_pd_phase_name                         SnFSIX_2_Ni_i
_cell_length_a                         13.48762
_cell_length_b                         13.48762
_cell_length_c                         8.86940
_cell_angle_alpha                      90
_cell_angle_beta                       90
_cell_angle_gamma                      90
_symmetry_space_group_name_H-M         P 1
_symmetry_Int_Tables_number            1

loop_
_symmetry_equiv_pos_as_xyz
   x, y, z

loop_
   _atom_site_label
   _atom_site_fract_x
   _atom_site_fract_y
   _atom_site_fract_z
   _atom_site_charge
C	-0.0000000000000000 0.2963486926076563 0.3639903418819552	-0.150075
C	-0.0000000000000000 0.1936544176516131 0.3686014280370494	0.090604
C	0.5000000000000000 0.7963486926076563 0.8639903708819536	-0.150075
C	0.5000000000000000 0.6936544356516148 0.8686014280370492	0.090604
C	-0.0000000000000000 0.7036513073923437 0.3639903418819552	-0.150077
C	-0.0000000000000000 0.8063455643483852 0.3686014280370494	0.090607
C	0.5000000000000000 0.2036513243923414 0.8639903708819536	-0.150078
C	0.5000000000000000 0.3063455643483856 0.8686014280370492	0.090606
C	0.7036513073923437 -0.0000000000000000 0.3639903418819552	-0.150074
C	0.8063455643483852 -0.0000000000000000 0.3686014280370494	0.090608
C	0.2036513243923414 0.5000000000000000 0.8639903708819536	-0.150074
C	0.3063455643483856 0.5000000000000000 0.8686014280370492	0.090608
C	0.2963486926076563 -0.0000000000000000 0.3639903418819552	-0.150076
C	0.1936544176516131 -0.0000000000000000 0.3686014280370494	0.090611
C	0.7963486926076563 0.5000000000000000 0.8639903708819536	-0.150077
C	0.6936544356516148 0.5000000000000000 0.8686014280370492	0.090611
C	-0.0000000000000000 0.2963486926076563 0.6360096291180464	-0.150071
C	-0.0000000000000000 0.1936544176516131 0.6313985719629508	0.090605
C	0.5000000000000000 0.7963486926076563 0.1360096581180450	-0.150071
C	0.5000000000000000 0.6936544356516148 0.1313985569629529	0.090605
C	-0.0000000000000000 0.7036513073923437 0.6360096291180464	-0.150073
C	-0.0000000000000000 0.8063455643483852 0.6313985719629508	0.090607
C	0.5000000000000000 0.2036513243923414 0.1360096581180450	-0.150073
C	0.5000000000000000 0.3063455643483856 0.1313985569629529	0.090607
C	0.2963486926076563 -0.0000000000000000 0.6360096291180464	-0.150072
C	0.1936544176516131 -0.0000000000000000 0.6313985719629508	0.090612
C	0.7963486926076563 0.5000000000000000 0.1360096581180450	-0.150072
C	0.6936544356516148 0.5000000000000000 0.1313985569629529	0.090612
C	0.7036513073923437 -0.0000000000000000 0.6360096291180464	-0.150070
C	0.8063455643483852 -0.0000000000000000 0.6313985719629508	0.090609
C	0.2036513243923414 0.5000000000000000 0.1360096581180450	-0.150070
C	0.3063455643483856 0.5000000000000000 0.1313985569629529	0.090609
C	-0.0000000000000000 0.4547988436120581 0.5000000000000000	-0.089480
C	-0.0000000000000000 0.3501807464486058 0.5000000000000000	0.167835
C	0.5000000000000000 0.9547988776120612 0.0000000000000000	-0.089480
C	0.5000000000000000 0.8501807114486066 0.0000000000000000	0.167835
C	-0.0000000000000000 0.5452011563879416 0.5000000000000000	-0.089221
C	-0.0000000000000000 0.6498192885513934 0.5000000000000000	0.167803
C	0.5000000000000000 0.0452011353879367 0.0000000000000000	-0.089221
C	0.5000000000000000 0.1498192885513936 0.0000000000000000	0.167804
C	0.5452011563879416 -0.0000000000000000 0.5000000000000000	-0.089480
C	0.6498192885513934 -0.0000000000000000 0.5000000000000000	0.167835
C	0.0452011353879367 0.5000000000000000 0.0000000000000000	-0.089480
C	0.1498192885513936 0.5000000000000000 0.0000000000000000	0.167835
C	0.4547988436120581 -0.0000000000000000 0.5000000000000000	-0.089221
C	0.3501807464486058 -0.0000000000000000 0.5000000000000000	0.167803
C	0.9547988776120612 0.5000000000000000 0.0000000000000000	-0.089221
C	0.8501807114486066 0.5000000000000000 0.0000000000000000	0.167803
H	-0.0000000000000000 0.3337767713288506 0.2551489692139753	0.126112
H	-0.0000000000000000 0.1499238988142779 0.2655296624461765	0.108410
H	0.5000000000000000 0.8337767713288501 0.7551489692139748	0.126112
H	0.5000000000000000 0.6499238458142772 0.7655296924461792	0.108410
H	-0.0000000000000000 0.6662232286711499 0.2551489692139753	0.126111
H	-0.0000000000000000 0.8500761541857228 0.2655296624461765	0.108410
H	0.5000000000000000 0.1662232286711494 0.7551489692139748	0.126111
H	0.5000000000000000 0.3500761191857165 0.7655296924461792	0.108410
H	0.6662232286711499 -0.0000000000000000 0.2551489692139753	0.126112
H	0.8500761541857228 -0.0000000000000000 0.2655296624461765	0.108408
H	0.1662232286711494 0.5000000000000000 0.7551489692139748	0.126112
H	0.3500761191857165 0.5000000000000000 0.7655296924461792	0.108408
H	0.3337767713288506 -0.0000000000000000 0.2551489692139753	0.126111
H	0.1499238988142779 -0.0000000000000000 0.2655296624461765	0.108408
H	0.8337767713288501 0.5000000000000000 0.7551489692139748	0.126111
H	0.6499238458142772 0.5000000000000000 0.7655296924461792	0.108408
H	-0.0000000000000000 0.3337767713288506 0.7448510307860252	0.126112
H	-0.0000000000000000 0.1499238988142779 0.7344702495538231	0.108410
H	0.5000000000000000 0.8337767713288501 0.2448510307860246	0.126112
H	0.5000000000000000 0.6499238458142772 0.2344703375538235	0.108410
H	-0.0000000000000000 0.6662232286711499 0.7448510307860252	0.126110
H	-0.0000000000000000 0.8500761541857228 0.7344702495538231	0.108410
H	0.5000000000000000 0.1662232286711494 0.2448510307860246	0.126110
H	0.5000000000000000 0.3500761191857165 0.2344703375538235	0.108410
H	0.3337767713288506 -0.0000000000000000 0.7448510307860252	0.126110
H	0.1499238988142780 -0.0000000000000000 0.7344702495538231	0.108408
H	0.8337767713288501 0.5000000000000000 0.2448510307860246	0.126110
H	0.6499238458142772 0.5000000000000000 0.2344703375538235	0.108408
H	0.6662232286711499 -0.0000000000000000 0.7448510307860252	0.126112
H	0.8500761541857228 -0.0000000000000000 0.7344702495538231	0.108408
H	0.1662232286711494 0.5000000000000000 0.2448510307860246	0.126112
H	0.3500761191857165 0.5000000000000000 0.2344703375538235	0.108408
Ni	-0.0000000000000000 -0.0000000000000000 0.5000000000000000	0.445699
Ni	0.5000000000000000 0.5000000000000000 0.0000000000000000	0.445699
Sn	-0.0000000000000000 -0.0000000000000000 0.0000000000000000	1.858531
Sn	0.5000000000000000 0.5000000000000000 0.5000000000000000	1.858531
N	-0.0000000000000000 0.1429058830790838 0.5000000000000000	-0.151354
N	0.5000000000000000 0.6429058650790823 0.0000000000000000	-0.151354
N	-0.0000000000000000 0.8570941349209177 0.5000000000000000	-0.151354
N	0.5000000000000000 0.3570941349209175 0.0000000000000000	-0.151354
N	0.8570941349209177 -0.0000000000000000 0.5000000000000000	-0.151356
N	0.3570941349209175 0.5000000000000000 0.0000000000000000	-0.151356
N	0.1429058830790838 -0.0000000000000000 0.5000000000000000	-0.151355
N	0.6429058650790823 0.5000000000000000 0.0000000000000000	-0.151355
F	-0.0000000000000000 -0.0000000000000000 0.7721672595873313	-0.539020
F	0.5000000000000000 0.5000000000000000 0.2721673485873356	-0.539020
F	-0.0000000000000000 -0.0000000000000000 0.2278326664126694	-0.539020
F	0.5000000000000000 0.5000000000000000 0.7278327404126687	-0.539020
F	0.6047202456064281 0.6047202456064281 0.5000000000000000	-0.583771
F	0.6047202456064281 0.3952797543935718 0.5000000000000000	-0.583771
F	0.3952797543935718 0.6047202456064281 0.5000000000000000	-0.583772
F	0.3952797543935718 0.3952797543935718 0.5000000000000000	-0.583771
F	0.1047202626064260 0.1047202626064260 0.0000000000000000	-0.583771
F	0.8952797543935719 0.8952797543935719 0.0000000000000000	-0.583771
F	0.8952797543935719 0.1047202626064260 0.0000000000000000	-0.583772
F	0.1047202626064260 0.8952797543935719 0.0000000000000000	-0.583771
	  	
