#======================================================================

# CRYSTAL DATA

#----------------------------------------------------------------------

data_VESTA_phase_1


_pd_phase_name                         SnFSIX_5_Cd_i
_cell_length_a                         20.36024
_cell_length_b                         20.36024
_cell_length_c                         16.83421
_cell_angle_alpha                      90
_cell_angle_beta                       90
_cell_angle_gamma                      90
_symmetry_space_group_name_H-M         P 1
_symmetry_Int_Tables_number            1

loop_
_symmetry_equiv_pos_as_xyz
   x, y, z

loop_
   _atom_site_label
   _atom_site_fract_x
   _atom_site_fract_y
   _atom_site_fract_z
   _atom_site_charge
F	0.3019745385635998 0.1669110864392338 0.3493456952190050	-0.581385
F	0.1980254494363991 0.3330889135607665 0.3493456952190050	-0.581390
F	0.3330889135607665 0.3019745385635998 0.3493456952190050	-0.581388
F	0.1669110864392338 0.1980254494363991 0.3493456952190050	-0.581388
F	0.6980254854363946 0.6669111104392360 0.1506543047809949	-0.581386
F	0.8019745145636054 0.8330888895607640 0.1506543047809949	-0.581390
F	0.6669111104392360 0.8019745145636054 0.1506543047809949	-0.581388
F	0.8330888895607640 0.6980254854363946 0.1506543047809949	-0.581389
F	0.6980254854363946 0.8330888895607640 0.6506543367809974	-0.581391
F	0.8019745145636054 0.6669111104392360 0.6506543367809974	-0.581386
F	0.6669111104392360 0.6980254854363946 0.6506543367809974	-0.581388
F	0.8330888895607640 0.8019745145636054 0.6506543367809974	-0.581389
F	0.3019745385635998 0.3330889135607665 0.8493456632190026	-0.581390
F	0.1980254494363991 0.1669110864392338 0.8493456632190026	-0.581387
F	0.3330889135607665 0.1980254494363991 0.8493456632190026	-0.581388
F	0.1669110864392338 0.3019745385635998 0.8493456632190026	-0.581388
F	0.2500000000000000 0.2500000000000000 0.4690262513547716	-0.534343
F	0.2500000000000000 0.2500000000000000 0.2303795555577397	-0.536107
F	0.7500000000000000 0.7500000000000000 0.0309737756452273	-0.534340
F	0.7500000000000000 0.7500000000000000 0.2696204284422590	-0.536107
F	0.7500000000000000 0.7500000000000000 0.5309737796452282	-0.534338
F	0.7500000000000000 0.7500000000000000 0.7696204284422589	-0.536108
F	0.2500000000000000 0.2500000000000000 0.9690262203547719	-0.534342
F	0.2500000000000000 0.2500000000000000 0.7303795715577410	-0.536108
N	0.3650873840204112 0.2462755727269857 0.6015929901827823	-0.246284
N	0.1349126159795890 0.2537244272730143 0.6015929901827823	-0.246297
N	0.2537244272730143 0.3650873840204112 0.6015929901827823	-0.246284
N	0.2462755727269857 0.1349126159795890 0.6015929901827823	-0.246297
N	0.6349126399795909 0.7462755487269839 0.8984070098172177	-0.246283
N	0.8650873600204091 0.7537244512730161 0.8984070098172177	-0.246282
N	0.7462755487269839 0.8650873600204091 0.8984070098172177	-0.246282
N	0.7537244512730161 0.6349126399795909 0.8984070098172177	-0.246283
N	0.6349126399795909 0.7537244512730161 0.3984070408172168	-0.246282
N	0.8650873600204091 0.7462755487269839 0.3984070408172168	-0.246280
N	0.7462755487269839 0.6349126399795909 0.3984070408172168	-0.246281
N	0.7537244512730161 0.8650873600204091 0.3984070408172168	-0.246280
N	0.3650873840204112 0.2537244272730143 0.1015929901827823	-0.246283
N	0.1349126159795890 0.2462755727269857 0.1015929901827823	-0.246296
N	0.2537244272730143 0.1349126159795890 0.1015929901827823	-0.246295
N	0.2462755727269857 0.3650873840204112 0.1015929901827823	-0.246284
C	0.3975022469617372 0.2223360844600110 0.6650136214934487	0.101702
C	0.4657060120840285 0.2217707339076354 0.6690058955339238	-0.176138
C	0.5026952946755656 0.2477292014163637 0.6060362059989243	0.107848
C	0.4679608636117188 0.2729356165402496 0.5407817126986342	-0.179766
C	0.3997394815559192 0.2709375698903702 0.5403647395610907	0.099439
C	0.5750521101997922 0.2485325497422335 0.6078597496974270	0.052689
C	0.6105103141624405 0.1942310521642673 0.6364729310158074	-0.127659
C	0.6788279650549554 0.1945819308005455 0.6363088196752893	-0.125501
C	0.7137710558637078 0.2498408171941340 0.6095098334005149	0.067849
C	0.6782502200823201 0.3045102658667537 0.5820211887927795	-0.121772
C	0.6099391783412236 0.3035355781926618 0.5803264555549257	-0.125950
C	0.1024977290382675 0.2776639395399911 0.6650136214934487	0.101704
C	0.0342939279159736 0.2782292900923667 0.6690058955339238	-0.176139
C	-0.0026953156755638 0.2522707985836361 0.6060362059989243	0.107837
C	0.0320391633882799 0.2270643834597504 0.5407817126986342	-0.179727
C	0.1002604824440780 0.2290624541096317 0.5403647395610905	0.099429
C	0.9249478418002109 0.2514674262577645 0.6078597496974270	0.052690
C	0.8894897338375564 0.3057689828357320 0.6364729310158074	-0.127656
C	0.8211720349450446 0.3054180811994486 0.6363088196752893	-0.125500
C	0.7862289441362922 0.2501591588058638 0.6095098334005149	0.067847
C	0.8217498269176803 0.1954897341332465 0.5820211887927795	-0.121768
C	0.8900609176587773 0.1964644568073375 0.5803264555549257	-0.125950
C	0.2776639395399911 0.3975022469617372 0.6650136214934487	0.101703
C	0.2782292900923667 0.4657060120840285 0.6690058955339238	-0.176140
C	0.2522707985836361 0.5026952946755656 0.6060362059989243	0.107847
C	0.2270643834597504 0.4679608636117188 0.5407817126986342	-0.179764
C	0.2290624541096317 0.3997394815559192 0.5403647395610907	0.099440
C	0.2514674262577645 0.5750521101997922 0.6078597496974270	0.052689
C	0.3057689828357320 0.6105103141624405 0.6364729310158074	-0.127660
C	0.3054180811994486 0.6788279650549554 0.6363088196752893	-0.125501
C	0.2501591588058638 0.7137710558637078 0.6095098334005149	0.067847
C	0.1954897341332465 0.6782502200823201 0.5820211887927795	-0.121771
C	0.1964644568073375 0.6099391783412236 0.5803264555549257	-0.125951
C	0.2223360844600110 0.1024977290382675 0.6650136214934487	0.101704
C	0.2217707339076354 0.0342939279159736 0.6690058955339238	-0.176137
C	0.2477292014163637 -0.0026953156755638 0.6060362059989243	0.107839
C	0.2729356165402496 0.0320391633882799 0.5407817126986342	-0.179730
C	0.2709375698903702 0.1002604824440780 0.5403647395610907	0.099429
C	0.2485325497422335 0.9249478418002109 0.6078597496974270	0.052690
C	0.1942310521642673 0.8894897338375564 0.6364729310158074	-0.127656
C	0.1945819308005455 0.8211720349450446 0.6363088196752893	-0.125499
C	0.2498408171941340 0.7862289441362922 0.6095098334005149	0.067850
C	0.3045102658667537 0.8217498269176803 0.5820211887927795	-0.121769
C	0.3035355781926618 0.8900609176587773 0.5803264555549257	-0.125949
C	0.6024977290382675 0.7223361324600082 0.8349863785065513	0.101700
C	0.5342939399159741 0.7217707579076299 0.8309941044660762	-0.176136
C	0.4973047053244347 0.7477292494163604 0.8939637940010757	0.107845
C	0.5320392323882815 0.7729355685402458 0.9592182873013658	-0.179765
C	0.6002605424440760 0.7709375938903650 0.9596352604389093	0.099437
C	0.4249478898002080 0.7485326217422323 0.8921402503025730	0.052690
C	0.3894896858375594 0.6942310171642677 0.8635270689841926	-0.127657
C	0.3211719629450389 0.6945818948005497 0.8636911803247107	-0.125500
C	0.2862289921362969 0.7498408411941361 0.8904901665994851	0.067848
C	0.3217497319176762 0.8045102658667537 0.9179788112072205	-0.121770
C	0.3900608456587715 0.8035355071926595 0.9196735444450743	-0.125948
C	0.8975022709617325 0.7776638675399918 0.8349863785065513	0.101702
C	0.9657060600840259 0.7782292420923701 0.8309941044660762	-0.176142
C	0.0026953426755624 0.7522707505836396 0.8939637940010757	0.107848
C	0.9679608156117224 0.7270644314597542 0.9592182873013658	-0.179763
C	0.8997394575559240 0.7290624061096350 0.9596352604389093	0.099431
C	0.0750521461997880 0.7514673782577677 0.8921402503025730	0.052689
C	0.1105103021624396 0.8057689828357323 0.8635270689841926	-0.127658
C	0.1788280130549590 0.8054180571994535 0.8636911803247107	-0.125501
C	0.2137710078637032 0.7501591588058639 0.8904901665994851	0.067849
C	0.1782502440823216 0.6954897341332463 0.9179788112072205	-0.121770
C	0.1099391543412285 0.6964644458073401 0.9196735444450743	-0.125952
C	0.7223361324600082 0.8975022709617325 0.8349863785065513	0.101704
C	0.7217707579076299 0.9657060600840259 0.8309941044660762	-0.176138
C	0.7477292494163604 0.0026953426755624 0.8939637940010757	0.107847
C	0.7729355685402458 0.9679608156117224 0.9592182873013658	-0.179766
C	0.7709375938903650 0.8997394575559240 0.9596352604389093	0.099430
C	0.7485326217422323 0.0750521461997880 0.8921402503025730	0.052689
C	0.6942310171642677 0.1105103021624396 0.8635270689841926	-0.127659
C	0.6945818948005497 0.1788280130549590 0.8636911803247107	-0.125500
C	0.7498408411941361 0.2137710078637032 0.8904901665994851	0.067848
C	0.8045102658667537 0.1782502440823216 0.9179788112072205	-0.121770
C	0.8035355071926595 0.1099391543412285 0.9196735444450743	-0.125951
C	0.7776638675399918 0.6024977290382675 0.8349863785065513	0.101699
C	0.7782292420923701 0.5342939399159741 0.8309941044660762	-0.176139
C	0.7522707505836396 0.4973047053244347 0.8939637940010757	0.107846
C	0.7270644314597542 0.5320392323882815 0.9592182873013658	-0.179761
C	0.7290624061096350 0.6002605424440760 0.9596352604389093	0.099438
C	0.7514673782577677 0.4249478898002080 0.8921402503025730	0.052690
C	0.8057689828357323 0.3894896858375594 0.8635270689841926	-0.127656
C	0.8054180571994535 0.3211719629450389 0.8636911803247107	-0.125502
C	0.7501591588058639 0.2862289921362969 0.8904901665994851	0.067849
C	0.6954897341332463 0.3217497319176762 0.9179788112072205	-0.121771
C	0.6964644458073401 0.3900608456587715 0.9196735444450743	-0.125949
C	0.6024977290382675 0.7776638675399918 0.3349864095065502	0.101701
C	0.5342939399159741 0.7782292420923701 0.3309941044660759	-0.176139
C	0.4973047053244347 0.7522707505836396 0.3939637940010759	0.107845
C	0.5320392323882815 0.7270644314597542 0.4592183183013716	-0.179761
C	0.6002605424440760 0.7290624061096350 0.4596352604389085	0.099437
C	0.4249478898002080 0.7514673782577677 0.3921402503025732	0.052690
C	0.3894896858375594 0.8057689828357323 0.3635270379841944	-0.127655
C	0.3211719629450389 0.8054180571994535 0.3636912113247102	-0.125501
C	0.2862289921362969 0.7501591588058639 0.3904900725994849	0.067849
C	0.3217497319176762 0.6954897341332463 0.4179788422072194	-0.121769
C	0.3900608456587715 0.6964644458073401 0.4196735444450740	-0.125949
C	0.8975022709617325 0.7223361324600082 0.3349864095065502	0.101702
C	0.9657060600840259 0.7217707579076299 0.3309941044660759	-0.176137
C	0.0026953426755624 0.7477292494163604 0.3939637940010759	0.107849
C	0.9679608156117224 0.7729355685402458 0.4592183183013716	-0.179766
C	0.8997394575559240 0.7709375938903650 0.4596352604389085	0.099431
C	0.0750521461997880 0.7485326217422323 0.3921402503025732	0.052689
C	0.1105103021624396 0.6942310171642677 0.3635270379841944	-0.127658
C	0.1788280130549590 0.6945818948005497 0.3636912113247102	-0.125502
C	0.2137710078637032 0.7498408411941361 0.3904900725994849	0.067850
C	0.1782502440823216 0.8045102658667537 0.4179788422072194	-0.121773
C	0.1099391543412285 0.8035355071926595 0.4196735444450740	-0.125949
C	0.7223361324600082 0.6024977290382675 0.3349864095065502	0.101701
C	0.7217707579076299 0.5342939399159741 0.3309941044660758	-0.176137
C	0.7477292494163604 0.4973047053244347 0.3939637940010759	0.107847
C	0.7729355685402458 0.5320392323882815 0.4592183183013716	-0.179763
C	0.7709375938903650 0.6002605424440760 0.4596352604389085	0.099437
C	0.7485326217422323 0.4249478898002080 0.3921402503025732	0.052690
C	0.6942310171642677 0.3894896858375594 0.3635270379841944	-0.127655
C	0.6945818948005497 0.3211719629450389 0.3636912113247102	-0.125501
C	0.7498408411941361 0.2862289921362969 0.3904900725994849	0.067851
C	0.8045102658667537 0.3217497319176762 0.4179788422072194	-0.121770
C	0.8035355071926595 0.3900608456587715 0.4196735444450740	-0.125947
C	0.7776638675399918 0.8975022709617325 0.3349864095065502	0.101702
C	0.7782292420923701 0.9657060600840259 0.3309941044660759	-0.176140
C	0.7522707505836396 0.0026953426755624 0.3939637940010759	0.107847
C	0.7270644314597542 0.9679608156117224 0.4592183183013716	-0.179764
C	0.7290624061096350 0.8997394575559240 0.4596352604389085	0.099432
C	0.7514673782577677 0.0750521461997880 0.3921402503025732	0.052689
C	0.8057689828357323 0.1105103021624396 0.3635270379841944	-0.127659
C	0.8054180571994535 0.1788280130549590 0.3636912113247102	-0.125503
C	0.7501591588058639 0.2137710078637032 0.3904900725994849	0.067847
C	0.6954897341332463 0.1782502440823216 0.4179788422072194	-0.121772
C	0.6964644458073401 0.1099391543412285 0.4196735444450740	-0.125950
C	0.3975022469617372 0.2776639395399911 0.1650136064934511	0.101704
C	0.4657060120840285 0.2782292900923667 0.1690058645339250	-0.176142
C	0.5026952946755656 0.2522707985836361 0.1060362059989242	0.107858
C	0.4679608636117188 0.2270643834597504 0.0407816776986353	-0.179786
C	0.3997394815559192 0.2290624541096317 0.0403647315610907	0.099448
C	0.5750521101997922 0.2514674262577645 0.1078597416974262	0.052688
C	0.6105103141624405 0.3057689828357320 0.1364729310158070	-0.127658
C	0.6788279650549554 0.3054180811994486 0.1363087726752888	-0.125502
C	0.7137710558637078 0.2501591588058638 0.1095099044005168	0.067850
C	0.6782502200823201 0.1954897341332465 0.0820211727927782	-0.121771
C	0.6099391783412236 0.1964644568073375 0.0803264705549238	-0.125951
C	0.1024977290382675 0.2223360844600110 0.1650136064934511	0.101703
C	0.0342939279159736 0.2217707339076354 0.1690058645339250	-0.176135
C	-0.0026953156755638 0.2477292014163637 0.1060362059989242	0.107848
C	0.0320391633882799 0.2729356165402496 0.0407816776986353	-0.179755
C	0.1002604824440779 0.2709375698903702 0.0403647315610907	0.099438
C	0.9249478418002109 0.2485325497422335 0.1078597416974262	0.052690
C	0.8894897338375564 0.1942310521642673 0.1364729310158070	-0.127657
C	0.8211720349450446 0.1945819308005455 0.1363087726752888	-0.125501
C	0.7862289441362922 0.2498408171941340 0.1095099044005168	0.067848
C	0.8217498269176803 0.3045102658667537 0.0820211727927782	-0.121770
C	0.8900609176587773 0.3035355781926618 0.0803264705549237	-0.125948
C	0.2776639395399911 0.1024977290382675 0.1650136064934511	0.101703
C	0.2782292900923667 0.0342939279159736 0.1690058645339250	-0.176139
C	0.2522707985836361 -0.0026953156755638 0.1060362059989242	0.107849
C	0.2270643834597504 0.0320391633882799 0.0407816776986353	-0.179752
C	0.2290624541096317 0.1002604824440779 0.0403647315610907	0.099439
C	0.2514674262577645 0.9249478418002109 0.1078597416974262	0.052690
C	0.3057689828357320 0.8894897338375564 0.1364729310158070	-0.127656
C	0.3054180811994486 0.8211720349450446 0.1363087726752888	-0.125502
C	0.2501591588058638 0.7862289441362922 0.1095099044005168	0.067850
C	0.1954897341332465 0.8217498269176803 0.0820211727927782	-0.121771
C	0.1964644568073375 0.8900609176587773 0.0803264705549237	-0.125948
C	0.2223360844600110 0.3975022469617372 0.1650136064934511	0.101705
C	0.2217707339076354 0.4657060120840285 0.1690058645339250	-0.176138
C	0.2477292014163637 0.5026952946755656 0.1060362059989242	0.107857
C	0.2729356165402496 0.4679608636117188 0.0407816776986353	-0.179790
C	0.2709375698903702 0.3997394815559192 0.0403647315610907	0.099448
C	0.2485325497422335 0.5750521101997922 0.1078597416974262	0.052688
C	0.1942310521642673 0.6105103141624405 0.1364729310158070	-0.127659
C	0.1945819308005455 0.6788279650549554 0.1363087726752888	-0.125501
C	0.2498408171941340 0.7137710558637078 0.1095099044005168	0.067848
C	0.3045102658667537 0.6782502200823201 0.0820211727927782	-0.121771
C	0.3035355781926618 0.6099391783412236 0.0803264705549238	-0.125950
H	0.3678985263049949 0.2042781709032879 0.7145675658519893	0.100089
H	0.4896411167052230 0.2026707789413424 0.7221481148588099	0.116751
H	0.4938884379392333 0.2928635178588408 0.4895334435297308	0.116615
H	0.3717995755933927 0.2887609122912639 0.4892418510847247	0.098642
H	0.5837610380159880 0.1510478601932649 0.6573221878266110	0.100987
H	0.7059262613826179 0.1521218923686477 0.6583597271607489	0.102724
H	0.7046856351269386 0.3472917422554064 0.5596456411347285	0.102619
H	0.5828050815031788 0.3461509612740749 0.5586503525954560	0.104858
H	0.1321014376950023 0.2957218530967142 0.7145675658519893	0.100088
H	0.0103588892947704 0.2973292450586596 0.7221481148588099	0.116754
H	0.0061115510607692 0.2071364941411599 0.4895334435297308	0.116609
H	0.1282004484066089 0.2112390757087350 0.4892418510847247	0.098638
H	0.9162390089840123 0.3489521398067352 0.6573221878266110	0.100988
H	0.7940737386173821 0.3478780956313511 0.6583597271607489	0.102723
H	0.7953143648730614 0.1527082697445946 0.5596456411347285	0.102623
H	0.9171949184968212 0.1538490267259311 0.5586503525954560	0.104861
H	0.2957218530967142 0.3678985263049949 0.7145675658519893	0.100089
H	0.2973292450586596 0.4896411167052230 0.7221481148588099	0.116754
H	0.2071364941411599 0.4938884379392333 0.4895334435297308	0.116614
H	0.2112390757087350 0.3717995755933927 0.4892418510847247	0.098642
H	0.3489521398067352 0.5837610380159880 0.6573221878266110	0.100986
H	0.3478780956313511 0.7059262613826179 0.6583597271607489	0.102723
H	0.1527082697445946 0.7046856351269386 0.5596456411347285	0.102621
H	0.1538490267259311 0.5828050815031788 0.5586503525954560	0.104861
H	0.2042781709032879 0.1321014376950023 0.7145675658519893	0.100087
H	0.2026707789413424 0.0103588892947704 0.7221481148588099	0.116751
H	0.2928635178588408 0.0061115510607692 0.4895334435297308	0.116610
H	0.2887609122912639 0.1282004484066089 0.4892418510847247	0.098638
H	0.1510478601932649 0.9162390089840123 0.6573221878266110	0.100988
H	0.1521218923686477 0.7940737386173821 0.6583597271607489	0.102724
H	0.3472917422554064 0.7953143648730614 0.5596456411347285	0.102621
H	0.3461509612740748 0.9171949184968212 0.5586503525954560	0.104858
H	0.6321014256950022 0.7042781709032878 0.7854324341480107	0.100088
H	0.5103588352947734 0.7026707549413403 0.7778518851411901	0.116752
H	0.5061115620607667 0.7928635178588410 0.0104665414702644	0.116613
H	0.6282004244066068 0.7887608882912627 0.0107581769152773	0.098642
H	0.4162389619840124 0.6510478601932648 0.8426778121733890	0.100988
H	0.2940737626173840 0.6521219043686485 0.8416402728392511	0.102724
H	0.2953143648730612 0.8472917422554065 0.9403543588652715	0.102621
H	0.4171949664968188 0.8461509852740697 0.9413496474045440	0.104861
H	0.8678986223049947 0.7957218770967162 0.7854324341480107	0.100088
H	0.9896410687052257 0.7973292450586597 0.7778518851411901	0.116753
H	0.9938883899392364 0.7071364821411590 0.0104665414702644	0.116614
H	0.8717994795933923 0.7112391117087373 0.0107581769152773	0.098649
H	0.0837610380159878 0.8489521398067352 0.8426778121733890	0.100986
H	0.2059262373826157 0.8478780956313515 0.8416402728392511	0.102722
H	0.2046856351269387 0.6527083057445904 0.9403543588652715	0.102621
H	0.0828050755031778 0.6538490147259303 0.9413496474045440	0.104859
H	0.7042781709032878 0.8678986223049947 0.7854324341480107	0.100088
H	0.7026707549413403 0.9896410687052257 0.7778518851411901	0.116753
H	0.7928635178588410 0.9938883899392364 0.0104665414702644	0.116615
H	0.7887608882912627 0.8717994795933923 0.0107581769152773	0.098650
H	0.6510478601932648 0.0837610380159878 0.8426778121733890	0.100988
H	0.6521219043686485 0.2059262373826157 0.8416402728392511	0.102723
H	0.8472917422554065 0.2046856351269387 0.9403543588652715	0.102620
H	0.8461509852740697 0.0828050755031778 0.9413496474045440	0.104859
H	0.7957218770967162 0.6321014256950022 0.7854324341480107	0.100088
H	0.7973292450586597 0.5103588352947734 0.7778518851411901	0.116752
H	0.7071364821411590 0.5061115620607667 0.0104665414702644	0.116611
H	0.7112391117087373 0.6282004244066068 0.0107581769152773	0.098641
H	0.8489521398067352 0.4162389619840124 0.8426778121733890	0.100986
H	0.8478780956313515 0.2940737626173840 0.8416402728392511	0.102724
H	0.6527083057445904 0.2953143648730612 0.9403543588652715	0.102622
H	0.6538490147259303 0.4171949664968188 0.9413496474045440	0.104861
H	0.6321014256950022 0.7957218770967162 0.2854324661480060	0.100087
H	0.5103588352947734 0.7973292450586597 0.2778519161411895	0.116753
H	0.5061115620607667 0.7071364821411590 0.5104665254702698	0.116611
H	0.6282004244066068 0.7112391117087373 0.5107581489152750	0.098642
H	0.4162389619840124 0.8489521398067352 0.3426777811733905	0.100987
H	0.2940737626173840 0.8478780956313515 0.3416402408392490	0.102723
H	0.2953143648730612 0.6527083057445904 0.4403543898652701	0.102624
H	0.4171949664968188 0.6538490147259303 0.4413497094045422	0.104860
H	0.8678986223049947 0.7042781709032878 0.2854324661480060	0.100088
H	0.9896410687052257 0.7026707549413403 0.2778519161411895	0.116750
H	0.9938883899392364 0.7928635178588410 0.5104665254702698	0.116614
H	0.8717994795933923 0.7887608882912627 0.5107581489152750	0.098647
H	0.0837610380159878 0.6510478601932648 0.3426777811733905	0.100986
H	0.2059262373826157 0.6521219043686485 0.3416402408392490	0.102724
H	0.2046856351269387 0.8472917422554065 0.4403543898652701	0.102619
H	0.0828050755031778 0.8461509852740697 0.4413497094045422	0.104857
H	0.7042781709032878 0.6321014256950022 0.2854324661480060	0.100087
H	0.7026707549413403 0.5103588352947734 0.2778519161411895	0.116750
H	0.7928635178588410 0.5061115620607667 0.5104665254702698	0.116612
H	0.7887608882912627 0.6282004244066068 0.5107581489152750	0.098642
H	0.6510478601932648 0.4162389619840124 0.3426777811733905	0.100988
H	0.6521219043686485 0.2940737626173840 0.3416402408392490	0.102725
H	0.8472917422554065 0.2953143648730612 0.4403543898652701	0.102621
H	0.8461509852740697 0.4171949664968188 0.4413497094045422	0.104857
H	0.7957218770967162 0.8678986223049947 0.2854324661480060	0.100088
H	0.7973292450586597 0.9896410687052257 0.2778519161411895	0.116753
H	0.7071364821411590 0.9938883899392364 0.5104665254702698	0.116613
H	0.7112391117087373 0.8717994795933923 0.5107581489152750	0.098648
H	0.8489521398067352 0.0837610380159878 0.3426777811733905	0.100985
H	0.8478780956313515 0.2059262373826157 0.3416402408392490	0.102723
H	0.6527083057445904 0.2046856351269387 0.4403543898652701	0.102621
H	0.6538490147259303 0.0828050755031778 0.4413497094045422	0.104860
H	0.3678985263049949 0.2957218530967142 0.2145675658519893	0.100088
H	0.4896411167052230 0.2973292450586596 0.2221481298588143	0.116752
H	0.4938884379392333 0.2071364941411599 0.9895335055297363	0.116621
H	0.3717995755933927 0.2112390757087350 0.9892418200847259	0.098642
H	0.5837610380159880 0.3489521398067352 0.1573222028266081	0.100986
H	0.7059262613826179 0.3478780956313511 0.1583597741607487	0.102723
H	0.7046856351269386 0.1527082697445946 0.0596456021347290	0.102621
H	0.5828050815031788 0.1538490267259311 0.0586503135954562	0.104858
H	0.1321014376950023 0.2042781709032879 0.2145675658519893	0.100087
H	0.0103588892947704 0.2026707789413424 0.2221481298588143	0.116751
H	0.0061115510607692 0.2928635178588408 0.9895335055297363	0.116617
H	0.1282004484066089 0.2887609122912639 0.9892418200847259	0.098636
H	0.9162390089840123 0.1510478601932649 0.1573222028266081	0.100988
H	0.7940737386173821 0.1521218923686477 0.1583597741607487	0.102725
H	0.7953143648730614 0.3472917422554064 0.0596456021347290	0.102621
H	0.9171949184968212 0.3461509612740748 0.0586503135954562	0.104859
H	0.2957218530967142 0.1321014376950023 0.2145675658519893	0.100087
H	0.2973292450586596 0.0103588892947704 0.2221481298588143	0.116751
H	0.2071364941411599 0.0061115510607692 0.9895335055297363	0.116615
H	0.2112390757087350 0.1282004484066089 0.9892418200847259	0.098635
H	0.3489521398067352 0.9162390089840123 0.1573222028266081	0.100985
H	0.3478780956313511 0.7940737386173821 0.1583597741607487	0.102724
H	0.1527082697445946 0.7953143648730614 0.0596456021347290	0.102623
H	0.1538490267259311 0.9171949184968212 0.0586503135954562	0.104859
H	0.2042781709032879 0.3678985263049949 0.2145675658519893	0.100087
H	0.2026707789413424 0.4896411167052230 0.2221481298588143	0.116752
H	0.2928635178588408 0.4938884379392333 0.9895335055297363	0.116623
H	0.2887609122912639 0.3717995755933927 0.9892418200847259	0.098642
H	0.1510478601932649 0.5837610380159880 0.1573222028266081	0.100988
H	0.1521218923686477 0.7059262613826179 0.1583597741607487	0.102723
H	0.3472917422554064 0.7046856351269386 0.0596456021347290	0.102620
H	0.3461509612740749 0.5828050815031788 0.0586503135954562	0.104858
Cd	0.2500000000000000 0.2500000000000000 0.5996262026178509	0.826747
Cd	0.7500000000000000 0.7500000000000000 0.9003737973821491	0.826747
Cd	0.7500000000000000 0.7500000000000000 0.4003737353821509	0.826744
Cd	0.2500000000000000 0.2500000000000000 0.0996262256178494	0.826743
Sn	0.2500000000000000 0.2500000000000000 0.3496341468826609	1.890266
Sn	0.7500000000000000 0.7500000000000000 0.1503658681173368	1.890266
Sn	0.7500000000000000 0.7500000000000000 0.6503659461173361	1.890266
Sn	0.2500000000000000 0.2500000000000000 0.8496340538826639	1.890265
	  	
