#======================================================================

# CRYSTAL DATA

#----------------------------------------------------------------------

data_VESTA_phase_1


_pd_phase_name                         SnFSIX_4_Cu_i
_cell_length_a                         23.42356
_cell_length_b                         20.34350
_cell_length_c                         9.66602
_cell_angle_alpha                      90
_cell_angle_beta                       90
_cell_angle_gamma                      90
_symmetry_space_group_name_H-M         P 1
_symmetry_Int_Tables_number            1

loop_
_symmetry_equiv_pos_as_xyz
   x, y, z

loop_
   _atom_site_label
   _atom_site_fract_x
   _atom_site_fract_y
   _atom_site_fract_z
   _atom_site_charge
C	0.4175573155905873 0.5970418235273683 0.6309933765648723	0.100323
C	0.3737747373677668 0.5512302315416310 0.6290283926899426	-0.164061
C	0.2777239141591873 0.4490335295992475 0.6283854983420005	-0.114940
C	0.2314537684492401 0.4064573787135082 0.6272588483743164	-0.111114
C	0.1299488865141240 0.3194675685871790 0.6261874081744926	-0.162313
C	0.0832124980686240 0.2775950010322368 0.6294838172554685	0.093245
C	0.9175573985905837 0.0970418345273728 0.6309933765648723	0.100323
C	0.8737746953677707 0.0512301735416333 0.6290283926899426	-0.164060
C	0.7777239351591929 0.9490335765992478 0.6283854983420005	-0.114940
C	0.7314537484492383 0.9064574247135049 0.6272588483743162	-0.111114
C	0.6299488865141240 0.8194676155871797 0.6261874081744926	-0.162313
C	0.5832124830686192 0.7775950940322338 0.6294838172554685	0.093245
C	0.5824426844094125 0.4029581304726277 0.1309933845648729	0.100324
C	0.6262253046322293 0.4487698144583729 0.1290284076899407	-0.164060
C	0.7222760648408071 0.5509664234007522 0.1283855063420015	-0.114952
C	0.7685462515507617 0.5935426212864918 0.1272588563743164	-0.111113
C	0.8700511134858760 0.6805324314128206 0.1261874151744968	-0.162312
C	0.9167875169313808 0.7224049529677665 0.1294838322554661	0.093245
C	0.0824426954094170 0.9029582234726320 0.1309933845648729	0.100323
C	0.1262252626322331 0.9487697224583723 0.1290284076899407	-0.164060
C	0.2222761068408108 0.0509664704007526 0.1283855063420015	-0.114953
C	0.2685462105507617 0.0935425982864935 0.1272588563743164	-0.111114
C	0.3700511554858795 0.1805324424128182 0.1261874151744968	-0.162312
C	0.4167875169313806 0.2224050229677652 0.1294838322554661	0.093245
C	0.5824426844094125 0.5970418235273683 0.8690065924351287	0.100323
C	0.6262253046322293 0.5512302315416310 0.8709715763100584	-0.164061
C	0.7222760648408071 0.4490335295992475 0.8716145326579985	-0.114940
C	0.7685462515507617 0.4064573787135082 0.8727411826256828	-0.111114
C	0.8700511134858760 0.3194675685871790 0.8738126228255064	-0.162314
C	0.9167875169313808 0.2775950010322368 0.8705162137445305	0.093245
C	0.0824426954094170 0.0970418345273728 0.8690065924351287	0.100323
C	0.1262252626322331 0.0512301735416333 0.8709715763100584	-0.164061
C	0.2222761068408108 0.9490335765992478 0.8716145326579985	-0.114941
C	0.2685462105507617 0.9064574247135049 0.8727411826256826	-0.111114
C	0.3700511554858795 0.8194676155871797 0.8738126228255064	-0.162314
C	0.4167875169313806 0.7775950940322338 0.8705162137445305	0.093245
C	0.4175573155905873 0.4029581304726277 0.3690066234351275	0.100324
C	0.3737747373677668 0.4487698144583729 0.3709715763100580	-0.164061
C	0.2777239141591873 0.5509664234007522 0.3716145016579990	-0.114944
C	0.2314537684492401 0.5935426212864918 0.3727411206256851	-0.111113
C	0.1299488865141240 0.6805324314128206 0.3738125608255014	-0.162313
C	0.0832124980686240 0.7224049529677665 0.3705161517445326	0.093245
C	0.9175573985905837 0.9029582234726320 0.3690066234351275	0.100324
C	0.8737746953677707 0.9487697224583723 0.3709715763100580	-0.164060
C	0.7777239351591929 0.0509664704007526 0.3716145016579990	-0.114944
C	0.7314537484492383 0.0935425982864935 0.3727411206256851	-0.111113
C	0.6299488865141240 0.1805324424128182 0.3738125608255014	-0.162313
C	0.5832124830686192 0.2224050229677652 0.3705161517445326	0.093245
C	0.5824426844094125 0.4029581304726277 0.3690066234351275	0.100324
C	0.6262253046322293 0.4487698144583729 0.3709715763100580	-0.164061
C	0.7222760648408071 0.5509664234007522 0.3716145016579990	-0.114944
C	0.7685462515507617 0.5935426212864918 0.3727411206256851	-0.111112
C	0.8700511134858760 0.6805324314128206 0.3738125608255014	-0.162314
C	0.9167875169313808 0.7224049529677665 0.3705161517445326	0.093244
C	0.0824426954094170 0.9029582234726320 0.3690066234351275	0.100324
C	0.1262252626322331 0.9487697224583723 0.3709715763100580	-0.164061
C	0.2222761068408108 0.0509664704007526 0.3716145016579990	-0.114944
C	0.2685462105507617 0.0935425982864935 0.3727411206256851	-0.111113
C	0.3700511554858795 0.1805324424128182 0.3738125608255014	-0.162314
C	0.4167875169313806 0.2224050229677652 0.3705161517445326	0.093244
C	0.4175573155905873 0.5970418235273683 0.8690065924351287	0.100324
C	0.3737747373677668 0.5512302315416310 0.8709715763100584	-0.164061
C	0.2777239141591873 0.4490335295992475 0.8716145326579985	-0.114940
C	0.2314537684492401 0.4064573787135082 0.8727411826256827	-0.111114
C	0.1299488865141240 0.3194675685871790 0.8738126228255064	-0.162314
C	0.0832124980686240 0.2775950010322368 0.8705162137445305	0.093245
C	0.9175573985905837 0.0970418345273728 0.8690065924351287	0.100324
C	0.8737746953677707 0.0512301735416333 0.8709715763100584	-0.164060
C	0.7777239351591929 0.9490335765992478 0.8716145326579985	-0.114940
C	0.7314537484492383 0.9064574247135049 0.8727411826256826	-0.111114
C	0.6299488865141240 0.8194676155871797 0.8738126228255064	-0.162315
C	0.5832124830686192 0.7775950940322338 0.8705162137445305	0.093245
C	0.4175573155905873 0.4029581304726277 0.1309933845648729	0.100324
C	0.3737747373677668 0.4487698144583729 0.1290284076899407	-0.164060
C	0.2777239141591873 0.5509664234007522 0.1283855063420015	-0.114953
C	0.2314537684492401 0.5935426212864918 0.1272588563743164	-0.111114
C	0.1299488865141240 0.6805324314128206 0.1261874151744968	-0.162315
C	0.0832124980686240 0.7224049529677665 0.1294838322554661	0.093244
C	0.9175573985905837 0.9029582234726320 0.1309933845648729	0.100324
C	0.8737746953677707 0.9487697224583723 0.1290284076899407	-0.164060
C	0.7777239351591929 0.0509664704007526 0.1283855063420015	-0.114952
C	0.7314537484492383 0.0935425982864935 0.1272588563743164	-0.111114
C	0.6299488865141240 0.1805324424128182 0.1261874151744968	-0.162315
C	0.5832124830686192 0.2224050229677652 0.1294838322554661	0.093244
C	0.5824426844094125 0.5970418235273683 0.6309933765648723	0.100324
C	0.6262253046322293 0.5512302315416310 0.6290283926899426	-0.164061
C	0.7222760648408071 0.4490335295992475 0.6283854983420005	-0.114940
C	0.7685462515507617 0.4064573787135082 0.6272588483743164	-0.111114
C	0.8700511134858760 0.3194675685871790 0.6261874081744926	-0.162315
C	0.9167875169313808 0.2775950010322368 0.6294838172554685	0.093245
C	0.0824426954094170 0.0970418345273728 0.6309933765648723	0.100324
C	0.1262252626322331 0.0512301735416333 0.6290283926899426	-0.164061
C	0.2222761068408108 0.9490335765992478 0.6283854983420005	-0.114940
C	0.2685462105507617 0.9064574247135049 0.6272588483743162	-0.111114
C	0.3700511554858795 0.8194676155871797 0.6261874081744926	-0.162315
C	0.4167875169313806 0.7775950940322338 0.6294838172554685	0.093245
C	0.3495839886951560 0.5244970891216219 0.7500000149999977	0.120767
C	0.3023316553429194 0.4746249474799077 0.7500000149999977	0.073831
C	0.2057077142947825 0.3847214711106434 0.7500000149999977	0.065645
C	0.1552844627376126 0.3412307976816326 0.7500000149999977	0.103064
C	0.8495839466951596 0.0244970721216243 0.7500000149999977	0.120767
C	0.8023317173429173 0.9746249004799077 0.7500000149999977	0.073831
C	0.7057077142947825 0.8847214941106408 0.7500000149999977	0.065645
C	0.6552844627376124 0.8412307286816305 0.7500000149999977	0.103064
C	0.6504160113048441 0.4755029568783745 0.2500000000000000	0.120763
C	0.6976682826570827 0.5253750525200920 0.2500000000000000	0.073857
C	0.7942922857052175 0.6152785528893595 0.2500000000000000	0.065647
C	0.8447155782623945 0.6587691793183690 0.2500000000000000	0.103063
C	0.1504160223048412 0.9755030038783752 0.2500000000000000	0.120763
C	0.1976683656570789 0.0253750555200889 0.2500000000000000	0.073857
C	0.2942922857052174 0.1152785058893584 0.2500000000000000	0.065647
C	0.3447155372623874 0.1587692133183719 0.2500000000000000	0.103063
C	0.6504160113048441 0.5244970891216219 0.7500000149999977	0.120767
C	0.6976682826570827 0.4746249474799077 0.7500000149999977	0.073831
C	0.7942922857052175 0.3847214711106434 0.7500000149999977	0.065645
C	0.8447155782623945 0.3412307976816326 0.7500000149999977	0.103064
C	0.1504160223048412 0.0244970721216243 0.7500000149999977	0.120767
C	0.1976683656570789 0.9746249004799077 0.7500000149999977	0.073831
C	0.2942922857052174 0.8847214941106408 0.7500000149999977	0.065645
C	0.3447155372623874 0.8412307286816305 0.7500000149999977	0.103064
C	0.3495839886951560 0.4755029568783745 0.2500000000000000	0.120763
C	0.3023316553429194 0.5253750525200920 0.2500000000000000	0.073857
C	0.2057077142947825 0.6152785528893595 0.2500000000000000	0.065647
C	0.1552844627376126 0.6587691793183690 0.2500000000000000	0.103063
C	0.8495839466951596 0.9755030038783752 0.2500000000000000	0.120763
C	0.8023317173429173 0.0253750555200889 0.2500000000000000	0.073857
C	0.7057077142947825 0.1152785058893584 0.2500000000000000	0.065647
C	0.6552844627376124 0.1587692133183719 0.2500000000000000	0.103063
H	0.4356930640136142 0.6162422182907626 0.5350143962299542	0.108155
H	0.3602966426537808 0.5384280292729315 0.5262886436372277	0.106338
H	0.2941784817734017 0.4611586465828283 0.5277514175977307	0.085873
H	0.2157611802803144 0.3904681107870337 0.5266697661065637	0.104766
H	0.1460713687001325 0.3339990060816380 0.5251768029687961	0.123806
H	0.0632397472340419 0.2592291339948605 0.5348116816466960	0.108876
H	0.9356930220136105 0.1162422532907619 0.5350143962299542	0.108155
H	0.8602966016537804 0.0384279652729259 0.5262886436372277	0.106337
H	0.7941784607734036 0.9611586465828281 0.5277514175977307	0.085873
H	0.7157611382803113 0.8904680417870385 0.5266697661065637	0.104766
H	0.6460713587001315 0.8339990060816378 0.5251768029687961	0.123806
H	0.5632397782340409 0.7592291109948616 0.5348116816466960	0.108876
H	0.5643069359863860 0.3837577817092373 0.0350144582299521	0.108155
H	0.6397033573462199 0.4615720177270691 0.0262886436372278	0.106338
H	0.7058215392265964 0.5388413074171681 0.0277514795977284	0.085863
H	0.7842388617196887 0.6095318662129610 0.0266697051065625	0.104766
H	0.8539286412998685 0.6660009479183584 0.0251768029687958	0.123806
H	0.9367601807659592 0.7407708890051384 0.0348116506466972	0.108876
H	0.0643069419863864 0.8837577817092374 0.0350144582299521	0.108155
H	0.1397033983462193 0.9615720177270688 0.0262886436372278	0.106338
H	0.2058215392265965 0.0388413504171681 0.0277514795977284	0.085863
H	0.2842388197196855 0.1095319002129637 0.0266697051065625	0.104767
H	0.3539286412998681 0.1660009709183567 0.0251768029687958	0.123806
H	0.4367602217659592 0.2407708660051398 0.0348116506466972	0.108876
H	0.5643069359863860 0.6162422182907626 -0.0350144152299521	0.108155
H	0.6397033573462197 0.5384280292729315 -0.0262886706372335	0.106338
H	0.7058215392265964 0.4611586465828283 -0.0277514355977249	0.085873
H	0.7842388617196887 0.3904681107870337 -0.0266697591065597	0.104766
H	0.8539286412998685 0.3339990060816380 -0.0251768029687961	0.123806
H	0.9367601807659592 0.2592291339948605 -0.0348116886467002	0.108876
H	0.0643069419863864 0.1162422532907619 -0.0350144152299521	0.108155
H	0.1397033983462193 0.0384279652729259 -0.0262886706372335	0.106338
H	0.2058215392265965 0.9611586465828281 -0.0277514355977249	0.085873
H	0.2842388197196855 0.8904680417870385 -0.0266697591065597	0.104766
H	0.3539286412998681 0.8339990060816378 -0.0251768029687961	0.123806
H	0.4367602217659592 0.7592291109948616 -0.0348116886467002	0.108876
H	0.4356930640136142 0.3837577817092373 0.4649855727700470	0.108155
H	0.3602966426537808 0.4615720177270691 0.4737113873627713	0.106337
H	0.2941784817734017 0.5388413074171681 0.4722485514022705	0.085874
H	0.2157611802803144 0.6095318662129610 0.4733302028934373	0.104766
H	0.1460713687001325 0.6660009479183584 0.4748231660312049	0.123806
H	0.0632397472340419 0.7407708890051384 0.4651883183533039	0.108876
H	0.9356930220136105 0.8837577817092374 0.4649855727700470	0.108155
H	0.8602966016537804 0.9615720177270688 0.4737113873627713	0.106337
H	0.7941784607734036 0.0388413504171681 0.4722485514022705	0.085874
H	0.7157611382803113 0.1095319002129637 0.4733302028934373	0.104766
H	0.6460713587001315 0.1660009709183567 0.4748231660312049	0.123806
H	0.5632397782340409 0.2407708660051398 0.4651883183533039	0.108876
H	0.5643069359863860 0.3837577817092373 0.4649855727700470	0.108155
H	0.6397033573462197 0.4615720177270691 0.4737113873627713	0.106337
H	0.7058215392265964 0.5388413074171681 0.4722485514022705	0.085874
H	0.7842388617196887 0.6095318662129610 0.4733302028934373	0.104766
H	0.8539286412998685 0.6660009479183584 0.4748231660312049	0.123806
H	0.9367601807659592 0.7407708890051384 0.4651883183533039	0.108876
H	0.0643069419863864 0.8837577817092374 0.4649855727700470	0.108155
H	0.1397033983462193 0.9615720177270688 0.4737113873627713	0.106337
H	0.2058215392265965 0.0388413504171681 0.4722485514022705	0.085874
H	0.2842388197196855 0.1095319002129637 0.4733302028934373	0.104766
H	0.3539286412998681 0.1660009709183567 0.4748231660312049	0.123806
H	0.4367602217659592 0.2407708660051398 0.4651883183533039	0.108876
H	0.4356930640136142 0.6162422182907626 -0.0350144152299521	0.108155
H	0.3602966426537808 0.5384280292729315 -0.0262886706372335	0.106338
H	0.2941784817734017 0.4611586465828283 -0.0277514355977249	0.085873
H	0.2157611802803144 0.3904681107870337 -0.0266697591065598	0.104767
H	0.1460713687001325 0.3339990060816380 -0.0251768029687961	0.123806
H	0.0632397472340419 0.2592291339948605 -0.0348116886467002	0.108876
H	0.9356930220136105 0.1162422532907619 -0.0350144152299521	0.108155
H	0.8602966016537804 0.0384279652729259 -0.0262886706372335	0.106338
H	0.7941784607734036 0.9611586465828281 -0.0277514355977249	0.085873
H	0.7157611382803113 0.8904680417870385 -0.0266697591065598	0.104767
H	0.6460713587001315 0.8339990060816378 -0.0251768029687961	0.123806
H	0.5632397782340409 0.7592291109948616 -0.0348116886467002	0.108876
H	0.4356930640136142 0.3837577817092373 0.0350144582299522	0.108155
H	0.3602966426537808 0.4615720177270691 0.0262886436372278	0.106337
H	0.2941784817734017 0.5388413074171681 0.0277514795977284	0.085863
H	0.2157611802803144 0.6095318662129610 0.0266697051065625	0.104767
H	0.1460713687001325 0.6660009479183584 0.0251768029687958	0.123806
H	0.0632397472340419 0.7407708890051384 0.0348116506466972	0.108876
H	0.9356930220136105 0.8837577817092374 0.0350144582299522	0.108155
H	0.8602966016537804 0.9615720177270688 0.0262886436372278	0.106337
H	0.7941784607734036 0.0388413504171681 0.0277514795977284	0.085863
H	0.7157611382803113 0.1095319002129637 0.0266697051065625	0.104767
H	0.6460713587001315 0.1660009709183567 0.0251768029687958	0.123806
H	0.5632397782340409 0.2407708660051398 0.0348116506466972	0.108876
H	0.5643069359863860 0.6162422182907626 0.5350143962299542	0.108155
H	0.6397033573462197 0.5384280292729315 0.5262886436372277	0.106337
H	0.7058215392265964 0.4611586465828283 0.5277514175977307	0.085873
H	0.7842388617196887 0.3904681107870337 0.5266697661065637	0.104767
H	0.8539286412998685 0.3339990060816380 0.5251768029687961	0.123806
H	0.9367601807659592 0.2592291339948605 0.5348116816466960	0.108876
H	0.0643069419863864 0.1162422532907619 0.5350143962299542	0.108155
H	0.1397033983462193 0.0384279652729259 0.5262886436372277	0.106337
H	0.2058215392265965 0.9611586465828281 0.5277514175977307	0.085873
H	0.2842388197196855 0.8904680417870385 0.5266697661065637	0.104767
H	0.3539286412998681 0.8339990060816378 0.5251768029687961	0.123806
H	0.4367602217659592 0.7592291109948616 0.5348116816466960	0.108876
Cu	0.5000000000000000 0.6882641393418613 0.7500000149999977	0.661370
Cu	0.0000000000000000 0.1882641973418591 0.7500000149999977	0.661370
Cu	0.5000000000000000 0.3117357906581399 0.2500000000000000	0.661370
Cu	0.0000000000000000 0.8117358606581387 0.2500000000000000	0.661370
F	0.5000000000000000 0.6847129714448030 0.4649363122994494	-0.580206
F	0.0000000000000000 0.1847130064448021 0.4649363122994494	-0.580206
F	0.5000000000000000 0.3152870055551917 -0.0350636877005507	-0.580206
F	0.0000000000000000 0.8152870285551970 -0.0350636877005507	-0.580206
F	0.5000000000000000 0.6847129714448030 0.0350636737005496	-0.580206
F	0.0000000000000000 0.1847130064448021 0.0350636737005496	-0.580206
F	0.5000000000000000 0.3152870055551917 0.5350636577005482	-0.580206
F	0.0000000000000000 0.8152870285551970 0.5350636577005482	-0.580206
F	0.4392529216728213 0.7512185346484821 0.2500000000000000	-0.589576
F	0.5599765634158146 0.6126093249266409 0.2500000000000000	-0.579298
F	0.9392529216728217 0.2512185346484819 0.2500000000000000	-0.589576
F	0.0599765844158196 0.1126093249266405 0.2500000000000000	-0.579298
F	0.5607470373271785 0.2487814423515198 0.7500000149999977	-0.589576
F	0.4400234365841858 0.3873906750733594 0.7500000149999977	-0.579298
F	0.0607470893271830 0.7487814653515179 0.7500000149999977	-0.589576
F	0.9400234365841854 0.8873906750733591 0.7500000149999977	-0.579298
F	0.5607470373271785 0.7512185346484821 0.2500000000000000	-0.589576
F	0.4400234365841858 0.6126093249266409 0.2500000000000000	-0.579298
F	0.0607470893271830 0.2512185346484819 0.2500000000000000	-0.589576
F	0.9400234365841854 0.1126093249266405 0.2500000000000000	-0.579298
F	0.4392529216728213 0.2487814423515198 0.7500000149999977	-0.589576
F	0.5599765634158146 0.3873906750733594 0.7500000149999977	-0.579298
F	0.9392529216728217 0.7487814653515179 0.7500000149999977	-0.589576
F	0.0599765844158196 0.8873906750733591 0.7500000149999977	-0.579298
N	0.4395973772650468 0.6197273353466283 0.7500000149999977	-0.214362
N	0.5606962584755809 0.7566878984659967 0.7500000149999977	-0.222851
N	0.9395973362650403 0.1197273233466279 0.7500000149999977	-0.214362
N	0.0606962324755786 0.2566878754659919 0.7500000149999977	-0.222852
N	0.5604026227349528 0.3802726646533712 0.2500000000000000	-0.214362
N	0.4393037415244193 0.2433121245340082 0.2500000000000000	-0.222851
N	0.0604026227349532 0.8802726646533717 0.2500000000000000	-0.214362
N	0.9393037825244189 0.7433121015340033 0.2500000000000000	-0.222851
N	0.5604026227349528 0.6197273353466283 0.7500000149999977	-0.214362
N	0.4393037415244193 0.7566878984659967 0.7500000149999977	-0.222851
N	0.0604026227349532 0.1197273233466279 0.7500000149999977	-0.214362
N	0.9393037825244189 0.2566878754659919 0.7500000149999977	-0.222852
N	0.4395973772650468 0.3802726646533712 0.2500000000000000	-0.214362
N	0.5606962584755809 0.2433121245340082 0.2500000000000000	-0.222851
N	0.9395973362650403 0.8802726646533717 0.2500000000000000	-0.214362
N	0.0606962324755786 0.7433121015340033 0.2500000000000000	-0.222851
Sn	0.5000000000000000 0.6825183612855069 0.2500000000000000	1.868787
Sn	0.0000000000000000 0.1825183852855088 0.2500000000000000	1.868787
Sn	0.5000000000000000 0.3174815917144928 0.7500000149999977	1.868787
Sn	0.0000000000000000 0.8174816387144932 0.7500000149999977	1.868787
	  	
