#======================================================================

# CRYSTAL DATA

#----------------------------------------------------------------------

data_VESTA_phase_1


_pd_phase_name                         SnFSIX_15_Fe_i
_cell_length_a                         30.01249
_cell_length_b                         29.29238
_cell_length_c                         8.14470
_cell_angle_alpha                      90
_cell_angle_beta                       90
_cell_angle_gamma                      90
_symmetry_space_group_name_H-M         P 1
_symmetry_Int_Tables_number            1

loop_
_symmetry_equiv_pos_as_xyz
   x, y, z

loop_
   _atom_site_label
   _atom_site_fract_x
   _atom_site_fract_y
   _atom_site_fract_z
   _atom_site_charge
C	0.9320237007583635 0.1012889889052638 0.8922319636008658	0.108847
C	0.9003307827802272 0.0668451911104662 0.8982126035578734	-0.163109
C	0.7697495327408348 0.9362503734284248 0.8997636834175530	-0.115629
C	0.7358108747461758 0.9042516533631115 0.8995470360862927	-0.115550
C	0.5694689456267936 0.7429270613746238 0.8921146418091963	0.104185
C	0.6029554828587558 0.7755232945859125 0.8978526768264389	-0.167142
C	0.4320237327583590 0.6012890049052649 0.8922319636008658	0.108847
C	0.4003308147802296 0.5668451541104667 0.8982126035578734	-0.163109
C	0.2697494687408365 0.4362504064284238 0.8997636834175530	-0.115598
C	0.2358108427461731 0.4042517193631166 0.8995470360862927	-0.115503
C	0.0694689696267960 0.2429270443746258 0.8921146418091963	0.104185
C	0.1029554588587539 0.2755233275859115 0.8978526768264389	-0.167142
C	0.0679762672416410 0.8987109950947351 0.3922319946008646	0.108848
C	0.0996691932197711 0.9331548458895333 0.3982126355578691	-0.163110
C	0.2302504832591664 0.0637495895715757 0.3997637454175516	-0.115629
C	0.2641891412538256 0.0957482966368847 0.3995470360862927	-0.115551
C	0.4305310223732031 0.2570729886253733 0.3921146728091954	0.104185
C	0.3970445171412441 0.2244766724140885 0.3978526768264385	-0.167141
C	0.5679762992416365 0.3987110280947340 0.3922319946008646	0.108848
C	0.5996692172197728 0.4331548458895333 0.3982126355578691	-0.163110
C	0.7302504672591652 0.5637496265715752 0.3997637454175516	-0.115629
C	0.7641891252538242 0.5957483466368885 0.3995470360862927	-0.115551
C	0.9305310543732064 0.7570729386253762 0.3921146728091954	0.104185
C	0.8970445171412442 0.7244767054140875 0.3978526768264385	-0.167141
C	0.0679762672416410 0.1012889889052638 0.6077680053991352	0.108847
C	0.0996691932197711 0.0668451911104662 0.6017873024421260	-0.163109
C	0.2302504832591664 0.9362503734284248 0.6002362855824480	-0.115630
C	0.2641891412538256 0.9042516533631115 0.6004529949137063	-0.115550
C	0.4305310223732031 0.7429270613746238 0.6078852641908030	0.104185
C	0.3970445171412441 0.7755232945859125 0.6021472921735621	-0.167142
C	0.5679762992416365 0.6012890049052649 0.6077680053991352	0.108848
C	0.5996692172197728 0.5668451541104667 0.6017873024421260	-0.163109
C	0.7302504672591652 0.4362504064284238 0.6002362855824480	-0.115630
C	0.7641891252538242 0.4042517193631166 0.6004529949137063	-0.115550
C	0.9305310543732064 0.2429270443746258 0.6078852641908030	0.104185
C	0.8970445171412442 0.2755233275859115 0.6021472921735621	-0.167141
C	0.9320237007583635 0.8987109950947351 0.1077680213991368	0.108848
C	0.9003307827802272 0.9331548458895333 0.1017873414421257	-0.163110
C	0.7697495327408348 0.0637495895715757 0.1002362855824476	-0.115629
C	0.7358108747461758 0.0957482966368847 0.1004529799137016	-0.115551
C	0.5694689456267936 0.2570729886253733 0.1078853191908040	0.104185
C	0.6029554828587558 0.2244766724140885 0.1021473381735590	-0.167141
C	0.4320237327583590 0.3987110280947340 0.1077680213991368	0.108848
C	0.4003308147802296 0.4331548458895333 0.1017873414421257	-0.163110
C	0.2697494687408365 0.5637496265715752 0.1002362855824476	-0.115597
C	0.2358108427461731 0.5957483466368885 0.1004529799137016	-0.115503
C	0.0694689696267960 0.7570729386253762 0.1078853191908040	0.104185
C	0.1029554588587539 0.7244767054140875 0.1021473381735590	-0.167141
C	0.0679762672416410 0.8987109950947351 0.1077680213991368	0.108847
C	0.0996691932197711 0.9331548458895333 0.1017873414421257	-0.163109
C	0.2302504832591664 0.0637495895715757 0.1002362855824476	-0.115629
C	0.2641891412538256 0.0957482966368847 0.1004529799137016	-0.115551
C	0.4305310223732031 0.2570729886253733 0.1078853191908040	0.104184
C	0.3970445171412441 0.2244766724140885 0.1021473381735590	-0.167141
C	0.5679762992416365 0.3987110280947340 0.1077680213991368	0.108847
C	0.5996692172197728 0.4331548458895333 0.1017873414421257	-0.163110
C	0.7302504672591652 0.5637496265715752 0.1002362855824476	-0.115629
C	0.7641891252538242 0.5957483466368885 0.1004529799137016	-0.115551
C	0.9305310543732064 0.7570729386253762 0.1078853191908040	0.104184
C	0.8970445171412442 0.7244767054140875 0.1021473381735590	-0.167141
C	0.9320237007583635 0.1012889889052638 0.6077680053991352	0.108847
C	0.9003307827802272 0.0668451911104662 0.6017873024421260	-0.163109
C	0.7697495327408348 0.9362503734284248 0.6002362855824480	-0.115629
C	0.7358108747461758 0.9042516533631115 0.6004529949137063	-0.115550
C	0.5694689456267936 0.7429270613746238 0.6078852641908030	0.104185
C	0.6029554828587558 0.7755232945859125 0.6021472921735621	-0.167142
C	0.4320237327583590 0.6012890049052649 0.6077680053991352	0.108847
C	0.4003308147802296 0.5668451541104667 0.6017873024421260	-0.163109
C	0.2697494687408365 0.4362504064284238 0.6002362855824480	-0.115598
C	0.2358108427461731 0.4042517193631166 0.6004529949137063	-0.115503
C	0.0694689696267960 0.2429270443746258 0.6078852641908030	0.104185
C	0.1029554588587539 0.2755233275859115 0.6021472921735621	-0.167142
C	0.9320237007583635 0.8987109950947351 0.3922319946008646	0.108847
C	0.9003307827802272 0.9331548458895333 0.3982126355578691	-0.163110
C	0.7697495327408348 0.0637495895715757 0.3997637454175516	-0.115629
C	0.7358108747461758 0.0957482966368847 0.3995470360862927	-0.115551
C	0.5694689456267936 0.2570729886253733 0.3921146728091954	0.104184
C	0.6029554828587558 0.2244766724140885 0.3978526768264385	-0.167141
C	0.4320237327583590 0.3987110280947340 0.3922319946008646	0.108847
C	0.4003308147802296 0.4331548458895333 0.3982126355578691	-0.163110
C	0.2697494687408365 0.5637496265715752 0.3997637454175516	-0.115597
C	0.2358108427461731 0.5957483466368885 0.3995470360862927	-0.115503
C	0.0694689696267960 0.7570729386253762 0.3921146728091954	0.104184
C	0.1029554588587539 0.7244767054140875 0.3978526768264385	-0.167141
C	0.0679762672416410 0.1012889889052638 0.8922319636008658	0.108847
C	0.0996691932197711 0.0668451911104662 0.8982126035578734	-0.163109
C	0.2302504832591664 0.9362503734284248 0.8997636834175530	-0.115630
C	0.2641891412538256 0.9042516533631115 0.8995470360862927	-0.115550
C	0.4305310223732031 0.7429270613746238 0.8921146418091963	0.104184
C	0.3970445171412441 0.7755232945859125 0.8978526768264389	-0.167142
C	0.5679762992416365 0.6012890049052649 0.8922319636008658	0.108847
C	0.5996692172197728 0.5668451541104667 0.8982126035578734	-0.163109
C	0.7302504672591652 0.4362504064284238 0.8997636834175530	-0.115630
C	0.7641891252538242 0.4042517193631166 0.8995470360862927	-0.115550
C	0.9305310543732064 0.2429270443746258 0.8921146418091963	0.104185
C	0.8970445171412442 0.2755233275859115 0.8978526768264389	-0.167142
C	0.6546438798087808 0.8259321970296243 0.7500000160000013	-0.105970
C	0.8836427598268931 0.0489286149863891 0.7500000160000013	0.161571
C	0.8214848927310680 0.9855985851471011 0.7500000160000013	-0.099637
C	0.6206115693811134 0.7927045698485004 0.7500000160000013	0.168775
C	0.7872091583869416 0.9527008123412274 0.7500000160000013	0.127385
C	0.7183314953646239 0.8876286863473563 0.7500000160000013	0.137829
C	0.6840833632603820 0.8546782434468231 0.7500000160000013	-0.098831
C	0.8507013027604428 0.0145647367667329 0.7500000160000013	-0.107051
C	0.1546438638087789 0.3259321970296243 0.7500000160000013	-0.105969
C	0.3836426638268922 0.5489286269863900 0.7500000160000013	0.161571
C	0.3214848927310678 0.4855985851471009 0.7500000160000013	-0.099624
C	0.1206115613811127 0.2927045698485003 0.7500000160000013	0.168776
C	0.2872091263869462 0.4527008123412275 0.7500000160000013	0.127271
C	0.2183314793646223 0.3876287193473557 0.7500000160000013	0.137810
C	0.1840833302603827 0.3546782104468236 0.7500000160000013	-0.098833
C	0.3507012707604399 0.5145647317667295 0.7500000160000013	-0.107050
C	0.3453561521912225 0.1740678029703758 0.2500000000000000	-0.105970
C	0.1163573121731130 0.9510713730136100 0.2500000000000000	0.161571
C	0.1785151072689321 0.0144014108528988 0.2500000000000000	-0.099637
C	0.3793884306188867 0.2072954141514985 0.2500000000000000	0.168775
C	0.2127908576130595 0.0472991796587719 0.2500000000000000	0.127385
C	0.2816685046353763 0.1123712726526438 0.2500000000000000	0.137829
C	0.3159166697396173 0.1453217565531771 0.2500000000000000	-0.098831
C	0.1492987292395601 0.9854352352332714 0.2500000000000000	-0.107052
C	0.8453561201912192 0.6740678029703757 0.2500000000000000	-0.105970
C	0.6163572401731069 0.4510714060136091 0.2500000000000000	0.161571
C	0.6785151072689320 0.5144014148528989 0.2500000000000000	-0.099637
C	0.8793884306188866 0.7072954301514996 0.2500000000000000	0.168775
C	0.7127908416130584 0.5472992206587718 0.2500000000000000	0.127385
C	0.7816685046353761 0.6123713136526437 0.2500000000000000	0.137829
C	0.8159166367396180 0.6453217565531769 0.2500000000000000	-0.098831
C	0.6492986972395572 0.4854352352332720 0.2500000000000000	-0.107052
C	0.3453561521912225 0.8259321970296243 0.7500000160000013	-0.105970
C	0.1163573121731130 0.0489286149863891 0.7500000160000013	0.161572
C	0.1785151072689321 0.9855985851471011 0.7500000160000013	-0.099638
C	0.3793884306188867 0.7927045698485004 0.7500000160000013	0.168775
C	0.2127908576130595 0.9527008123412274 0.7500000160000013	0.127385
C	0.2816685046353763 0.8876286863473563 0.7500000160000013	0.137829
C	0.3159166697396173 0.8546782434468231 0.7500000160000013	-0.098831
C	0.1492987292395601 0.0145647367667329 0.7500000160000013	-0.107051
C	0.8453561201912192 0.3259321970296243 0.7500000160000013	-0.105970
C	0.6163572401731069 0.5489286269863900 0.7500000160000013	0.161571
C	0.6785151072689320 0.4855985851471009 0.7500000160000013	-0.099638
C	0.8793884306188866 0.2927045698485003 0.7500000160000013	0.168775
C	0.7127908416130584 0.4527008123412275 0.7500000160000013	0.127385
C	0.7816685046353761 0.3876287193473557 0.7500000160000013	0.137829
C	0.8159166367396180 0.3546782104468236 0.7500000160000013	-0.098831
C	0.6492986972395572 0.5145647317667295 0.7500000160000013	-0.107051
C	0.6546438798087808 0.1740678029703758 0.2500000000000000	-0.105970
C	0.8836427598268931 0.9510713730136100 0.2500000000000000	0.161571
C	0.8214848927310680 0.0144014108528988 0.2500000000000000	-0.099637
C	0.6206115693811134 0.2072954141514985 0.2500000000000000	0.168775
C	0.7872091583869416 0.0472991796587719 0.2500000000000000	0.127385
C	0.7183314953646239 0.1123712726526438 0.2500000000000000	0.137829
C	0.6840833632603820 0.1453217565531771 0.2500000000000000	-0.098831
C	0.8507013027604428 0.9854352352332714 0.2500000000000000	-0.107052
C	0.1546438638087789 0.6740678029703757 0.2500000000000000	-0.105969
C	0.3836426638268922 0.4510714060136091 0.2500000000000000	0.161571
C	0.3214848927310678 0.5144014148528989 0.2500000000000000	-0.099623
C	0.1206115613811127 0.7072954301514996 0.2500000000000000	0.168775
C	0.2872091263869462 0.5472992206587718 0.2500000000000000	0.127271
C	0.2183314793646223 0.6123713136526437 0.2500000000000000	0.137811
C	0.1840833302603827 0.6453217565531769 0.2500000000000000	-0.098833
C	0.3507012707604399 0.4854352352332720 0.2500000000000000	-0.107051
H	0.9452096364725759 0.1156645164324246 0.0055181890728536	0.085969
H	0.8885452097263008 0.0540161585481727 0.0159198064093564	0.120588
H	0.7833440647628586 0.9490222144242807 0.0150821818343141	0.107055
H	0.7222654206158257 0.8914976255460983 0.0148235976537557	0.115067
H	0.5554919477671690 0.7293899259584810 0.0054633851254447	0.085912
H	0.6153606402230313 0.7875476800374435 0.0156471510936274	0.126015
H	0.4452097324725766 0.6156645324324260 0.0055181890728536	0.085970
H	0.3885451457263029 0.5540161875481785 0.0159198064093564	0.120588
H	0.2833440647628578 0.4490222144242807 0.0150821818343141	0.107045
H	0.2222654366158274 0.3914977245461032 0.0148235976537557	0.115057
H	0.0554919557671695 0.2293899749584817 0.0054633851254447	0.085912
H	0.1153606562230255 0.2875476140374455 0.0156471510936274	0.126015
H	0.0547903035274194 0.8843354675675740 0.5055182180728526	0.085970
H	0.1114548382736957 0.9459838124518215 0.5159198414093557	0.120588
H	0.2166559672371445 0.0509778025757245 0.5150822138343167	0.107055
H	0.2777345793841738 0.1085023004539025 0.5148235936537554	0.115067
H	0.4445080522328312 0.2706100080415204 0.5054633851254450	0.085912
H	0.3846393597769686 0.2124523369625542 0.5156471820936265	0.126014
H	0.5547903635274241 0.3843354675675740 0.5055182180728526	0.085969
H	0.6114547902736992 0.4459838454518276 0.5159198414093557	0.120588
H	0.7166559352371414 0.5509777855757193 0.5150822138343167	0.107055
H	0.7777345793841743 0.6085023744539017 0.5148235936537554	0.115067
H	0.9445080522328310 0.7706100740415190 0.5054633851254450	0.085912
H	0.8846393597769687 0.7124523199625565 0.5156471820936265	0.126014
H	0.0547903035274194 0.1156645164324246 0.4944818129271467	0.085969
H	0.1114548382736957 0.0540161585481727 0.4840801585906372	0.120588
H	0.2166559672371445 0.9490222144242807 0.4849178181656858	0.107056
H	0.2777345793841738 0.8914976255460983 0.4851764063462448	0.115067
H	0.4445080522328312 0.7293899259584810 0.4945366468745582	0.085912
H	0.3846393597769686 0.7875476800374435 0.4843528489063724	0.126015
H	0.5547903635274241 0.6156645324324260 0.4944818129271467	0.085970
H	0.6114547902736992 0.5540161875481785 0.4840801585906372	0.120588
H	0.7166559352371414 0.4490222144242807 0.4849178181656858	0.107056
H	0.7777345793841743 0.3914977245461032 0.4851764063462448	0.115067
H	0.9445080522328310 0.2293899749584817 0.4945366468745582	0.085912
H	0.8846393597769687 0.2875476140374455 0.4843528489063724	0.126015
H	0.9452096364725759 0.8843354675675740 0.9944818129271464	0.085970
H	0.8885452097263008 0.9459838124518215 0.9840801275906382	0.120589
H	0.7833440647628586 0.0509778025757245 0.9849178181656859	0.107055
H	0.7222654206158257 0.1085023004539025 0.9851763753462385	0.115067
H	0.5554919477671690 0.2706100080415204 0.9945366148745550	0.085912
H	0.6153606402230313 0.2124523369625542 0.9843528489063725	0.126014
H	0.4452097324725766 0.3843354675675740 0.9944818129271464	0.085970
H	0.3885451457263029 0.4459838454518276 0.9840801275906382	0.120589
H	0.2833440647628578 0.5509777855757193 0.9849178181656859	0.107045
H	0.2222654366158274 0.6085023744539017 0.9851763753462385	0.115057
H	0.0554919557671695 0.7706100740415190 0.9945366148745550	0.085912
H	0.1153606562230255 0.7124523199625565 0.9843528489063725	0.126015
H	0.0547903035274194 0.8843354675675740 0.9944818129271464	0.085970
H	0.1114548382736957 0.9459838124518215 0.9840801275906382	0.120588
H	0.2166559672371445 0.0509778025757245 0.9849178181656859	0.107055
H	0.2777345793841738 0.1085023004539025 0.9851763753462385	0.115068
H	0.4445080522328312 0.2706100080415204 0.9945366148745550	0.085912
H	0.3846393597769686 0.2124523369625542 0.9843528489063725	0.126014
H	0.5547903635274241 0.3843354675675740 0.9944818129271464	0.085970
H	0.6114547902736992 0.4459838454518276 0.9840801275906382	0.120588
H	0.7166559352371414 0.5509777855757193 0.9849178181656859	0.107055
H	0.7777345793841743 0.6085023744539017 0.9851763753462385	0.115068
H	0.9445080522328310 0.7706100740415190 0.9945366148745550	0.085912
H	0.8846393597769687 0.7124523199625565 0.9843528489063725	0.126014
H	0.9452096364725759 0.1156645164324246 0.4944818129271467	0.085969
H	0.8885452097263008 0.0540161585481727 0.4840801585906372	0.120588
H	0.7833440647628586 0.9490222144242807 0.4849178181656858	0.107055
H	0.7222654206158257 0.8914976255460983 0.4851764063462448	0.115068
H	0.5554919477671690 0.7293899259584810 0.4945366468745582	0.085912
H	0.6153606402230313 0.7875476800374435 0.4843528489063724	0.126014
H	0.4452097324725766 0.6156645324324260 0.4944818129271467	0.085970
H	0.3885451457263029 0.5540161875481785 0.4840801585906372	0.120588
H	0.2833440647628578 0.4490222144242807 0.4849178181656858	0.107045
H	0.2222654366158274 0.3914977245461032 0.4851764063462448	0.115058
H	0.0554919557671695 0.2293899749584817 0.4945366468745582	0.085913
H	0.1153606562230255 0.2875476140374455 0.4843528489063724	0.126014
H	0.9452096364725759 0.8843354675675740 0.5055182180728526	0.085970
H	0.8885452097263008 0.9459838124518215 0.5159198414093557	0.120588
H	0.7833440647628586 0.0509778025757245 0.5150822138343167	0.107055
H	0.7222654206158257 0.1085023004539025 0.5148235936537554	0.115067
H	0.5554919477671690 0.2706100080415204 0.5054633851254450	0.085912
H	0.6153606402230313 0.2124523369625542 0.5156471820936265	0.126014
H	0.4452097324725766 0.3843354675675740 0.5055182180728526	0.085969
H	0.3885451457263029 0.4459838454518276 0.5159198414093557	0.120588
H	0.2833440647628578 0.5509777855757193 0.5150822138343167	0.107045
H	0.2222654366158274 0.6085023744539017 0.5148235936537554	0.115058
H	0.0554919557671695 0.7706100740415190 0.5054633851254450	0.085912
H	0.1153606562230255 0.7124523199625565 0.5156471820936265	0.126014
H	0.0547903035274194 0.1156645164324246 0.0055181890728536	0.085969
H	0.1114548382736957 0.0540161585481727 0.0159198064093564	0.120588
H	0.2166559672371445 0.9490222144242807 0.0150821818343141	0.107055
H	0.2777345793841738 0.8914976255460983 0.0148235976537557	0.115067
H	0.4445080522328312 0.7293899259584810 0.0054633851254447	0.085912
H	0.3846393597769686 0.7875476800374435 0.0156471510936274	0.126014
H	0.5547903635274241 0.6156645324324260 0.0055181890728536	0.085970
H	0.6114547902736992 0.5540161875481785 0.0159198064093564	0.120588
H	0.7166559352371414 0.4490222144242807 0.0150821818343141	0.107055
H	0.7777345793841743 0.3914977245461032 0.0148235976537557	0.115067
H	0.9445080522328310 0.2293899749584817 0.0054633851254447	0.085912
H	0.8846393597769687 0.2875476140374455 0.0156471510936274	0.126014
Fe	0.5000000000000000 0.6729467032934853 0.7500000160000013	0.805644
Fe	-0.0000000000000000 0.1729467202934830 0.7500000160000013	0.805644
Fe	0.5000000000000000 0.3270532967065147 0.2500000000000000	0.805644
Fe	-0.0000000000000000 0.8270532967065147 0.2500000000000000	0.805644
Sn	0.5000000000000000 0.6729449056373109 0.2500000000000000	1.873518
Sn	-0.0000000000000000 0.1729449056373104 0.2500000000000000	1.873562
Sn	0.5000000000000000 0.3270551263626925 0.7500000160000013	1.873562
Sn	-0.0000000000000000 0.8270550943626891 0.7500000160000013	1.873517
F	0.5000000000000000 0.7405365382952022 0.2500000000000000	-0.556266
F	0.5000000000000000 0.6054198930255055 0.2500000000000000	-0.552530
F	-0.0000000000000000 0.2405364892952018 0.2500000000000000	-0.556296
F	-0.0000000000000000 0.1054198770255040 0.2500000000000000	-0.552535
F	0.5000000000000000 0.2594635107047983 0.7500000160000013	-0.556296
F	0.5000000000000000 0.3945800739744954 0.7500000160000013	-0.552536
F	-0.0000000000000000 0.7594634617047978 0.7500000160000013	-0.556266
F	-0.0000000000000000 0.8945801069744945 0.7500000160000013	-0.552530
F	0.5659363878814568 0.6730473086722082 0.2500000000000000	-0.556190
F	0.0659364078814583 0.1730473416722072 0.2500000000000000	-0.556193
F	0.4340635801185409 0.3269526253277936 0.7500000160000013	-0.556193
F	0.9340636121185432 0.8269526913277918 0.7500000160000013	-0.556190
F	0.4340635801185409 0.6730473086722082 0.2500000000000000	-0.556190
F	0.9340636121185432 0.1730473416722072 0.2500000000000000	-0.556193
F	0.5659363878814568 0.3269526253277936 0.7500000160000013	-0.556193
F	0.0659364078814583 0.8269526913277918 0.7500000160000013	-0.556190
F	0.5000000000000000 0.6729541330621590 0.5027039463353683	-0.498716
F	-0.0000000000000000 0.1729541500621569 0.5027039463353683	-0.498717
F	0.5000000000000000 0.3270458999378399 0.0027039463353679	-0.498717
F	-0.0000000000000000 0.8270458669378410 0.0027039463353679	-0.498716
F	0.5000000000000000 0.6729541330621590 -0.0027039503353681	-0.498716
F	-0.0000000000000000 0.1729541500621569 -0.0027039503353681	-0.498717
F	0.5000000000000000 0.3270458999378399 0.4972960216646368	-0.498717
F	-0.0000000000000000 0.8270458669378410 0.4972960216646368	-0.498716
N	0.5527034392761871 0.7265117003429771 0.7500000160000013	-0.248434
N	0.9478710439312257 0.1185738619235128 0.7500000160000013	-0.250330
N	0.0527034032761848 0.2265116843429757 0.7500000160000013	-0.248435
N	0.4478710439312257 0.6185738459235115 0.7500000160000013	-0.250330
N	0.4472966247238107 0.2734882996570231 0.2500000000000000	-0.248434
N	0.0521289640687750 0.8814261540764885 0.2500000000000000	-0.250330
N	0.9472965607238129 0.7734882996570229 0.2500000000000000	-0.248434
N	0.5521289560687743 0.3814261540764886 0.2500000000000000	-0.250330
N	0.4472966247238107 0.7265117003429771 0.7500000160000013	-0.248434
N	0.0521289640687750 0.1185738619235128 0.7500000160000013	-0.250330
N	0.9472965607238129 0.2265116843429757 0.7500000160000013	-0.248435
N	0.5521289560687743 0.6185738459235115 0.7500000160000013	-0.250330
N	0.5527034392761871 0.2734882996570231 0.2500000000000000	-0.248434
N	0.9478710439312257 0.8814261540764885 0.2500000000000000	-0.250330
N	0.0527034032761848 0.7734882996570229 0.2500000000000000	-0.248434
N	0.4478710439312257 0.3814261540764886 0.2500000000000000	-0.250330
	  	
