#======================================================================

# CRYSTAL DATA

#----------------------------------------------------------------------

data_VESTA_phase_1


_pd_phase_name                         SnFSIX_2_Cu_i
_cell_length_a                         13.74494
_cell_length_b                         13.74494
_cell_length_c                         8.49107
_cell_angle_alpha                      90
_cell_angle_beta                       90
_cell_angle_gamma                      90
_symmetry_space_group_name_H-M         P 1
_symmetry_Int_Tables_number            1

loop_
_symmetry_equiv_pos_as_xyz
   x, y, z

loop_
   _atom_site_label
   _atom_site_fract_x
   _atom_site_fract_y
   _atom_site_fract_z
   _atom_site_charge
C	0.0000000000000000 0.3005879441603570 0.3577939367013708	-0.155019
C	0.0000000000000000 0.1997227490471274 0.3629583211478728	0.108892
C	0.5000000000000000 0.8005879441603571 0.8577939657013695	-0.155019
C	0.5000000000000000 0.6997227670471289 0.8629583211478726	0.108892
C	0.0000000000000000 0.6994120558396429 0.3577939367013708	-0.155021
C	0.0000000000000000 0.8002772329528711 0.3629583211478728	0.108894
C	0.5000000000000000 0.1994120728396406 0.8577939657013695	-0.155021
C	0.5000000000000000 0.3002772329528708 0.8629583211478726	0.108894
C	0.6994120558396429 -0.0000000000000000 0.3577939367013708	-0.155019
C	0.8002772329528711 -0.0000000000000000 0.3629583211478728	0.108894
C	0.1994120728396406 0.5000000000000000 0.8577939657013695	-0.155019
C	0.3002772329528708 0.5000000000000000 0.8629583211478726	0.108894
C	0.3005879441603570 -0.0000000000000000 0.3577939367013708	-0.155021
C	0.1997227490471274 -0.0000000000000000 0.3629583211478728	0.108896
C	0.8005879441603571 0.5000000000000000 0.8577939657013695	-0.155021
C	0.6997227670471289 0.5000000000000000 0.8629583211478726	0.108897
C	0.0000000000000000 0.3005879441603569 0.6422060342986305	-0.155016
C	0.0000000000000000 0.1997227490471274 0.6370416788521274	0.108892
C	0.5000000000000000 0.8005879441603571 0.1422060632986293	-0.155016
C	0.5000000000000000 0.6997227670471289 0.1370416638521297	0.108892
C	0.0000000000000000 0.6994120558396429 0.6422060342986305	-0.155018
C	0.0000000000000000 0.8002772329528711 0.6370416788521274	0.108895
C	0.5000000000000000 0.1994120728396406 0.1422060632986293	-0.155018
C	0.5000000000000000 0.3002772329528708 0.1370416638521297	0.108895
C	0.3005879441603569 -0.0000000000000000 0.6422060342986305	-0.155018
C	0.1997227490471274 -0.0000000000000000 0.6370416788521274	0.108897
C	0.8005879441603571 0.5000000000000000 0.1422060632986293	-0.155018
C	0.6997227670471289 0.5000000000000000 0.1370416638521297	0.108897
C	0.6994120558396429 -0.0000000000000000 0.6422060342986305	-0.155016
C	0.8002772329528711 -0.0000000000000000 0.6370416788521274	0.108895
C	0.1994120728396406 0.5000000000000000 0.1422060632986293	-0.155016
C	0.3002772329528708 0.5000000000000000 0.1370416638521297	0.108895
C	0.0000000000000000 0.4556933443661797 0.5000000000000000	-0.092861
C	0.0000000000000000 0.3530635684044025 0.5000000000000000	0.167646
C	0.5000000000000000 0.9556933783661827 -0.0000000000000000	-0.092861
C	0.5000000000000000 0.8530635334044027 -0.0000000000000000	0.167646
C	0.0000000000000000 0.5443066556338201 0.5000000000000000	-0.092614
C	0.0000000000000000 0.6469364665955973 0.5000000000000000	0.167617
C	0.5000000000000000 0.0443066346338150 -0.0000000000000000	-0.092614
C	0.5000000000000000 0.1469364665955968 -0.0000000000000000	0.167617
C	0.5443066556338201 -0.0000000000000000 0.5000000000000000	-0.092861
C	0.6469364665955973 -0.0000000000000000 0.5000000000000000	0.167646
C	0.0443066346338150 0.5000000000000000 -0.0000000000000000	-0.092861
C	0.1469364665955968 0.5000000000000000 -0.0000000000000000	0.167646
C	0.4556933443661797 -0.0000000000000000 0.5000000000000000	-0.092615
C	0.3530635684044025 -0.0000000000000000 0.5000000000000000	0.167617
C	0.9556933783661827 0.5000000000000000 -0.0000000000000000	-0.092614
C	0.8530635334044027 0.5000000000000000 -0.0000000000000000	0.167617
H	0.0000000000000000 0.3380549938110980 0.2447323726513356	0.124298
H	0.0000000000000000 0.1570036068097137 0.2551887684671643	0.097751
H	0.5000000000000000 0.8380549938110979 0.7447323726513360	0.124298
H	0.5000000000000000 0.6570035538097129 0.7551887984671668	0.097751
H	0.0000000000000000 0.6619450061889021 0.2447323726513356	0.124296
H	0.0000000000000000 0.8429964461902871 0.2551887684671644	0.097751
H	0.5000000000000000 0.1619450061889019 0.7447323726513360	0.124297
H	0.5000000000000000 0.3429964111902808 0.7551887984671668	0.097751
H	0.6619450061889021 -0.0000000000000000 0.2447323726513356	0.124298
H	0.8429964461902871 -0.0000000000000000 0.2551887684671644	0.097751
H	0.1619450061889019 0.5000000000000000 0.7447323726513360	0.124298
H	0.3429964111902808 0.5000000000000000 0.7551887984671668	0.097751
H	0.3380549938110980 -0.0000000000000000 0.2447323726513356	0.124296
H	0.1570036068097137 -0.0000000000000000 0.2551887684671644	0.097751
H	0.8380549938110979 0.5000000000000000 0.7447323726513360	0.124297
H	0.6570035538097129 0.5000000000000000 0.7551887984671668	0.097751
H	0.0000000000000000 0.3380549938110980 0.7552676273486640	0.124296
H	0.0000000000000000 0.1570036068097137 0.7448111435328355	0.097751
H	0.5000000000000000 0.8380549938110979 0.2552676273486644	0.124296
H	0.5000000000000000 0.6570035538097129 0.2448112315328355	0.097751
H	0.0000000000000000 0.6619450061889021 0.7552676273486640	0.124295
H	0.0000000000000000 0.8429964461902871 0.7448111435328355	0.097751
H	0.5000000000000000 0.1619450061889019 0.2552676273486644	0.124295
H	0.5000000000000000 0.3429964111902808 0.2448112315328355	0.097751
H	0.3380549938110980 -0.0000000000000000 0.7552676273486640	0.124295
H	0.1570036068097137 -0.0000000000000000 0.7448111435328355	0.097751
H	0.8380549938110979 0.5000000000000000 0.2552676273486644	0.124295
H	0.6570035538097129 0.5000000000000000 0.2448112315328355	0.097751
H	0.6619450061889021 -0.0000000000000000 0.7552676273486640	0.124296
H	0.8429964461902871 -0.0000000000000000 0.7448111435328355	0.097751
H	0.1619450061889019 0.5000000000000000 0.2552676273486644	0.124296
H	0.3429964111902808 0.5000000000000000 0.2448112315328355	0.097751
Cu	0.0000000000000000 -0.0000000000000000 0.5000000000000000	0.716134
Cu	0.5000000000000000 0.5000000000000000 -0.0000000000000000	0.716134
Sn	0.0000000000000000 -0.0000000000000000 -0.0000000000000000	1.866676
Sn	0.5000000000000000 0.5000000000000000 0.5000000000000000	1.866676
N	0.0000000000000000 0.1499422311869259 0.5000000000000000	-0.224427
N	0.5000000000000000 0.6499422131869244 -0.0000000000000000	-0.224427
N	0.0000000000000000 0.8500577868130756 0.5000000000000000	-0.224426
N	0.5000000000000000 0.3500577868130755 -0.0000000000000000	-0.224426
N	0.8500577868130756 -0.0000000000000000 0.5000000000000000	-0.224427
N	0.3500577868130755 0.5000000000000000 -0.0000000000000000	-0.224427
N	0.1499422311869259 -0.0000000000000000 0.5000000000000000	-0.224427
N	0.6499422131869244 0.5000000000000000 -0.0000000000000000	-0.224427
F	0.0000000000000000 -0.0000000000000000 0.7610265081164622	-0.550411
F	0.5000000000000000 0.5000000000000000 0.2610265971164666	-0.550411
F	0.0000000000000000 -0.0000000000000000 0.2389734178835381	-0.550411
F	0.5000000000000000 0.5000000000000000 0.7389734918835378	-0.550411
F	0.6026391237854434 0.6026391237854434 0.5000000000000000	-0.572811
F	0.6026391237854434 0.3973608762145568 0.5000000000000000	-0.572811
F	0.3973608762145568 0.6026391237854434 0.5000000000000000	-0.572811
F	0.3973608762145568 0.3973608762145568 0.5000000000000000	-0.572811
F	0.1026391407854410 0.1026391407854410 -0.0000000000000000	-0.572811
F	0.8973608762145566 0.8973608762145566 -0.0000000000000000	-0.572811
F	0.8973608762145566 0.1026391407854410 -0.0000000000000000	-0.572811
F	0.1026391407854410 0.8973608762145566 -0.0000000000000000	-0.572811
	  	
