#======================================================================

# CRYSTAL DATA

#----------------------------------------------------------------------

data_VESTA_phase_1


_pd_phase_name                         SnFSIX_3_Cd
_cell_length_a                         15.00829
_cell_length_b                         15.00829
_cell_length_c                         8.46640
_cell_angle_alpha                      90
_cell_angle_beta                       90
_cell_angle_gamma                      90
_symmetry_space_group_name_H-M         P 1
_symmetry_Int_Tables_number            1

loop_
_symmetry_equiv_pos_as_xyz
   x, y, z

loop_
   _atom_site_label
   _atom_site_fract_x
   _atom_site_fract_y
   _atom_site_fract_z
   _atom_site_charge
C	0.2686088263992461 0.4535434814749259 0.6326051688680078	0.067761
C	0.2313911736007538 0.0464565225250744 0.6326051688680078	0.067762
C	0.2313911736007538 0.4535434814749259 0.3673947991319897	0.067764
C	0.2686088263992461 0.0464565225250744 0.3673947991319897	0.067765
C	0.0464565225250744 0.2686088263992461 0.3673947991319897	0.067766
C	0.4535434814749259 0.2313911736007538 0.3673947991319897	0.067765
C	0.4535434814749259 0.2686088263992461 0.6326051688680079	0.067768
C	0.0464565225250744 0.2313911736007538 0.6326051688680078	0.067769
C	0.9535434134749277 0.2313911736007538 0.6326051688680079	0.067773
C	0.5464565865250723 0.2686088263992461 0.6326051688680078	0.067774
C	0.5464565865250723 0.2313911736007538 0.3673947991319897	0.067776
C	0.9535434134749277 0.2686088263992461 0.3673947991319897	0.067775
C	0.7313911906007518 0.0464565225250744 0.3673947991319897	0.067765
C	0.7686088093992482 0.4535434814749259 0.3673947991319897	0.067765
C	0.7686088093992482 0.0464565225250744 0.6326051688680079	0.067769
C	0.7313911906007518 0.4535434814749259 0.6326051688680079	0.067768
C	0.4535434814749259 0.7313911906007518 0.6326051688680078	0.067762
C	0.0464565225250744 0.7686088093992482 0.6326051688680079	0.067763
C	0.0464565225250744 0.7313911906007518 0.3673947991319897	0.067765
C	0.4535434814749259 0.7686088093992482 0.3673947991319897	0.067765
C	0.2313911736007538 0.5464565865250723 0.3673947991319897	0.067777
C	0.2686088263992461 0.9535434134749277 0.3673947991319897	0.067776
C	0.2686088263992461 0.5464565865250723 0.6326051688680079	0.067780
C	0.2313911736007538 0.9535434134749277 0.6326051688680079	0.067779
C	0.7686088093992482 0.9535434134749277 0.6326051688680078	0.067773
C	0.7313911906007518 0.5464565865250723 0.6326051688680078	0.067773
C	0.7313911906007518 0.9535434134749277 0.3673947991319897	0.067775
C	0.7686088093992482 0.5464565865250723 0.3673947991319897	0.067776
C	0.5464565865250723 0.7686088093992482 0.3673947991319897	0.067777
C	0.9535434134749277 0.7313911906007518 0.3673947991319897	0.067776
C	0.9535434134749277 0.7686088093992482 0.6326051688680078	0.067779
C	0.5464565865250723 0.7313911906007518 0.6326051688680079	0.067779
H	0.2835108222149712 0.4155856788422714 0.7395590183948980	0.114618
H	0.2164891437850261 0.0844143211577286 0.7395590183948980	0.114618
H	0.2164891437850261 0.4155856788422714 0.2604409506051030	0.114618
H	0.2835108222149712 0.0844143211577286 0.2604409506051030	0.114618
H	0.0844143211577286 0.2835108222149712 0.2604409506051030	0.114617
H	0.4155856788422714 0.2164891437850261 0.2604409506051030	0.114617
H	0.4155856788422714 0.2835108222149712 0.7395590183948980	0.114616
H	0.0844143211577286 0.2164891437850261 0.7395590183948980	0.114616
H	0.9155857468422767 0.2164891437850261 0.7395590183948980	0.114613
H	0.5844142531577233 0.2835108222149712 0.7395590183948980	0.114612
H	0.5844142531577233 0.2164891437850261 0.2604409506051030	0.114613
H	0.9155857468422767 0.2835108222149712 0.2604409506051030	0.114613
H	0.7164891097850306 0.0844143211577286 0.2604409506051030	0.114617
H	0.7835108902149694 0.4155856788422714 0.2604409506051030	0.114617
H	0.7835108902149694 0.0844143211577286 0.7395590183948980	0.114616
H	0.7164891097850306 0.4155856788422714 0.7395590183948980	0.114616
H	0.4155856788422714 0.7164891097850306 0.7395590183948980	0.114618
H	0.0844143211577286 0.7835108902149694 0.7395590183948980	0.114618
H	0.0844143211577286 0.7164891097850306 0.2604409506051030	0.114618
H	0.4155856788422714 0.7835108902149694 0.2604409506051030	0.114618
H	0.2164891437850261 0.5844142531577233 0.2604409506051030	0.114611
H	0.2835108222149712 0.9155857468422767 0.2604409506051030	0.114611
H	0.2835108222149712 0.5844142531577233 0.7395590183948980	0.114611
H	0.2164891437850261 0.9155857468422767 0.7395590183948980	0.114611
H	0.7835108902149694 0.9155857468422767 0.7395590183948980	0.114612
H	0.7164891097850306 0.5844142531577233 0.7395590183948980	0.114613
H	0.7164891097850306 0.9155857468422767 0.2604409506051030	0.114613
H	0.7835108902149694 0.5844142531577233 0.2604409506051030	0.114613
H	0.5844142531577233 0.7835108902149694 0.2604409506051030	0.114611
H	0.9155857468422767 0.7164891097850306 0.2604409506051030	0.114612
H	0.9155857468422767 0.7835108902149694 0.7395590183948980	0.114611
H	0.5844142531577233 0.7164891097850306 0.7395590183948980	0.114611
Cd	0.2500000000000000 0.2500000000000000 0.5000000000000000	0.828849
Cd	0.7500000340000028 0.2500000000000000 0.5000000000000000	0.828850
Cd	0.2500000000000000 0.7500000340000028 0.5000000000000000	0.828850
Cd	0.7500000340000028 0.7500000340000028 0.5000000000000000	0.828850
Sn	0.2500000000000000 0.2500000000000000 -0.0000000000000000	1.875940
Sn	0.7500000340000028 0.2500000000000000 -0.0000000000000000	1.875940
Sn	0.2500000000000000 0.7500000340000028 -0.0000000000000000	1.875940
Sn	0.7500000340000028 0.7500000340000028 -0.0000000000000000	1.875939
F	0.2500000000000000 0.2500000000000000 0.7592967966861683	-0.542616
F	0.2500000000000000 0.2500000000000000 0.2407032033138319	-0.542616
F	0.3432919317552383 0.3432919317552383 -0.0188612038139513	-0.564862
F	0.1567080682447616 0.1567080682447616 -0.0188612038139513	-0.564860
F	0.1567080682447616 0.3432919317552383 0.0188612248139496	-0.564861
F	0.3432919317552383 0.1567080682447616 0.0188612248139496	-0.564861
F	0.7500000340000028 0.2500000000000000 0.7592967966861683	-0.542616
F	0.7500000340000028 0.2500000000000000 0.2407032033138319	-0.542616
F	0.8432919657552416 0.3432919317552383 0.0188612248139496	-0.564865
F	0.6567080342447584 0.1567080682447616 0.0188612248139496	-0.564863
F	0.6567080342447584 0.3432919317552383 -0.0188612038139514	-0.564864
F	0.8432919657552416 0.1567080682447616 -0.0188612038139513	-0.564865
F	0.2500000000000000 0.7500000340000028 0.7592967966861683	-0.542616
F	0.2500000000000000 0.7500000340000028 0.2407032033138319	-0.542616
F	0.3432919317552383 0.8432919657552416 0.0188612248139496	-0.564865
F	0.1567080682447616 0.6567080342447584 0.0188612248139496	-0.564863
F	0.1567080682447616 0.8432919657552416 -0.0188612038139513	-0.564865
F	0.3432919317552383 0.6567080342447584 -0.0188612038139513	-0.564864
F	0.7500000340000028 0.7500000340000028 0.7592967966861683	-0.542616
F	0.7500000340000028 0.7500000340000028 0.2407032033138319	-0.542616
F	0.8432919657552416 0.8432919657552416 -0.0188612038139513	-0.564869
F	0.6567080342447584 0.6567080342447584 -0.0188612038139514	-0.564866
F	0.6567080342447584 0.8432919657552416 0.0188612248139496	-0.564867
F	0.8432919657552416 0.6567080342447584 0.0188612248139496	-0.564867
N	0.4079272698772350 0.2500000000000000 0.5000000000000000	-0.204794
N	0.0920727301227650 0.2500000000000000 0.5000000000000000	-0.204794
N	0.2500000000000000 0.4079272698772350 0.5000000000000000	-0.204793
N	0.2500000000000000 0.0920727301227650 0.5000000000000000	-0.204793
N	0.9079272698772348 0.2500000000000000 0.5000000000000000	-0.204796
N	0.5920727301227652 0.2500000000000000 0.5000000000000000	-0.204796
N	0.7500000340000028 0.4079272698772350 0.5000000000000000	-0.204795
N	0.7500000340000028 0.0920727301227650 0.5000000000000000	-0.204794
N	0.4079272698772350 0.7500000340000028 0.5000000000000000	-0.204794
N	0.0920727301227650 0.7500000340000028 0.5000000000000000	-0.204793
N	0.2500000000000000 0.9079272698772348 0.5000000000000000	-0.204798
N	0.2500000000000000 0.5920727301227652 0.5000000000000000	-0.204797
N	0.9079272698772348 0.7500000340000028 0.5000000000000000	-0.204797
N	0.5920727301227652 0.7500000340000028 0.5000000000000000	-0.204797
N	0.7500000340000028 0.9079272698772348 0.5000000000000000	-0.204797
N	0.7500000340000028 0.5920727301227652 0.5000000000000000	-0.204796
	  	
