#======================================================================

# CRYSTAL DATA

#----------------------------------------------------------------------

data_VESTA_phase_1


_pd_phase_name                         SnFSIX_6_Cd_i
_cell_length_a                         18.20433
_cell_length_b                         18.20433
_cell_length_c                         16.76667
_cell_angle_alpha                      90
_cell_angle_beta                       90
_cell_angle_gamma                      90
_symmetry_space_group_name_H-M         P 1
_symmetry_Int_Tables_number            1

loop_
_symmetry_equiv_pos_as_xyz
   x, y, z

loop_
   _atom_site_label
   _atom_site_fract_x
   _atom_site_fract_y
   _atom_site_fract_z
   _atom_site_charge
N	0.2436069328906832 0.1212367415280656 0.1281753085930226	-0.246249
N	0.2563930671093168 0.3787632724719355 0.1281753085930226	-0.246239
N	0.3787632724719355 0.2436069328906832 0.1281753085930226	-0.246249
N	0.1212367415280656 0.2563930671093168 0.1281753085930226	-0.246239
N	0.7563930401093181 0.6212367545280705 0.3718246764069799	-0.246249
N	0.7436069598906819 0.8787632454719295 0.3718246764069799	-0.246248
N	0.6212367545280705 0.7436069598906819 0.3718246764069799	-0.246248
N	0.8787632454719295 0.7563930401093181 0.3718246764069799	-0.246249
N	0.7563930401093181 0.8787632454719295 0.8718246764069797	-0.246249
N	0.7436069598906819 0.6212367545280705 0.8718246764069797	-0.246250
N	0.6212367545280705 0.7563930401093181 0.8718246764069797	-0.246249
N	0.8787632454719295 0.7436069598906819 0.8718246764069797	-0.246249
N	0.2436069328906832 0.3787632724719355 0.6281753235930203	-0.246249
N	0.2563930671093168 0.1212367415280656 0.6281753235930203	-0.246240
N	0.3787632724719355 0.2563930671093168 0.6281753235930203	-0.246241
N	0.1212367415280656 0.2436069328906832 0.6281753235930203	-0.246249
C	0.2028754910137282 0.0858001715938368 0.1829722832647946	0.103288
C	0.1948669125824528 0.0098999044605714 0.1825217531289875	-0.179833
C	0.2323979194124402 0.9681589407688562 0.1252167219035843	0.113430
C	0.2757340196737215 0.0058277024224342 0.0694062594996129	-0.176511
C	0.2789096175395805 0.0820691566159219 0.0719712091347335	0.103451
C	0.2267753740126888 0.8873743716095380 0.1240540820637946	0.061166
C	0.2896744720480506 0.8446862918633576 0.1210962376067836	-0.174949
C	0.2854623126099883 0.7672065214965216 0.1221252592241154	0.085989
C	0.1506724591200143 0.7774966183859625 0.1245631781839807	-0.125116
C	0.1567046710369597 0.8527995536558106 0.1268927882683031	-0.137073
C	0.2971244689862758 0.4141998414061606 0.1829722832647946	0.103318
C	0.3051330474175440 0.4901000765394306 0.1825217531289875	-0.179896
C	0.2676020805875597 0.5318410592311438 0.1252167219035843	0.113450
C	0.2242659933262761 0.4941722945775621 0.0694062594996129	-0.176514
C	0.2210903964604207 0.4179308503840822 0.0719712091347335	0.103449
C	0.2732246259873108 0.6126256283904620 0.1240540820637946	0.061164
C	0.2103255689519492 0.6553137081366424 0.1210962376067836	-0.174947
C	0.2145376603900130 0.7327934785034784 0.1221252592241154	0.085989
C	0.3493275268799847 0.7225033816140375 0.1245631781839807	-0.125118
C	0.3432953289630402 0.6472004463441894 0.1268927882683031	-0.137071
C	0.4141998414061606 0.2028754910137282 0.1829722832647946	0.103289
C	0.4901000765394306 0.1948669125824528 0.1825217531289875	-0.179832
C	0.5318410592311438 0.2323979194124402 0.1252167219035843	0.113430
C	0.4941722945775621 0.2757340196737215 0.0694062594996129	-0.176510
C	0.4179308503840822 0.2789096175395805 0.0719712091347335	0.103449
C	0.6126256283904620 0.2267753740126888 0.1240540820637946	0.061166
C	0.6553137081366424 0.2896744720480506 0.1210962376067836	-0.174948
C	0.7327934785034784 0.2854623126099883 0.1221252592241154	0.085989
C	0.7225033816140375 0.1506724591200143 0.1245631781839807	-0.125116
C	0.6472004463441894 0.1567046710369597 0.1268927882683031	-0.137072
C	0.0858001715938368 0.2971244689862758 0.1829722832647946	0.103319
C	0.0098999044605714 0.3051330474175440 0.1825217531289875	-0.179896
C	0.9681589407688562 0.2676020805875597 0.1252167219035843	0.113450
C	0.0058277024224342 0.2242659933262761 0.0694062594996129	-0.176514
C	0.0820691566159219 0.2210903964604207 0.0719712091347335	0.103451
C	0.8873743716095380 0.2732246259873108 0.1240540820637946	0.061164
C	0.8446862918633576 0.2103255689519492 0.1210962376067836	-0.174949
C	0.7672065214965216 0.2145376603900130 0.1221252592241154	0.085989
C	0.7774966183859625 0.3493275268799847 0.1245631781839807	-0.125117
C	0.8527995536558106 0.3432953289630402 0.1268927882683031	-0.137072
C	0.7971245219862693 0.5858001585938394 0.3170277327352069	0.103290
C	0.8051331004175447 0.5098998694605654 0.3174782158710137	-0.179832
C	0.7676020805875601 0.4681589407688561 0.3747832460964128	0.113430
C	0.7242659533262797 0.5058277594224356 0.4305937445003875	-0.176511
C	0.7210903564604167 0.5820692036159218 0.4280288308652630	0.103449
C	0.7732247059873107 0.3873744246095390 0.3759459099362047	0.061190
C	0.7103255549519477 0.3446862388633568 0.3789037543932157	-0.175031
C	0.7145376873900119 0.2672064414965225 0.3778747407758847	0.086005
C	0.8493275538799903 0.2774965913859639 0.3754368058160181	-0.125072
C	0.8432952759630395 0.3527995276558080 0.3731072437316995	-0.137086
C	0.7028754780137307 0.9141998414061606 0.3170277327352069	0.103287
C	0.6948668995824553 0.9901000765394301 0.3174782158710137	-0.179833
C	0.7323979194124399 0.0318410652311445 0.3747832460964128	0.113432
C	0.7757340466737203 0.9941722945775617 0.4305937445003875	-0.176510
C	0.7789096435395833 0.9179309033840835 0.4280288308652630	0.103448
C	0.7267752940126893 0.1126256023904597 0.3759459099362047	0.061190
C	0.7896744450480523 0.1553137481366385 0.3789037543932157	-0.175031
C	0.7854623126099881 0.2327935315034789 0.3778747407758847	0.086004
C	0.6506724461200097 0.2225033956140386 0.3754368058160181	-0.125073
C	0.6567047240369605 0.1472004463441899 0.3731072437316995	-0.137084
C	0.5858001585938394 0.7028754780137307 0.3170277327352069	0.103290
C	0.5098998694605654 0.6948668995824553 0.3174782158710137	-0.179834
C	0.4681589407688561 0.7323979194124399 0.3747832460964128	0.113431
C	0.5058277594224356 0.7757340466737203 0.4305937445003875	-0.176510
C	0.5820692036159218 0.7789096435395833 0.4280288308652630	0.103449
C	0.3873744246095390 0.7267752940126893 0.3759459099362047	0.061190
C	0.3446862388633568 0.7896744450480523 0.3789037543932157	-0.175032
C	0.2672064414965225 0.7854623126099881 0.3778747407758847	0.086004
C	0.2774965913859639 0.6506724461200097 0.3754368058160181	-0.125072
C	0.3527995276558080 0.6567047240369605 0.3731072437316995	-0.137086
C	0.9141998414061606 0.7971245219862693 0.3170277327352069	0.103288
C	0.9901000765394301 0.8051331004175447 0.3174782158710137	-0.179831
C	0.0318410652311445 0.7676020805875601 0.3747832460964128	0.113430
C	0.9941722945775617 0.7242659533262797 0.4305937445003875	-0.176511
C	0.9179309033840835 0.7210903564604167 0.4280288308652630	0.103449
C	0.1126256023904597 0.7732247059873107 0.3759459099362047	0.061191
C	0.1553137481366385 0.7103255549519477 0.3789037543932157	-0.175031
C	0.2327935315034789 0.7145376873900119 0.3778747407758847	0.086005
C	0.2225033956140386 0.8493275538799903 0.3754368058160181	-0.125073
C	0.1472004463441899 0.8432952759630395 0.3731072437316996	-0.137085
C	0.7971245219862693 0.9141998414061606 0.8170277007352036	0.103287
C	0.8051331004175447 0.9901000765394301 0.8174782788710157	-0.179832
C	0.7676020805875601 0.0318410652311445 0.8747833100964115	0.113431
C	0.7242659533262797 0.9941722945775617 0.9305937135003886	-0.176511
C	0.7210903564604167 0.9179309033840835 0.9280287988652600	0.103447
C	0.7732247059873107 0.1126256023904597 0.8759459099362046	0.061190
C	0.7103255549519477 0.1553137481366385 0.8789037863932182	-0.175030
C	0.7145376873900119 0.2327935315034789 0.8778747727758803	0.086003
C	0.8493275538799903 0.2225033956140386 0.8754368688160196	-0.125066
C	0.8432952759630395 0.1472004463441899 0.8731072757316946	-0.137087
C	0.7028754780137307 0.5858001585938394 0.8170277007352036	0.103289
C	0.6948668995824553 0.5098998694605654 0.8174782788710157	-0.179833
C	0.7323979194124399 0.4681589407688561 0.8747833100964115	0.113430
C	0.7757340466737203 0.5058277594224356 0.9305937135003886	-0.176509
C	0.7789096435395833 0.5820692036159217 0.9280287988652600	0.103449
C	0.7267752940126893 0.3873744246095390 0.8759459099362046	0.061190
C	0.7896744450480523 0.3446862388633568 0.8789037863932182	-0.175032
C	0.7854623126099881 0.2672064414965225 0.8778747727758803	0.086003
C	0.6506724461200097 0.2774965913859639 0.8754368688160196	-0.125065
C	0.6567047240369605 0.3527995276558080 0.8731072757316946	-0.137088
C	0.5858001585938394 0.7971245219862693 0.8170277007352036	0.103288
C	0.5098998694605654 0.8051331004175447 0.8174782788710157	-0.179832
C	0.4681589407688561 0.7676020805875601 0.8747833100964115	0.113431
C	0.5058277594224356 0.7242659533262797 0.9305937135003886	-0.176511
C	0.5820692036159218 0.7210903564604167 0.9280287988652600	0.103449
C	0.3873744246095390 0.7732247059873107 0.8759459099362046	0.061190
C	0.3446862388633568 0.7103255549519477 0.8789037863932182	-0.175032
C	0.2672064414965225 0.7145376873900119 0.8778747727758803	0.086003
C	0.2774965913859639 0.8493275538799903 0.8754368688160196	-0.125066
C	0.3527995276558080 0.8432952759630395 0.8731072757316946	-0.137088
C	0.9141998414061606 0.7028754780137307 0.8170277007352036	0.103289
C	0.9901000765394301 0.6948668995824553 0.8174782788710157	-0.179832
C	0.0318410652311445 0.7323979194124399 0.8747833100964115	0.113430
C	0.9941722945775617 0.7757340466737203 0.9305937135003886	-0.176509
C	0.9179309033840835 0.7789096435395833 0.9280287988652600	0.103448
C	0.1126256023904597 0.7267752940126893 0.8759459099362046	0.061191
C	0.1553137481366385 0.7896744450480523 0.8789037863932182	-0.175031
C	0.2327935315034789 0.7854623126099881 0.8778747727758803	0.086003
C	0.2225033956140386 0.6506724461200097 0.8754368688160196	-0.125065
C	0.1472004463441899 0.6567047240369605 0.8731072757316946	-0.137088
C	0.2028754910137282 0.4141998414061606 0.6829722992647964	0.103287
C	0.1948669125824528 0.4901000765394306 0.6825217211289843	-0.179832
C	0.2323979194124402 0.5318410592311438 0.6252166899035885	0.113431
C	0.2757340196737215 0.4941722945775621 0.5694062864996114	-0.176510
C	0.2789096175395805 0.4179308503840822 0.5719712011347400	0.103448
C	0.2267753740126888 0.6126256283904620 0.6240540900637954	0.061166
C	0.2896744720480506 0.6553137081366424 0.6210962136067818	-0.174949
C	0.2854623126099883 0.7327934785034784 0.6221252272241197	0.085988
C	0.1506724591200143 0.7225033816140375 0.6245631311839804	-0.125109
C	0.1567046710369597 0.6472004463441894 0.6268927242683054	-0.137074
C	0.2971244689862758 0.0858001715938368 0.6829722992647964	0.103319
C	0.3051330474175440 0.0098999044605714 0.6825217211289843	-0.179895
C	0.2676020805875597 0.9681589407688562 0.6252166899035885	0.113448
C	0.2242659933262761 0.0058277024224342 0.5694062864996114	-0.176514
C	0.2210903964604207 0.0820691566159219 0.5719712011347400	0.103451
C	0.2732246259873108 0.8873743716095380 0.6240540900637954	0.061164
C	0.2103255689519492 0.8446862918633576 0.6210962136067818	-0.174949
C	0.2145376603900130 0.7672065214965216 0.6221252272241197	0.085988
C	0.3493275268799847 0.7774966183859625 0.6245631311839804	-0.125109
C	0.3432953289630402 0.8527995536558106 0.6268927242683054	-0.137075
C	0.4141998414061606 0.2971244689862758 0.6829722992647964	0.103318
C	0.4901000765394306 0.3051330474175440 0.6825217211289843	-0.179894
C	0.5318410592311438 0.2676020805875597 0.6252166899035885	0.113448
C	0.4941722945775621 0.2242659933262761 0.5694062864996114	-0.176513
C	0.4179308503840822 0.2210903964604207 0.5719712011347400	0.103450
C	0.6126256283904620 0.2732246259873108 0.6240540900637954	0.061165
C	0.6553137081366424 0.2103255689519492 0.6210962136067818	-0.174949
C	0.7327934785034784 0.2145376603900130 0.6221252272241197	0.085988
C	0.7225033816140375 0.3493275268799847 0.6245631311839804	-0.125110
C	0.6472004463441894 0.3432953289630402 0.6268927242683054	-0.137074
C	0.0858001715938368 0.2028754910137282 0.6829722992647964	0.103289
C	0.0098999044605714 0.1948669125824528 0.6825217211289843	-0.179833
C	0.9681589407688562 0.2323979194124402 0.6252166899035885	0.113431
C	0.0058277024224342 0.2757340196737215 0.5694062864996114	-0.176510
C	0.0820691566159219 0.2789096175395805 0.5719712011347400	0.103450
C	0.8873743716095380 0.2267753740126888 0.6240540900637954	0.061165
C	0.8446862918633576 0.2896744720480506 0.6210962136067818	-0.174949
C	0.7672065214965216 0.2854623126099883 0.6221252272241197	0.085988
C	0.7774966183859625 0.1506724591200143 0.6245631311839804	-0.125109
C	0.8527995536558106 0.1567046710369597 0.6268927242683054	-0.137076
H	0.1770353380806952 0.1196388488609978 0.2288481251341971	0.099683
H	0.1613971433794708 0.9832118589929358 0.2279723792366632	0.116501
H	0.3051512775117712 0.9759675007935504 0.0229351019117746	0.116414
H	0.3095868217679945 0.1133104581887525 0.0273929605851225	0.100101
H	0.3436489976664934 0.8707451706265928 0.1204889740720226	0.109494
H	0.0967099329162177 0.7512248270307180 0.1250314415775392	0.110789
H	0.1075321478569806 0.8869755768499287 0.1289623050135012	0.103238
H	0.3229646349193061 0.3803611781390080 0.2288481251341971	0.099679
H	0.3386028966205256 0.5167881410070642 0.2279723792366632	0.116513
H	0.1948487354882265 0.5240324992064496 0.0229351019117746	0.116414
H	0.1904131782320055 0.3866895418112475 0.0273929605851225	0.100101
H	0.1563510163335077 0.6292548293734072 0.1204889740720226	0.109493
H	0.4032900600837779 0.7487751729692820 0.1250314415775392	0.110790
H	0.3924678651430241 0.6130244231500713 0.1289623050135012	0.103239
H	0.3803611781390080 0.1770353380806952 0.2288481251341971	0.099682
H	0.5167881410070642 0.1613971433794708 0.2279723792366632	0.116502
H	0.5240324992064496 0.3051512775117712 0.0229351019117746	0.116414
H	0.3866895418112475 0.3095868217679945 0.0273929605851225	0.100101
H	0.6292548293734072 0.3436489976664934 0.1204889740720226	0.109495
H	0.7487751729692820 0.0967099329162177 0.1250314415775392	0.110789
H	0.6130244231500713 0.1075321478569806 0.1289623050135012	0.103239
H	0.1196388488609978 0.3229646349193061 0.2288481251341971	0.099680
H	0.9832118589929358 0.3386028966205256 0.2279723792366632	0.116512
H	0.9759675007935504 0.1948487354882265 0.0229351019117746	0.116414
H	0.1133104581887525 0.1904131782320055 0.0273929605851225	0.100101
H	0.8707451706265928 0.1563510163335077 0.1204889740720226	0.109492
H	0.7512248270307180 0.4032900600837779 0.1250314415775392	0.110790
H	0.8869755768499287 0.3924678651430241 0.1289623050135012	0.103240
H	0.8229646349193062 0.6196388758609963 0.2711518908658045	0.099683
H	0.8386028156205293 0.4832119129929335 0.2720276207633370	0.116501
H	0.6948487224882289 0.4759675007935508 0.4770649000882256	0.116415
H	0.6904132312320063 0.6133104851887516 0.4726070374148774	0.100101
H	0.6563510023335067 0.3707451166265954 0.3795110339279781	0.109509
H	0.9032900070837775 0.2512248540307166 0.3749685504224601	0.110785
H	0.8924678381430252 0.3869756028499240 0.3710377029864992	0.103241
H	0.6770353650806938 0.8803611241390037 0.2711518908658045	0.099683
H	0.6613971843794707 0.0167881030070609 0.2720276207633370	0.116501
H	0.8051512775117711 0.0240324982064457 0.4770649000882256	0.116415
H	0.8095867687679937 0.8866895148112484 0.4726070374148774	0.100100
H	0.8436489976664933 0.1292548963734092 0.3795110339279781	0.109510
H	0.5967099399162217 0.2487751189692777 0.3749685504224601	0.110782
H	0.6075321618569748 0.1130244101500737 0.3710377029864992	0.103238
H	0.6196388758609963 0.6770353650806938 0.2711518908658045	0.099683
H	0.4832119129929335 0.6613971843794707 0.2720276207633370	0.116502
H	0.4759675007935508 0.8051512775117711 0.4770649000882256	0.116414
H	0.6133104851887516 0.8095867687679937 0.4726070374148774	0.100101
H	0.3707451166265954 0.8436489976664933 0.3795110339279781	0.109511
H	0.2512248540307166 0.5967099399162217 0.3749685504224601	0.110783
H	0.3869756028499240 0.6075321618569748 0.3710377029864992	0.103239
H	0.8803611241390037 0.8229646349193062 0.2711518908658045	0.099683
H	0.0167881030070609 0.8386028156205293 0.2720276207633370	0.116501
H	0.0240324982064457 0.6948487224882289 0.4770649000882256	0.116416
H	0.8866895148112484 0.6904132312320063 0.4726070374148774	0.100100
H	0.1292548963734092 0.6563510023335067 0.3795110339279781	0.109509
H	0.2487751189692777 0.9032900070837775 0.3749685504224601	0.110783
H	0.1130244101500737 0.8924678381430252 0.3710377029864992	0.103241
H	0.8229646349193062 0.8803611241390037 0.7711518598658057	0.099682
H	0.8386028156205293 0.0167881030070609 0.7720276357633418	0.116501
H	0.6948487224882289 0.0240324982064457 0.9770649310882247	0.116415
H	0.6904132312320063 0.8866895148112484 0.9726069734148790	0.100101
H	0.6563510023335067 0.1292548963734092 0.8795110019279755	0.109510
H	0.9032900070837775 0.2487751189692777 0.8749684874224583	0.110782
H	0.8924678381430252 0.1130244101500737 0.8710376709864964	0.103240
H	0.6770353650806938 0.6196388758609963 0.7711518598658057	0.099684
H	0.6613971843794707 0.4832119129929335 0.7720276357633418	0.116502
H	0.8051512775117711 0.4759675007935508 0.9770649310882247	0.116414
H	0.8095867687679937 0.6133104851887516 0.9726069734148790	0.100101
H	0.8436489976664933 0.3707451166265954 0.8795110019279755	0.109509
H	0.5967099399162217 0.2512248540307166 0.8749684874224583	0.110779
H	0.6075321618569748 0.3869756028499240 0.8710376709864964	0.103240
H	0.6196388758609963 0.8229646349193062 0.7711518598658057	0.099684
H	0.4832119129929335 0.8386028156205293 0.7720276357633418	0.116501
H	0.4759675007935508 0.6948487224882289 0.9770649310882247	0.116415
H	0.6133104851887516 0.6904132312320063 0.9726069734148790	0.100101
H	0.3707451166265954 0.6563510023335067 0.8795110019279755	0.109510
H	0.2512248540307166 0.9032900070837775 0.8749684874224583	0.110782
H	0.3869756028499240 0.8924678381430252 0.8710376709864964	0.103241
H	0.8803611241390037 0.6770353650806938 0.7711518598658057	0.099683
H	0.0167881030070609 0.6613971843794707 0.7720276357633418	0.116503
H	0.0240324982064457 0.8051512775117711 0.9770649310882247	0.116415
H	0.8866895148112484 0.8095867687679937 0.9726069734148790	0.100101
H	0.1292548963734092 0.8436489976664933 0.8795110019279755	0.109510
H	0.2487751189692777 0.5967099399162217 0.8749684874224583	0.110779
H	0.1130244101500737 0.6075321618569748 0.8710376709864964	0.103240
H	0.1770353380806952 0.3803611781390080 0.7288481401341943	0.099683
H	0.1613971433794708 0.5167881410070642 0.7279723642366582	0.116501
H	0.3051512775117712 0.5240324992064496 0.5229350999117743	0.116414
H	0.3095868217679945 0.3866895418112475 0.5273929625851228	0.100101
H	0.3436489976664934 0.6292548293734072 0.6204889980720245	0.109495
H	0.0967099329162177 0.7487751729692820 0.6250315125775417	0.110785
H	0.1075321478569806 0.6130244231500713 0.6289623290135036	0.103237
H	0.3229646349193061 0.1196388488609978 0.7288481401341943	0.099680
H	0.3386028966205256 0.9832118589929358 0.7279723642366582	0.116514
H	0.1948487354882265 0.9759675007935504 0.5229350999117743	0.116414
H	0.1904131782320055 0.1133104581887525 0.5273929625851228	0.100101
H	0.1563510163335077 0.8707451706265928 0.6204889980720245	0.109492
H	0.4032900600837779 0.7512248270307180 0.6250315125775417	0.110786
H	0.3924678651430241 0.8869755768499287 0.6289623290135036	0.103241
H	0.3803611781390080 0.3229646349193061 0.7288481401341943	0.099680
H	0.5167881410070642 0.3386028966205256 0.7279723642366582	0.116513
H	0.5240324992064496 0.1948487354882265 0.5229350999117743	0.116415
H	0.3866895418112475 0.1904131782320055 0.5273929625851228	0.100100
H	0.6292548293734072 0.1563510163335077 0.6204889980720245	0.109495
H	0.7487751729692820 0.4032900600837779 0.6250315125775417	0.110787
H	0.6130244231500713 0.3924678651430241 0.6289623290135036	0.103241
H	0.1196388488609978 0.1770353380806952 0.7288481401341943	0.099683
H	0.9832118589929358 0.1613971433794708 0.7279723642366582	0.116502
H	0.9759675007935504 0.3051512775117712 0.5229350999117743	0.116413
H	0.1133104581887525 0.3095868217679945 0.5273929625851228	0.100102
H	0.8707451706265928 0.3436489976664934 0.6204889980720245	0.109494
H	0.7512248270307180 0.0967099329162177 0.6250315125775417	0.110784
H	0.8869755768499287 0.1075321478569806 0.6289623290135036	0.103239
F	0.3146984123193149 0.1613946528728857 0.3787697982956743	-0.597507
F	0.1853016146806837 0.3386053471271144 0.3787697982956743	-0.597505
F	0.3386053471271144 0.3146984123193149 0.3787697982956743	-0.597506
F	0.1613946528728857 0.1853016146806837 0.3787697982956743	-0.597506
F	0.6853015876806851 0.6613945988728889 0.1212302017043257	-0.597506
F	0.8146984123193149 0.8386054011271113 0.1212302017043257	-0.597506
F	0.6613945988728887 0.8146984123193149 0.1212302017043257	-0.597505
F	0.8386054011271113 0.6853015876806851 0.1212302017043257	-0.597507
F	0.6853015876806852 0.8386054011271111 0.6212301697043232	-0.597505
F	0.8146984123193149 0.6613945988728889 0.6212301697043232	-0.597507
F	0.6613945988728889 0.6853015876806851 0.6212301697043232	-0.597506
F	0.8386054011271113 0.8146984123193149 0.6212301697043232	-0.597506
F	0.3146984123193149 0.3386053471271144 0.8787698302956768	-0.597506
F	0.1853016146806837 0.1613946528728857 0.8787698302956768	-0.597506
F	0.3386053471271144 0.1853016146806837 0.8787698302956768	-0.597507
F	0.1613946528728857 0.3146984123193149 0.8787698302956768	-0.597505
F	0.2500000000000000 0.2500000000000000 0.2591777756827785	-0.538950
F	0.2500000000000000 0.2500000000000000 0.4986930470863223	-0.541286
F	0.7500000000000000 0.7500000000000000 0.2408222403172227	-0.538950
F	0.7500000000000000 0.7500000000000000 0.0013069599136818	-0.541286
F	0.7500000000000000 0.7500000000000000 0.7408221923172189	-0.538950
F	0.7500000000000000 0.7500000000000000 0.5013069849136805	-0.541286
F	0.2500000000000000 0.2500000000000000 0.7591778076827811	-0.538950
F	0.2500000000000000 0.2500000000000000 -0.0013069849136803	-0.541286
Cd	0.2500000000000000 0.2500000000000000 0.1290797928605619	0.828021
Cd	0.7500000000000000 0.7500000000000000 0.3709202231394395	0.828021
Cd	0.7500000000000000 0.7500000000000000 0.8709201921394403	0.828023
Cd	0.2500000000000000 0.2500000000000000 0.6290798078605597	0.828022
Sn	0.2500000000000000 0.2500000000000000 0.3788875245842021	1.906976
Sn	0.7500000000000000 0.7500000000000000 0.1211124834157986	1.906976
Sn	0.7500000000000000 0.7500000000000000 0.6211124444157988	1.906976
Sn	0.2500000000000000 0.2500000000000000 0.8788875555842012	1.906976
	  	
