#======================================================================

# CRYSTAL DATA

#----------------------------------------------------------------------

data_VESTA_phase_1


_pd_phase_name                         SnFSIX_3_Ni
_cell_length_a                         14.08123
_cell_length_b                         14.08123
_cell_length_c                         8.07721
_cell_angle_alpha                      90
_cell_angle_beta                       90
_cell_angle_gamma                      90
_symmetry_space_group_name_H-M         P 1
_symmetry_Int_Tables_number            1

loop_
_symmetry_equiv_pos_as_xyz
   x, y, z

loop_
   _atom_site_label
   _atom_site_fract_x
   _atom_site_fract_y
   _atom_site_fract_z
   _atom_site_charge
C	0.2704494289595334 0.4505372401323562 0.6377050594788901	0.069224
C	0.2295505710404666 0.0494627638676439 0.6377050594788901	0.069225
C	0.2295505710404666 0.4505372401323562 0.3622949085211072	0.069233
C	0.2704494289595334 0.0494627638676439 0.3622949085211072	0.069234
C	0.0494627638676439 0.2704494289595334 0.3622949085211072	0.069241
C	0.4505372401323562 0.2295505710404666 0.3622949085211072	0.069240
C	0.4505372401323562 0.2704494289595334 0.6377050594788901	0.069249
C	0.0494627638676439 0.2295505710404666 0.6377050594788901	0.069250
C	0.9505371721323578 0.2295505710404666 0.6377050594788901	0.069282
C	0.5494628278676422 0.2704494289595334 0.6377050594788901	0.069283
C	0.5494628278676422 0.2295505710404666 0.3622949085211072	0.069290
C	0.9505371721323578 0.2704494289595334 0.3622949085211072	0.069289
C	0.7295505880404646 0.0494627638676439 0.3622949085211072	0.069241
C	0.7704494119595354 0.4505372401323562 0.3622949085211072	0.069240
C	0.7704494119595354 0.0494627638676439 0.6377050594788901	0.069249
C	0.7295505880404646 0.4505372401323562 0.6377050594788901	0.069249
C	0.4505372401323562 0.7295505880404646 0.6377050594788901	0.069226
C	0.0494627638676439 0.7704494119595354 0.6377050594788901	0.069227
C	0.0494627638676439 0.7295505880404646 0.3622949085211072	0.069235
C	0.4505372401323562 0.7704494119595354 0.3622949085211072	0.069235
C	0.2295505710404666 0.5494628278676422 0.3622949085211072	0.069297
C	0.2704494289595334 0.9505371721323578 0.3622949085211072	0.069297
C	0.2704494289595334 0.5494628278676422 0.6377050594788901	0.069304
C	0.2295505710404666 0.9505371721323578 0.6377050594788901	0.069303
C	0.7704494119595354 0.9505371721323578 0.6377050594788901	0.069282
C	0.7295505880404646 0.5494628278676422 0.6377050594788901	0.069282
C	0.7295505880404646 0.9505371721323578 0.3622949085211072	0.069288
C	0.7704494119595354 0.5494628278676422 0.3622949085211072	0.069289
C	0.5494628278676422 0.7704494119595354 0.3622949085211072	0.069297
C	0.9505371721323578 0.7295505880404646 0.3622949085211072	0.069296
C	0.9505371721323578 0.7704494119595354 0.6377050594788901	0.069304
C	0.5494628278676422 0.7295505880404646 0.6377050594788901	0.069304
H	0.2875194328518736 0.4119897356825850 0.7508388067252728	0.106808
H	0.2124805331481234 0.0880102643174149 0.7508388067252728	0.106808
H	0.2124805331481234 0.4119897356825850 0.2491611622747281	0.106808
H	0.2875194328518736 0.0880102643174149 0.2491611622747281	0.106807
H	0.0880102643174149 0.2875194328518736 0.2491611622747281	0.106806
H	0.4119897356825850 0.2124805331481234 0.2491611622747281	0.106807
H	0.4119897356825850 0.2875194328518736 0.7508388067252728	0.106805
H	0.0880102643174149 0.2124805331481234 0.7508388067252728	0.106806
H	0.9119898036825906 0.2124805331481234 0.7508388067252728	0.106800
H	0.5880101963174094 0.2875194328518736 0.7508388067252728	0.106800
H	0.5880101963174094 0.2124805331481234 0.2491611622747281	0.106800
H	0.9119898036825906 0.2875194328518736 0.2491611622747281	0.106800
H	0.7124804991481276 0.0880102643174149 0.2491611622747281	0.106806
H	0.7875195008518724 0.4119897356825850 0.2491611622747281	0.106806
H	0.7875195008518724 0.0880102643174149 0.7508388067252728	0.106805
H	0.7124804991481276 0.4119897356825850 0.7508388067252728	0.106805
H	0.4119897356825851 0.7124804991481276 0.7508388067252728	0.106807
H	0.0880102643174149 0.7875195008518724 0.7508388067252728	0.106807
H	0.0880102643174149 0.7124804991481276 0.2491611622747281	0.106807
H	0.4119897356825850 0.7875195008518724 0.2491611622747281	0.106807
H	0.2124805331481234 0.5880101963174094 0.2491611622747281	0.106799
H	0.2875194328518736 0.9119898036825906 0.2491611622747281	0.106799
H	0.2875194328518736 0.5880101963174094 0.7508388067252728	0.106798
H	0.2124805331481234 0.9119898036825906 0.7508388067252728	0.106798
H	0.7875195008518724 0.9119898036825906 0.7508388067252728	0.106799
H	0.7124804991481276 0.5880101963174094 0.7508388067252728	0.106799
H	0.7124804991481276 0.9119898036825906 0.2491611622747281	0.106799
H	0.7875195008518724 0.5880101963174094 0.2491611622747281	0.106799
H	0.5880101963174094 0.7875195008518724 0.2491611622747281	0.106798
H	0.9119898036825906 0.7124804991481276 0.2491611622747281	0.106798
H	0.9119898036825906 0.7875195008518724 0.7508388067252728	0.106797
H	0.5880101963174094 0.7124804991481276 0.7508388067252728	0.106797
Ni	0.2500000000000000 0.2500000000000000 0.5000000000000000	0.752294
Ni	0.7500000340000028 0.2500000000000000 0.5000000000000000	0.752298
Ni	0.2500000000000000 0.7500000340000028 0.5000000000000000	0.752298
Ni	0.7500000340000028 0.7500000340000028 0.5000000000000000	0.752301
Sn	0.2500000000000000 0.2500000000000000 -0.0000000000000000	1.856950
Sn	0.7500000340000028 0.2500000000000000 -0.0000000000000000	1.856949
Sn	0.2500000000000000 0.7500000340000028 -0.0000000000000000	1.856949
Sn	0.7500000340000028 0.7500000340000028 -0.0000000000000000	1.856949
F	0.2500000000000000 0.2500000000000000 0.7457325343010226	-0.534031
F	0.2500000000000000 0.2500000000000000 0.2542674656989775	-0.534031
F	0.3492274197098733 0.3492274197098733 -0.0117229029795594	-0.537324
F	0.1507725802901266 0.1507725802901266 -0.0117229029795594	-0.537322
F	0.1507725802901266 0.3492274197098733 0.0117229239795576	-0.537322
F	0.3492274197098733 0.1507725802901266 0.0117229239795575	-0.537322
F	0.7500000340000028 0.2500000000000000 0.7457325343010226	-0.534031
F	0.7500000340000028 0.2500000000000000 0.2542674656989775	-0.534031
F	0.8492274537098762 0.3492274197098733 0.0117229239795576	-0.537329
F	0.6507725462901238 0.1507725802901266 0.0117229239795575	-0.537327
F	0.6507725462901238 0.3492274197098733 -0.0117229029795594	-0.537328
F	0.8492274537098762 0.1507725802901266 -0.0117229029795594	-0.537328
F	0.2500000000000000 0.7500000340000028 0.7457325343010226	-0.534031
F	0.2500000000000000 0.7500000340000028 0.2542674656989775	-0.534031
F	0.3492274197098733 0.8492274537098762 0.0117229239795576	-0.537329
F	0.1507725802901266 0.6507725462901238 0.0117229239795575	-0.537327
F	0.1507725802901266 0.8492274537098762 -0.0117229029795594	-0.537328
F	0.3492274197098733 0.6507725462901238 -0.0117229029795594	-0.537328
F	0.7500000340000028 0.7500000340000028 0.7457325343010226	-0.534031
F	0.7500000340000028 0.7500000340000028 0.2542674656989775	-0.534031
F	0.8492274537098762 0.8492274537098762 -0.0117229029795594	-0.537334
F	0.6507725462901238 0.6507725462901238 -0.0117229029795594	-0.537332
F	0.6507725462901238 0.8492274537098762 0.0117229239795576	-0.537333
F	0.8492274537098762 0.6507725462901238 0.0117229239795576	-0.537333
N	0.4007940057448315 0.2500000000000000 0.5000000000000000	-0.200101
N	0.0992059942551684 0.2500000000000000 0.5000000000000000	-0.200100
N	0.2500000000000000 0.4007940057448315 0.5000000000000000	-0.200094
N	0.2500000000000000 0.0992059942551684 0.5000000000000000	-0.200094
N	0.9007940057448315 0.2500000000000000 0.5000000000000000	-0.200111
N	0.5992059942551685 0.2500000000000000 0.5000000000000000	-0.200110
N	0.7500000340000028 0.4007940057448315 0.5000000000000000	-0.200098
N	0.7500000340000028 0.0992059942551684 0.5000000000000000	-0.200098
N	0.4007940057448316 0.7500000340000028 0.5000000000000000	-0.200097
N	0.0992059942551684 0.7500000340000028 0.5000000000000000	-0.200097
N	0.2500000000000000 0.9007940057448315 0.5000000000000000	-0.200111
N	0.2500000000000000 0.5992059942551685 0.5000000000000000	-0.200111
N	0.9007940057448315 0.7500000340000028 0.5000000000000000	-0.200114
N	0.5992059942551685 0.7500000340000028 0.5000000000000000	-0.200113
N	0.7500000340000028 0.9007940057448315 0.5000000000000000	-0.200108
N	0.7500000340000028 0.5992059942551685 0.5000000000000000	-0.200107
	  	
