#======================================================================

# CRYSTAL DATA

#----------------------------------------------------------------------

data_VESTA_phase_1


_pd_phase_name                         SnFSIX_14_Ni_i
_cell_length_a                         13.23235
_cell_length_b                         13.23129
_cell_length_c                         8.15893
_cell_angle_alpha                      87.09415
_cell_angle_beta                       87.01662
_cell_angle_gamma                      88.19464
_symmetry_space_group_name_H-M         P 1
_symmetry_Int_Tables_number            1

loop_
_symmetry_equiv_pos_as_xyz
   x, y, z

loop_
   _atom_site_label
   _atom_site_fract_x
   _atom_site_fract_y
   _atom_site_fract_z
   _atom_site_charge
C	0.5673048828519396 0.2702567142283182 0.3611434561061208	-0.175134
C	0.4622136496561465 0.2734646398785943 0.3661037653329254	0.109807
C	0.9363569939957239 0.2921177344989030 0.4104880673184521	-0.165625
C	0.0413660143977999 0.2857360698173951 0.3960163101667250	0.112370
C	0.2685469209935754 0.5669552490763666 0.3630274318727251	-0.175870
C	0.2721977718729313 0.4618261650717759 0.3677546610600853	0.111901
C	0.2989628613424030 0.9355094737937333 0.4057125540372470	-0.165347
C	0.2912812919041063 0.0404687868532530 0.3923919294533212	0.110423
C	0.9333075514051452 0.2320019393345904 0.1368641903104960	-0.174662
C	0.0384154026901647 0.2287921137213365 0.1318558380073916	0.109813
C	0.5642282722325188 0.2032308548043025 0.0921890154973254	-0.163340
C	0.4592064391423226 0.2099312396071386 0.1063566663955530	0.110213
C	0.2044925769679589 0.5636155130730668 0.0920363061999007	-0.165944
C	0.2118672365342178 0.4586648965415244 0.1059725330908144	0.110684
C	0.2287854666646366 0.9323632065596708 0.1390950179591395	-0.175986
C	0.2252363599058999 0.0374985565830254 0.1345867405239562	0.111822
C	0.4326429028998665 0.7332488465276271 0.6372341834966720	-0.174472
C	0.5376516821458661 0.7304015354926593 0.6321594129478753	0.111778
C	0.0640206891398191 0.7213141675668355 0.5803575057831881	-0.161069
C	0.9590632715693937 0.7246421047131210 0.5968420928218069	0.114435
C	0.7345370011214304 0.4328339025134592 0.6366016027467496	-0.175806
C	0.7320937032816484 0.5379163862539453 0.6314539563631747	0.113274
C	0.7085674106351914 0.0642324774118214 0.5871160493862408	-0.162314
C	0.7137240522979448 0.9592228983424169 0.6023396148025993	0.113784
C	0.0673137416559331 0.7640235823242730 0.8639508474900799	-0.174745
C	0.9623019325333764 0.7660723658871208 0.8695448490677449	0.111264
C	0.4357519289632139 0.7850109679180748 0.9162122259848512	-0.160466
C	0.5407330540684876 0.7808095918783104 0.9002719810443018	0.113262
C	0.7857940903809516 0.4359769744410244 0.9157080687002989	-0.161996
C	0.7813630151165266 0.5409631788675078 0.9000221807920769	0.111423
C	0.7679676963757101 0.0673242496298968 0.8614096216928427	-0.175833
C	0.7710242813023167 0.9622733713852680 0.8661567888102649	0.112375
C	0.6197947120424643 0.2351433020880725 0.2203273356722647	0.190277
C	0.8807913033744347 0.2634502157727679 0.2800833488745650	0.191511
C	0.2348125190342338 0.6192590052840383 0.2212948990948813	0.191971
C	0.2658041722220863 0.8799619233332566 0.2784028883203307	0.190457
C	0.3803250445836728 0.7602881187429066 0.7833843720904330	0.190768
C	0.1195177188113287 0.7419071634047074 0.7153024093751763	0.190879
C	0.7610387151297752 0.3804481069681853 0.7828247249646328	0.191994
C	0.7369651990453063 0.1197352765362568 0.7177830071092796	0.190908
H	0.6076440522819160 0.2909871262482726 0.4667260876186820	0.111514
H	0.4196027143611790 0.2987783717410790 0.4751125459055010	0.092925
H	0.8979965948976601 0.3188079598229053 0.5218609406241375	0.125276
H	0.0863823771168299 0.3070860613079936 0.4960364886132434	0.095141
H	0.2878071441824763 0.6077198422865444 0.4691308108132540	0.112902
H	0.2964314745675698 0.4191070661408171 0.4772418379778118	0.091939
H	0.3299576957743277 0.8971626173981543 0.5137565977317852	0.125546
H	0.3154035076903112 0.0856552302889050 0.4903967630496781	0.096190
H	0.8928899247989379 0.2139210110230361 0.0298126398386623	0.111329
H	0.0810400000785087 0.2059584577504429 0.0212946438286847	0.092758
H	0.6025643903538294 0.1735633126379637 0.9829618017477820	0.125240
H	0.4141526828617295 0.1862327948684255 0.0079618082102616	0.096277
H	0.1759951945036270 0.6018267240973652 0.9819597252460438	0.125156
H	0.1896945390238130 0.4135070420836500 0.0066060676912997	0.095762
H	0.2069844343727213 0.8917591981933800 0.0343470853691467	0.113155
H	0.1988117445041542 0.0803594764032592 0.0266524154431806	0.092435
H	0.3925279099593957 0.7172241506241106 0.5287554877923870	0.108147
H	0.5805912483612167 0.7097114778776815 0.5206542909693128	0.092039
H	0.1021755328081201 0.7032501983349944 0.4639629581956009	0.124603
H	0.9141510008901252 0.7081398222011257 0.4940740191722809	0.092800
H	0.7191489658963178 0.3924381568410572 0.5279829985207752	0.108964
H	0.7121660822191823 0.5808118392970643 0.5196346331716878	0.091664
H	0.6828888440350194 0.1025113510693983 0.4752073996311877	0.124868
H	0.6918907453387025 0.9141402666902622 0.5027217031068220	0.093775
H	0.1075334478792461 0.7768274830683346 0.9737885746476033	0.107362
H	0.9194514832539237 0.7829361270665839 0.9829712906840464	0.091388
H	0.3974521827948024 0.8071738209373857 0.0303766889448844	0.124241
H	0.5856637666105953 0.8003382460398845 0.0013956790076438	0.094082
H	0.8078778510332255 0.3976998533436482 0.0298406746482061	0.124523
H	0.8004697165544854 0.5860011221094834 0.0013411453200627	0.094188
H	0.7863493269012057 0.1076393585094674 0.9685540872244063	0.109924
H	0.7943813810756696 0.9193404663806229 0.9760065952915107	0.092828
N	0.7740909440047453 0.2738443180788198 0.2995199125042456	-0.106897
N	0.2777715304241614 0.7732832579165937 0.2952885751070221	-0.107784
N	0.7265412291599026 0.2244034493693618 0.2010771116052804	-0.106089
N	0.2231912306013910 0.7259012070724379 0.2040193172828529	-0.107349
N	0.2259671485526308 0.7354006335662990 0.6911124305737925	-0.103240
N	0.7285448996653492 0.2263855266088252 0.6958946743867148	-0.103602
N	0.2738237698727272 0.7674118669038401 0.8072259957566212	-0.102018
N	0.7689044838553475 0.2738576612107708 0.8049944059425548	-0.104858
N	0.4085155029795683 0.2448855543185246 0.2406918321690347	-0.230487
N	0.0921353062765297 0.2541506835934915 0.2593404508083501	-0.232240
N	0.2454458221836262 0.4081007832480714 0.2412455835703582	-0.234051
N	0.2549082477766291 0.0910763171684184 0.2592877520284439	-0.232593
N	0.5913122476023100 0.7533986385872919 0.7611327262372871	-0.230792
N	0.9084927764046355 0.7471957734882102 0.7386058225001109	-0.230549
N	0.7544362107196440 0.5916155620442016 0.7607432236652876	-0.231519
N	0.7449642342389543 0.9086355523435913 0.7389702565984940	-0.232035
F	0.3569941354865849 0.1386549640804893 0.7508133773947686	-0.556213
F	0.1461780993037319 0.3601463375980186 0.7504371404976601	-0.555923
F	0.3585501450410666 0.3514036497926618 0.7136404502127726	-0.550798
F	0.1436617401732560 0.1478160556528506 0.7866447076976237	-0.551117
F	0.6398181759056385 0.8576150871762481 0.2504871071173030	-0.552752
F	0.8590303816793805 0.6452165563044906 0.2498675243123470	-0.553073
F	0.6466642630278746 0.6449728310355691 0.2807168152792910	-0.550080
F	0.8523601592187029 0.8573316012657272 0.2194247435823159	-0.550307
F	0.2464130858402900 0.2442220840496607 0.5011792101857870	-0.529006
F	0.2560846703233410 0.2538078105653818 -0.0005673554879497	-0.528875
F	0.7518463585585091 0.7537039129158724 0.5005504400987649	-0.529343
F	0.7470003932822045 0.7477060245204931 -0.0003659943191001	-0.529697
Sn	0.2514513542165854 0.2492538223990359 0.7502704036028942	1.867867
Sn	0.7492877969828753 0.7513295512406643 0.2500711683958881	1.868242
Ni	0.2503557117604746 0.2495566880876608 0.2502187177160223	0.754722
Ni	0.7498107846120361 0.7502075833865746 0.7499561561750800	0.754732
	  	
