#======================================================================

# CRYSTAL DATA

#----------------------------------------------------------------------

data_VESTA_phase_1


_pd_phase_name                         SnFSIX_18_Cd
_cell_length_a                         14.78040
_cell_length_b                         14.02945
_cell_length_c                         8.47294
_cell_angle_alpha                      90
_cell_angle_beta                       96.20601
_cell_angle_gamma                      90
_symmetry_space_group_name_H-M         P 1
_symmetry_Int_Tables_number            1

loop_
_symmetry_equiv_pos_as_xyz
   x, y, z

loop_
   _atom_site_label
   _atom_site_fract_x
   _atom_site_fract_y
   _atom_site_fract_z
   _atom_site_charge
F	0.4091659538395337 0.3613262427215204 0.5191429534814475	-0.561702
F	0.5273376032118398 0.4686687132827916 0.7387776440682837	-0.535465
F	0.4043271214549864 0.5637606577146750 0.5185306472046604	-0.533280
F	0.9091659878395294 0.8613261737215182 0.5191429534814475	-0.561702
F	0.0273376292118348 0.9686686782827929 0.7387776440682837	-0.535465
F	0.9043271554549897 0.0637606237146793 0.5185306472046604	-0.533280
F	0.5908340091604668 0.3613262427215204 0.4808570465185532	-0.561702
F	0.4726623937881634 0.4686687132827916 0.2612223559317156	-0.535465
F	0.5956728745450128 0.5637606577146750 0.4814693537953429	-0.533280
F	0.0908340301604647 0.8613261737215182 0.4808570465185532	-0.561702
F	0.9726622587881630 0.9686686782827929 0.2612223559317156	-0.535465
F	0.0956728495450146 0.0637606237146793 0.4814693537953429	-0.533280
C	0.6801251855156466 0.1628651710252479 0.6610537351863893	-0.425279
C	0.7530544021641935 0.1596244596053124 0.7967785080919405	0.210961
C	0.7561440025022572 0.1980097642507497 0.9501977896390317	-0.149109
C	0.6881562285135625 0.2591537003309018 0.0122247544503266	-0.144994
C	0.6746372217632445 0.3574848812515526 0.9777071192448299	0.219501
C	0.7268404292381109 0.4197633996917729 0.8775515353401483	-0.428712
C	0.8823843748520828 0.1961101372181430 0.1920559401363894	-0.434319
C	0.8428398732652314 0.1733854797869531 0.0270013038322780	0.211325
C	0.6260326032841877 0.2365168809600048 0.1202394795835955	0.210153
C	0.6073755932173674 0.1459502222330055 0.2023440218719055	-0.426276
C	0.1801252355156439 0.6628652230252449 0.6610537351863893	-0.425279
C	0.2530544361641960 0.6596244426053074 0.7967785080919405	0.210961
C	0.2561439685022545 0.6980097302507470 0.9501977896390317	-0.149109
C	0.1881562285135624 0.7591537173308991 0.0122247544503266	-0.144993
C	0.1746372047632396 0.8574849152515551 0.9777071192448299	0.219500
C	0.2268404452381043 0.9197633646917742 0.8775515353401483	-0.428712
C	0.3823842738520777 0.6961100512181434 0.1920559401363894	-0.434319
C	0.3428399412652299 0.6733854797869531 0.0270013038322780	0.211325
C	0.1260325782841891 0.7365167949600047 0.1202394795835955	0.210153
C	0.1073756772173669 0.6459502912330080 0.2023440218719055	-0.426276
C	0.3198748114843565 0.1628651710252479 0.3389462658136134	-0.425278
C	0.2469455908358026 0.1596244596053124 0.2032214119080596	0.210961
C	0.2438560264977416 0.1980097642507497 0.0498021863609728	-0.149110
C	0.3118437674864368 0.2591537003309018 0.9877752365496757	-0.144994
C	0.3253628442367609 0.3574848812515526 0.0222929317551706	0.219500
C	0.2731595857618951 0.4197633996917729 0.1224484806598536	-0.428711
C	0.1176157081479208 0.1961101372181430 0.8079441078636146	-0.434320
C	0.1571601057347702 0.1733854797869531 0.9729986841677212	0.211326
C	0.3739674277158117 0.2365168809600048 0.8797605444163993	0.210154
C	0.3926243327826336 0.1459502222330056 0.7976558991280991	-0.426282
C	0.8198748114843567 0.6628652230252449 0.3389462658136134	-0.425278
C	0.7469455908358024 0.6596244426053074 0.2032214119080596	0.210961
C	0.7438559924977459 0.6980097302507470 0.0498021863609728	-0.149110
C	0.8118437674864372 0.7591537173308991 0.9877752365496757	-0.144994
C	0.8253627772367590 0.8574849152515551 0.0222929317551706	0.219500
C	0.7731595687618890 0.9197633646917742 0.1224484806598536	-0.428711
C	0.6176156241479207 0.6961100512181434 0.8079441078636146	-0.434320
C	0.6571601227347683 0.6733854797869531 0.9729986841677212	0.211326
C	0.8739673937158084 0.7365167949600047 0.8797605444163993	0.210154
C	0.8926243997826355 0.6459502912330080 0.7976558991280991	-0.426283
H	0.7081242265382254 0.1789500430527558 0.5492316373551401	0.150609
H	0.6303385530292089 0.2185144904880541 0.6798316030745802	0.147700
H	0.6443834127185757 0.0940267525430281 0.6465893910071122	0.133089
H	0.6815666112624914 0.4577581517683391 0.7877489139230246	0.142970
H	0.7744585486851184 0.3766319930864012 0.8170398126020390	0.138934
H	0.7659982328265547 0.4730886985437183 0.9517725199586246	0.129052
H	0.8586918054386019 0.0868855927350613 0.6894447052716219	0.282388
H	0.8776600555910932 0.1356972793213589 0.2734938307677250	0.142774
H	0.8459691908177085 0.2564928661573599 0.2383338025855060	0.140691
H	0.9547617765873204 0.2145490444144620 0.1951947887466284	0.139127
H	0.5877984620127122 0.1603096137509923 0.3214631923423812	0.147212
H	0.6679950757609049 0.1004106637506610 0.2133965157460707	0.149639
H	0.5516634466778055 0.1056718941638930 0.1360565096906015	0.132616
H	0.5367532460256306 0.3314893801752758 0.2249001738750261	0.275048
H	0.2081242775382265 0.6789499400527579 0.5492316373551401	0.150609
H	0.1303386370292090 0.7185144214880521 0.6798316030745802	0.147700
H	0.1443834627185730 0.5940266925430234 0.6465893910071122	0.133089
H	0.1815666282624897 0.9577580837683338 0.7877489139230246	0.142970
H	0.2744585826851210 0.8766320270864041 0.8170398126020390	0.138934
H	0.2659982658265536 0.9730886985437182 0.9517725199586246	0.129052
H	0.3586917714386064 0.5868856357350617 0.6894447052716220	0.282388
H	0.3776601225910955 0.6356972453213567 0.2734938307677250	0.142774
H	0.3459691228177100 0.7564929011573590 0.2383338025855060	0.140691
H	0.4547618435873146 0.7145490954144553 0.1951947887466284	0.139128
H	0.0877984540127113 0.6603096307509897 0.3214631923423812	0.147212
H	0.1679950417609020 0.6004106207506609 0.2133965157460707	0.149639
H	0.0516634826778086 0.6056718421638955 0.1360565096906015	0.132616
H	0.0367532310256329 0.8314893801752757 0.2249001738750261	0.275048
H	0.2918757044617795 0.1789500430527558 0.4507683946448549	0.150609
H	0.3696613459707860 0.2185144904880541 0.3201684619254214	0.147697
H	0.3556165162814288 0.0940267525430281 0.3534106089928883	0.133089
H	0.3184333837375112 0.4577581517683391 0.2122510540769798	0.142970
H	0.2255414463148774 0.3766319930864012 0.1829601553979587	0.138935
H	0.2340017631734520 0.4730886985437183 0.0482274530413769	0.129050
H	0.1413081955613948 0.0868855927350613 0.3105551997283739	0.282388
H	0.1223398674089038 0.1356972793213589 0.7265062012322782	0.142774
H	0.1540308731822898 0.2564928661573599 0.7616661974144938	0.140692
H	0.0452381524126849 0.2145490444144620 0.8048052432533674	0.139130
H	0.4122015679872902 0.1603096137509923 0.6785368076576189	0.147210
H	0.3320049862391004 0.1004106637506610 0.7866034362539254	0.149638
H	0.4483365183221953 0.1056718941638930 0.8639435303094023	0.132616
H	0.4632467149743696 0.3314893801752758 0.7750997791249741	0.275047
H	0.7918757714617745 0.6789499400527579 0.4507683946448549	0.150609
H	0.8696614469707911 0.7185144214880521 0.3201684619254214	0.147697
H	0.8556165162814291 0.5940266925430234 0.3534106089928883	0.133089
H	0.8184333837375117 0.9577580837683338 0.2122510540769798	0.142970
H	0.7255414463148776 0.8766320270864041 0.1829601553979587	0.138935
H	0.7340017631734521 0.9730886985437182 0.0482274530413769	0.129050
H	0.6413081865613974 0.5868856357350617 0.3105551997283739	0.282388
H	0.6223399764089024 0.6356972453213567 0.7265062012322782	0.142774
H	0.6540308061822877 0.7564929011573590 0.7616661974144938	0.140692
H	0.5452381884126802 0.7145490954144553 0.8048052432533674	0.139130
H	0.9122015009872882 0.6603096307509897 0.6785368076576189	0.147210
H	0.8320049192390983 0.6004106207506609 0.7866034362539254	0.149639
H	0.9483365183221951 0.6056718421638955 0.8639435303094023	0.132616
H	0.9632466809743740 0.8314893801752757 0.7750997791249741	0.275047
N	0.8335416486985030 0.1151419903613666 0.7888442007720456	-0.147594
N	0.6079462953122055 0.3917665786002741 0.0576998490853338	-0.258672
N	0.8892450088519551 0.1234346184659013 0.9264523367593084	-0.267310
N	0.5794871683222486 0.3174381007378557 0.1413560323657689	-0.145631
N	0.3335416486985031 0.6151419133613708 0.7888442007720456	-0.147594
N	0.1079463623122072 0.8917665786002739 0.0576998490853338	-0.258672
N	0.3892450428519581 0.6234346694659020 0.9264523367593084	-0.267310
N	0.0794871603222476 0.8174380657378565 0.1413560323657689	-0.145630
N	0.1664583333014953 0.1151419903613666 0.2111558472279509	-0.147594
N	0.3920535986877928 0.3917665786002741 0.9423001269146638	-0.258672
N	0.1107549611480425 0.1234346184659013 0.0735476432406909	-0.267310
N	0.4205128286777551 0.3174381007378557 0.8586439836342324	-0.145630
N	0.6664583503014934 0.6151419133613708 0.2111558472279509	-0.147594
N	0.8920536996877977 0.8917665786002739 0.9423001269146638	-0.258672
N	0.6107549861480480 0.6234346694659020 0.0735476432406909	-0.267310
N	0.9205128626777505 0.8174380657378565 0.8586439836342324	-0.145629
Sn	0.4999999979999998 0.4638038813811666 0.5000000000000000	1.848138
Sn	-0.0000000000000000 0.9638038813811669 0.5000000000000000	1.848138
Cd	0.5000000000000000 0.5131613672400613 0.0000000000000000	0.860974
Cd	-0.0000000000000000 0.0131613742400648 0.0000000000000000	0.860974
	  	
