#======================================================================

# CRYSTAL DATA

#----------------------------------------------------------------------

data_VESTA_phase_1


_pd_phase_name                         SnFSIX_16_Zn_i
_cell_length_a                         25.18154
_cell_length_b                         25.18154
_cell_length_c                         8.03419
_cell_angle_alpha                      90
_cell_angle_beta                       90
_cell_angle_gamma                      90
_symmetry_space_group_name_H-M         P 1
_symmetry_Int_Tables_number            1

loop_
_symmetry_equiv_pos_as_xyz
   x, y, z

loop_
   _atom_site_label
   _atom_site_fract_x
   _atom_site_fract_y
   _atom_site_fract_z
   _atom_site_charge
C	0.4784368087048617 0.3866543597720299 0.3723622068876082	0.101628
C	0.4776388411241817 0.3315284054515841 0.3674160333815619	-0.169748
C	0.9552844869533424 0.6129008666590881 0.9437374008395009	-0.125233
C	0.9554419574168210 0.5577374163213997 0.9443994416959419	-0.125636
C	0.5215632292951344 0.6133456782279659 0.3723622068876082	0.101628
C	0.5223611588758184 0.6684716325484117 0.3674160333815619	-0.169748
C	0.0447154370466586 0.3870990943409127 0.9437374008395009	-0.125217
C	0.0445580615831769 0.4422626216786031 0.9443994416959419	-0.125660
C	0.6133456782279659 0.4784368087048617 0.3723622068876082	0.101628
C	0.6684716325484117 0.4776388411241817 0.3674160333815619	-0.169748
C	0.3870990943409127 0.9552844869533424 0.9437374008395009	-0.125233
C	0.4422626216786031 0.9554419574168210 0.9443994416959419	-0.125636
C	0.3866543597720299 0.5215632292951344 0.3723622068876082	0.101628
C	0.3315284054515841 0.5223611588758184 0.3674160333815619	-0.169748
C	0.6129008666590881 0.0447154370466586 0.9437374008395009	-0.125217
C	0.5577374163213997 0.0445580615831769 0.9443994416959419	-0.125660
C	0.5215632292951344 0.3866543597720299 0.6276377931123919	0.101628
C	0.5223611588758184 0.3315284054515841 0.6325839346184357	-0.169747
C	0.0447154370466586 0.6129008666590881 0.0562626111604998	-0.125217
C	0.0445580615831769 0.5577374163213997 0.0556005343040563	-0.125660
C	0.4784368087048617 0.6133456782279659 0.6276377931123919	0.101628
C	0.4776388411241817 0.6684716325484117 0.6325839346184357	-0.169748
C	0.9552844869533424 0.3870990943409127 0.0562626111604998	-0.125233
C	0.9554419574168210 0.4422626216786031 0.0556005343040563	-0.125636
C	0.3866543597720299 0.4784368087048617 0.6276377931123919	0.101628
C	0.3315284054515841 0.4776388411241817 0.6325839346184357	-0.169747
C	0.6129008666590881 0.9552844869533424 0.0562626111604998	-0.125233
C	0.5577374163213997 0.9554419574168210 0.0556005343040563	-0.125636
C	0.6133456782279659 0.5215632292951344 0.6276377931123919	0.101628
C	0.6684716325484117 0.5223611588758184 0.6325839346184357	-0.169748
C	0.3870990943409127 0.0447154370466586 0.0562626111604998	-0.125217
C	0.4422626216786031 0.0445580615831769 0.0556005343040563	-0.125660
C	0.5447154750466615 0.8870990563409162 0.5562626311604947	-0.125225
C	0.5445580425831790 0.9422626216786034 0.5556005263040554	-0.125658
C	0.0215631832951376 0.1133456212279720 0.1276377931123920	0.101628
C	0.0223611568758181 0.1684715945484159 0.1325839506184368	-0.169748
C	0.4552845629533415 0.1129009146590847 0.5562626311604947	-0.125225
C	0.4554419194168251 0.0577373633213992 0.5556005263040554	-0.125658
C	0.9784367707048656 0.8866543217720341 0.1276377931123920	0.101628
C	0.9776388411241816 0.8315284054515844 0.1325839506184368	-0.169748
C	0.1129009146590847 0.5447154750466615 0.5562626311604947	-0.125225
C	0.0577373633213992 0.5445580425831790 0.5556005263040554	-0.125658
C	0.8866543217720341 0.0215631832951376 0.1276377931123920	0.101628
C	0.8315284054515844 0.0223611568758181 0.1325839506184368	-0.169748
C	0.8870990563409162 0.4552845629533415 0.5562626311604947	-0.125225
C	0.9422626216786034 0.4554419194168251 0.5556005263040554	-0.125658
C	0.1133456212279720 0.9784367707048656 0.1276377931123920	0.101628
C	0.1684715945484159 0.9776388411241816 0.1325839506184368	-0.169748
C	0.4552845629533415 0.8870990563409162 0.4437374008395013	-0.125225
C	0.4554419194168251 0.9422626216786034 0.4443994736959444	-0.125658
C	0.9784367707048656 0.1133456212279720 0.8723622388876037	0.101628
C	0.9776388411241816 0.1684715945484159 0.8674160333815617	-0.169747
C	0.5447154750466615 0.1129009146590847 0.4437374008395013	-0.125225
C	0.5445580425831790 0.0577373633213992 0.4443994736959444	-0.125658
C	0.0215631832951376 0.8866543217720341 0.8723622388876037	0.101628
C	0.0223611568758181 0.8315284054515844 0.8674160333815617	-0.169748
C	0.8870990563409162 0.5447154750466615 0.4437374008395013	-0.125225
C	0.9422626216786034 0.5445580425831790 0.4443994736959444	-0.125658
C	0.1133456212279720 0.0215631832951376 0.8723622388876037	0.101628
C	0.1684715945484159 0.0223611568758181 0.8674160333815617	-0.169747
C	0.1129009146590847 0.4552845629533415 0.4437374008395013	-0.125225
C	0.0577373633213992 0.4554419194168251 0.4443994736959444	-0.125658
C	0.8866543217720341 0.9784367707048656 0.8723622388876037	0.101628
C	0.8315284054515844 0.9776388411241816 0.8674160333815617	-0.169748
C	0.5000000000000000 0.3025768028669437 0.5000000000000000	0.176890
C	0.5000000000000000 0.2462326527949674 0.5000000000000000	-0.116372
C	0.5000000000000000 0.1977755979542305 0.5000000000000000	-0.092710
C	0.5000000000000000 0.1414540292205381 0.5000000000000000	0.124126
C	0.5000000000000000 0.0292184222453967 0.5000000000000000	0.066932
C	0.0000000000000000 0.8025767838669386 0.0000000000000000	0.176891
C	0.0000000000000000 0.7462326327949654 0.0000000000000000	-0.116378
C	0.0000000000000000 0.6977755599542346 0.0000000000000000	-0.092692
C	0.0000000000000000 0.6414539912205353 0.0000000000000000	0.124067
C	0.0000000000000000 0.5292184362453979 0.0000000000000000	0.066926
C	0.5000000000000000 0.6974231781330582 0.5000000000000000	0.176891
C	0.5000000000000000 0.7537674052050306 0.5000000000000000	-0.116372
C	0.5000000000000000 0.8022244020457694 0.5000000000000000	-0.092710
C	0.5000000000000000 0.8585459707794616 0.5000000000000000	0.124126
C	0.5000000000000000 0.9707815637546021 0.5000000000000000	0.066932
C	0.0000000000000000 0.1974231971330564 0.0000000000000000	0.176891
C	0.0000000000000000 0.2537673472050325 0.0000000000000000	-0.116379
C	0.0000000000000000 0.3022243820457678 0.0000000000000000	-0.092692
C	0.0000000000000000 0.3585459707794620 0.0000000000000000	0.124067
C	0.0000000000000000 0.4707816017546053 0.0000000000000000	0.066926
C	0.6974231781330582 0.5000000000000000 0.5000000000000000	0.176891
C	0.7537674052050306 0.5000000000000000 0.5000000000000000	-0.116372
C	0.8022244020457694 0.5000000000000000 0.5000000000000000	-0.092710
C	0.8585459707794616 0.5000000000000000 0.5000000000000000	0.124126
C	0.9707815637546021 0.5000000000000000 0.5000000000000000	0.066932
C	0.1974231971330564 -0.0000000000000000 0.0000000000000000	0.176891
C	0.2537673472050325 -0.0000000000000000 0.0000000000000000	-0.116379
C	0.3022243820457678 -0.0000000000000000 0.0000000000000000	-0.092692
C	0.3585459707794620 -0.0000000000000000 0.0000000000000000	0.124067
C	0.4707816017546053 -0.0000000000000000 0.0000000000000000	0.066926
C	0.3025768028669437 0.5000000000000000 0.5000000000000000	0.176890
C	0.2462326527949674 0.5000000000000000 0.5000000000000000	-0.116372
C	0.1977755979542305 0.5000000000000000 0.5000000000000000	-0.092710
C	0.1414540292205381 0.5000000000000000 0.5000000000000000	0.124126
C	0.0292184222453967 0.5000000000000000 0.5000000000000000	0.066932
C	0.8025767838669386 -0.0000000000000000 0.0000000000000000	0.176891
C	0.7462326327949654 -0.0000000000000000 0.0000000000000000	-0.116378
C	0.6977755599542346 -0.0000000000000000 0.0000000000000000	-0.092692
C	0.6414539912205353 -0.0000000000000000 0.0000000000000000	0.124067
C	0.5292184362453979 -0.0000000000000000 0.0000000000000000	0.066926
H	0.4617312413783693 0.4098753619317015 0.2702827043584390	0.098088
H	0.4600640616717246 0.3112110882411160 0.2613459956761761	0.127386
H	0.9207728853274511 0.6346433996574335 0.8985961107791252	0.111948
H	0.9209801323000825 0.5362924988435176 0.8971271523514280	0.106741
H	0.5382687586216309 0.5901246380682982 0.2702827043584390	0.098088
H	0.5399359763282782 0.6887889877588831 0.2613459956761761	0.127386
H	0.0792270956725506 0.3653566003425669 0.8985961107791252	0.111914
H	0.0790198966999160 0.4637075401564821 0.8971271523514280	0.106744
H	0.5901246380682982 0.4617312413783693 0.2702827043584390	0.098088
H	0.6887889877588831 0.4600640616717246 0.2613459956761761	0.127386
H	0.3653566003425669 0.9207728853274511 0.8985961107791252	0.111948
H	0.4637075401564821 0.9209801323000825 0.8971271523514280	0.106741
H	0.4098753619317015 0.5382687586216309 0.2702827043584390	0.098088
H	0.3112110882411160 0.5399359763282782 0.2613459956761761	0.127386
H	0.6346433996574335 0.0792270956725506 0.8985961107791252	0.111914
H	0.5362924988435176 0.0790198966999160 0.8971271523514280	0.106744
H	0.5382687586216309 0.4098753619317015 0.7297172796415596	0.098088
H	0.5399359763282782 0.3112110882411160 0.7386540043238241	0.127386
H	0.0792270956725506 0.6346433996574335 0.1014038652208727	0.111913
H	0.0790198966999160 0.5362924988435176 0.1028728476485721	0.106744
H	0.4617312413783693 0.5901246380682982 0.7297172796415596	0.098088
H	0.4600640616717246 0.6887889877588831 0.7386540043238241	0.127386
H	0.9207728853274511 0.3653566003425669 0.1014038652208727	0.111948
H	0.9209801323000825 0.4637075401564821 0.1028728476485721	0.106741
H	0.4098753619317015 0.4617312413783693 0.7297172796415596	0.098088
H	0.3112110882411160 0.4600640616717246 0.7386540043238241	0.127386
H	0.6346433996574335 0.9207728853274511 0.1014038652208727	0.111948
H	0.5362924988435176 0.9209801323000825 0.1028728476485721	0.106741
H	0.5901246380682982 0.5382687586216309 0.7297172796415596	0.098088
H	0.6887889877588831 0.5399359763282782 0.7386540043238241	0.127386
H	0.3653566003425669 0.0792270956725506 0.1014038652208727	0.111913
H	0.4637075401564821 0.0790198966999160 0.1028728476485721	0.106744
H	0.5792271146725489 0.8653566003425665 0.6014038572208722	0.111914
H	0.5790198676999175 0.9637075401564821 0.6028728796485746	0.106744
H	0.0382687686216316 0.0901246090682996 0.2297172956415611	0.098088
H	0.0399359813282753 0.1887889307588821 0.2386540363238194	0.127386
H	0.4207729233274546 0.1346434286574322 0.6014038572208722	0.111914
H	0.4209800933000831 0.0362924838435128 0.6028728796485746	0.106743
H	0.9617312413783691 0.9098754389316975 0.2297172956415611	0.098088
H	0.9600640236717218 0.8112111262411192 0.2386540363238194	0.127386
H	0.1346434286574322 0.5792271146725489 0.6014038572208722	0.111914
H	0.0362924838435128 0.5790198676999175 0.6028728796485746	0.106743
H	0.9098754389316975 0.0382687686216316 0.2297172956415611	0.098088
H	0.8112111262411192 0.0399359813282753 0.2386540363238194	0.127386
H	0.8653566003425665 0.4207729233274546 0.6014038572208722	0.111914
H	0.9637075401564821 0.4209800933000831 0.6028728796485746	0.106743
H	0.0901246090682996 0.9617312413783691 0.2297172956415611	0.098088
H	0.1887889307588821 0.9600640236717218 0.2386540363238194	0.127386
H	0.4207729233274546 0.8653566003425665 0.3985961107791253	0.111914
H	0.4209800933000831 0.9637075401564821 0.3971271843514232	0.106743
H	0.9617312413783691 0.0901246090682996 0.7702826883584377	0.098088
H	0.9600640236717218 0.1887889307588821 0.7613459636761803	0.127386
H	0.5792271146725489 0.1346434286574322 0.3985961107791254	0.111914
H	0.5790198676999175 0.0362924838435128 0.3971271843514232	0.106743
H	0.0382687686216316 0.9098754389316975 0.7702826883584377	0.098088
H	0.0399359813282753 0.8112111262411192 0.7613459636761803	0.127386
H	0.8653566003425665 0.5792271146725489 0.3985961107791254	0.111914
H	0.9637075401564821 0.5790198676999175 0.3971271843514232	0.106744
H	0.0901246090682996 0.0382687686216316 0.7702826883584377	0.098088
H	0.1887889307588821 0.0399359813282753 0.7613459636761803	0.127386
H	0.1346434286574322 0.4207729233274546 0.3985961107791254	0.111914
H	0.0362924838435128 0.4209800933000831 0.3971271843514232	0.106743
H	0.9098754389316975 0.9617312413783691 0.7702826883584377	0.098088
H	0.8112111262411192 0.9600640236717218 0.7613459636761803	0.127386
Zn	0.5000000000000000 0.5000000000000000 0.5000000000000000	0.741044
Zn	0.0000000000000000 -0.0000000000000000 0.0000000000000000	0.741044
Sn	0.5000000000000000 0.5000000000000000 0.0000000000000000	1.880775
Sn	0.0000000000000000 -0.0000000000000000 0.5000000000000000	1.880775
F	0.5000000000000000 0.5000000000000000 0.2500299848395680	-0.516421
F	0.0000000000000000 -0.0000000000000000 0.7500299528395729	-0.516421
F	0.5000000000000000 0.5000000000000000 0.7499699511604334	-0.516421
F	0.0000000000000000 -0.0000000000000000 0.2499700151604319	-0.516421
F	0.5560349398282389 0.5560349398282389 0.0000000000000000	-0.572361
F	0.0560348928282384 0.0560348928282384 0.5000000000000000	-0.572361
F	0.4439651361717675 0.4439651361717675 0.0000000000000000	-0.572361
F	0.9439650981717642 0.9439650981717642 0.5000000000000000	-0.572361
F	0.4439651361717675 0.5560349398282389 0.0000000000000000	-0.572361
F	0.9439650981717642 0.0560348928282384 0.5000000000000000	-0.572361
F	0.5560349398282389 0.4439651361717675 0.0000000000000000	-0.572361
F	0.0560348928282384 0.9439650981717642 0.5000000000000000	-0.572361
N	0.5000000000000000 0.4139106256789328 0.5000000000000000	-0.234004
N	0.0000000000000000 0.9139106636789359 0.0000000000000000	-0.234004
N	0.5000000000000000 0.5860893743210672 0.5000000000000000	-0.234004
N	0.0000000000000000 0.0860893833210643 0.0000000000000000	-0.234004
N	0.5860893743210672 0.5000000000000000 0.5000000000000000	-0.234004
N	0.0860893833210643 -0.0000000000000000 0.0000000000000000	-0.234005
N	0.4139106256789328 0.5000000000000000 0.5000000000000000	-0.234004
N	0.9139106636789359 -0.0000000000000000 0.0000000000000000	-0.234004
	  	
