#======================================================================

# CRYSTAL DATA

#----------------------------------------------------------------------

data_VESTA_phase_1


_pd_phase_name                         SnFSIX_1_Cd
_cell_length_a                         11.73695
_cell_length_b                         11.73695
_cell_length_c                         8.49196
_cell_angle_alpha                      90
_cell_angle_beta                       90
_cell_angle_gamma                      90
_symmetry_space_group_name_H-M         P 1
_symmetry_Int_Tables_number            1

loop_
_symmetry_equiv_pos_as_xyz
   x, y, z

loop_
   _atom_site_label
   _atom_site_fract_x
   _atom_site_fract_y
   _atom_site_fract_z
   _atom_site_charge
C	0.2425909203323526 0.4602571680862025 0.3745256314762490	0.105920
C	0.1242094989834015 0.4594428412282416 0.3697923467512982	-0.169516
C	0.7574091666676510 0.5397428749137972 0.3745256314762490	0.105920
C	0.8757905450166021 0.5405571587717580 0.3697923467512982	-0.169517
C	0.5397428749137972 0.2425909203323526 0.3745256314762490	0.105920
C	0.5405571587717580 0.1242094989834015 0.3697923467512982	-0.169516
C	0.4602571680862025 0.7574091666676510 0.3745256314762490	0.105920
C	0.4594428412282416 0.8757905450166021 0.3697923467512982	-0.169516
C	0.7574091666676510 0.4602571680862025 0.6254743385237487	0.105921
C	0.8757905450166021 0.4594428412282416 0.6302076242486960	-0.169516
C	0.2425909203323526 0.5397428749137972 0.6254743385237487	0.105921
C	0.1242094989834015 0.5405571587717580 0.6302076242486960	-0.169516
C	0.4602571680862025 0.2425909203323526 0.6254743385237487	0.105921
C	0.4594428412282416 0.1242094989834015 0.6302076242486960	-0.169516
C	0.5397428749137972 0.7574091666676510 0.6254743385237487	0.105921
C	0.5405571587717580 0.8757905450166021 0.6302076242486960	-0.169516
C	0.0628871767748298 0.5000000000000000 0.5000000000000000	0.099357
C	0.9371128992251692 0.5000000000000000 0.5000000000000000	0.099358
C	0.5000000000000000 0.0628871767748298 0.5000000000000000	0.099357
C	0.5000000000000000 0.9371128992251692 0.5000000000000000	0.099358
H	0.2928818281250435 0.4288932900489288 0.2752969671798708	0.100314
H	0.0804584676863575 0.4255848684372395 0.2665845721512737	0.125089
H	0.7071181288749566 0.5711067099510714 0.2752969671798708	0.100314
H	0.9195415483136439 0.5744151315627604 0.2665845721512737	0.125089
H	0.5711067099510714 0.2928818281250435 0.2752969671798708	0.100314
H	0.5744151315627604 0.0804584676863575 0.2665845721512737	0.125089
H	0.4288932900489288 0.7071181288749566 0.2752969671798708	0.100314
H	0.4255848684372395 0.9195415483136439 0.2665845721512737	0.125089
H	0.7071181288749566 0.4288932900489288 0.7247030038201301	0.100314
H	0.9195415483136439 0.4255848684372395 0.7334154868487274	0.125088
H	0.2928818281250435 0.5711067099510714 0.7247030038201301	0.100314
H	0.0804584676863575 0.5744151315627604 0.7334154868487274	0.125088
H	0.4288932900489288 0.2928818281250435 0.7247030038201301	0.100314
H	0.4255848684372395 0.0804584676863575 0.7334154868487274	0.125088
H	0.5711067099510714 0.7071181288749566 0.7247030038201301	0.100314
H	0.5744151315627604 0.9195415483136439 0.7334154868487274	0.125088
Cd	0.5000000000000000 0.5000000000000000 0.5000000000000000	0.825639
Sn	0.5000000000000000 0.5000000000000000 -0.0000000000000000	1.890060
F	0.5000000000000000 0.5000000000000000 0.7618949230182409	-0.538875
F	0.5000000000000000 0.5000000000000000 0.2381050769817589	-0.538875
F	0.3796631324819553 0.3796631324819553 -0.0000000000000000	-0.586970
F	0.6203368675180444 0.6203368675180444 -0.0000000000000000	-0.586970
F	0.6203368675180444 0.3796631324819553 -0.0000000000000000	-0.586970
F	0.3796631324819553 0.6203368675180444 -0.0000000000000000	-0.586970
N	0.3004076466340913 0.5000000000000000 0.5000000000000000	-0.245487
N	0.6995923753659106 0.5000000000000000 0.5000000000000000	-0.245487
N	0.5000000000000000 0.3004076466340913 0.5000000000000000	-0.245487
N	0.5000000000000000 0.6995923753659106 0.5000000000000000	-0.245487
	  	
