#======================================================================

# CRYSTAL DATA

#----------------------------------------------------------------------

data_VESTA_phase_1


_pd_phase_name                         SnFSIX_1_Co
_cell_length_a                         11.01692
_cell_length_b                         11.01692
_cell_length_c                         8.31461
_cell_angle_alpha                      90
_cell_angle_beta                       90
_cell_angle_gamma                      90
_symmetry_space_group_name_H-M         P 1
_symmetry_Int_Tables_number            1

loop_
_symmetry_equiv_pos_as_xyz
   x, y, z

loop_
   _atom_site_label
   _atom_site_fract_x
   _atom_site_fract_y
   _atom_site_fract_z
   _atom_site_charge
C	0.2590069692959936 0.4577079666006071 0.3717784526141405	0.097261
C	0.1329827253681798 0.4575037911826217 0.3673784352173083	-0.166407
C	0.7409931177040102 0.5422920763993928 0.3717784526141405	0.097250
C	0.8670173186318235 0.5424962088173786 0.3673784352173083	-0.166406
C	0.5422920763993928 0.2590069692959936 0.3717784526141405	0.097261
C	0.5424962088173786 0.1329827253681798 0.3673784352173083	-0.166407
C	0.4577079666006071 0.7409931177040102 0.3717784526141405	0.097251
C	0.4575037911826217 0.8670173186318235 0.3673784352173083	-0.166407
C	0.7409931177040102 0.4577079666006071 0.6282215173858569	0.097251
C	0.8670173186318235 0.4575037911826217 0.6326215357826854	-0.166406
C	0.2590069692959936 0.5422920763993928 0.6282215173858569	0.097261
C	0.1329827253681798 0.5424962088173786 0.6326215357826854	-0.166405
C	0.4577079666006071 0.2590069692959936 0.6282215173858569	0.097262
C	0.4575037911826217 0.1329827253681798 0.6326215357826854	-0.166406
C	0.5422920763993928 0.7409931177040102 0.6282215173858569	0.097250
C	0.5424962088173786 0.8670173186318235 0.6326215357826854	-0.166406
C	0.0670930399784946 0.5000000000000000 0.5000000000000000	0.098541
C	0.9329070360215045 0.5000000000000000 0.5000000000000000	0.098543
C	0.5000000000000000 0.0670930399784946 0.5000000000000000	0.098542
C	0.5000000000000000 0.9329070360215045 0.5000000000000000	0.098543
H	0.3117634627506020 0.4247292640358982 0.2699458984583560	0.100777
H	0.0869262721228991 0.4224377428033066 0.2612677069355435	0.127857
H	0.6882364942493985 0.5752707359641021 0.2699458984583560	0.100784
H	0.9130737438771022 0.5775622571966935 0.2612677069355435	0.127856
H	0.5752707359641021 0.3117634627506020 0.2699458984583560	0.100777
H	0.5775622571966935 0.0869262721228991 0.2612677069355435	0.127858
H	0.4247292640358982 0.6882364942493985 0.2699458984583560	0.100784
H	0.4224377428033066 0.9130737438771022 0.2612677069355435	0.127857
H	0.6882364942493985 0.4247292640358982 0.7300540725416453	0.100784
H	0.9130737438771022 0.4224377428033066 0.7387323520644580	0.127856
H	0.3117634627506020 0.5752707359641021 0.7300540725416453	0.100777
H	0.0869262721228991 0.5775622571966935 0.7387323520644580	0.127855
H	0.4247292640358982 0.3117634627506020 0.7300540725416453	0.100777
H	0.4224377428033066 0.0869262721228991 0.7387323520644580	0.127857
H	0.5752707359641021 0.6882364942493985 0.7300540725416453	0.100784
H	0.5775622571966935 0.9130737438771022 0.7387323520644580	0.127856
Co	0.5000000000000000 0.5000000000000000 0.5000000000000000	0.564281
Sn	0.5000000000000000 0.5000000000000000 -0.0000000000000000	1.853463
F	0.5000000000000000 0.5000000000000000 0.7575295473420837	-0.525590
F	0.5000000000000000 0.5000000000000000 0.2424704526579163	-0.525590
F	0.3718395398441223 0.3718395398441223 -0.0000000000000000	-0.571714
F	0.6281604601558773 0.6281604601558773 -0.0000000000000000	-0.571713
F	0.6281604601558773 0.3718395398441223 -0.0000000000000000	-0.571713
F	0.3718395398441223 0.6281604601558773 -0.0000000000000000	-0.571713
N	0.3213002318113244 0.5000000000000000 0.5000000000000000	-0.187447
N	0.6786997901886774 0.5000000000000000 0.5000000000000000	-0.187442
N	0.5000000000000000 0.3213002318113244 0.5000000000000000	-0.187447
N	0.5000000000000000 0.6786997901886774 0.5000000000000000	-0.187442
	  	
