#======================================================================

# CRYSTAL DATA

#----------------------------------------------------------------------

data_VESTA_phase_1


_pd_phase_name                         SnFSIX_4_Co_i
_cell_length_a                         23.24166
_cell_length_b                         20.18190
_cell_length_c                         9.67450
_cell_angle_alpha                      90
_cell_angle_beta                       90
_cell_angle_gamma                      90
_symmetry_space_group_name_H-M         P 1
_symmetry_Int_Tables_number            1

loop_
_symmetry_equiv_pos_as_xyz
   x, y, z

loop_
   _atom_site_label
   _atom_site_fract_x
   _atom_site_fract_y
   _atom_site_fract_z
   _atom_site_charge
C	0.4188426038426590 0.5978139316539008 0.6311810308886936	0.093327
C	0.3748058968327430 0.5515830683924371 0.6292741713594953	-0.163167
C	0.2780688524236469 0.4486401734838080 0.6285709694875703	-0.116676
C	0.2313357358964375 0.4058444880856499 0.6273393051940409	-0.111532
C	0.1286969419959030 0.3186639652108790 0.6264822602584661	-0.162904
C	0.0819164542043280 0.2761187987782981 0.6295753812960823	0.086533
C	0.9188426868426551 0.0978139426539053 0.6311810308886936	0.093329
C	0.8748058548327463 0.0515830103924393 0.6292741713594953	-0.163176
C	0.7780688734236517 0.9486402204838081 0.6285709694875703	-0.116672
C	0.7313357158964361 0.9058445340856467 0.6273393051940409	-0.111467
C	0.6286969419959024 0.8186640122108793 0.6264822602584661	-0.162892
C	0.5819164392043233 0.7761188917782947 0.6295753812960823	0.086533
C	0.5811573961573411 0.4021860223460950 0.1311810388886942	0.093327
C	0.6251941451672537 0.4484169776075669 0.1292741863594926	-0.163167
C	0.7219311265763483 0.5513597795161919 0.1285709774875715	-0.116659
C	0.7686642841035639 0.5941555119143500 0.1273393131940417	-0.111541
C	0.8713030580040976 0.6813360347891211 0.1264822672584706	-0.162904
C	0.9180835607956767 0.7238811552217056 0.1295753962960800	0.086532
C	0.0811574071573455 0.9021861153460995 0.1311810388886942	0.093329
C	0.1251941031672569 0.9484168856075662 0.1292741863594926	-0.163177
C	0.2219311685763513 0.0513598265161921 0.1285709774875715	-0.116652
C	0.2686642431035643 0.0941554889143519 0.1273393131940417	-0.111494
C	0.3713031000041003 0.1813360457891183 0.1264822672584706	-0.162906
C	0.4180835607956766 0.2238812252217040 0.1295753962960800	0.086532
C	0.5811573961573411 0.5978139316539008 0.8688189381113074	0.093327
C	0.6251941451672537 0.5515830683924371 0.8707257976405057	-0.163167
C	0.7219311265763483 0.4486401734838080 0.8714290615124287	-0.116676
C	0.7686642841035639 0.4058444880856499 0.8726607258059581	-0.111532
C	0.8713030580040976 0.3186639652108790 0.8735177707415329	-0.162905
C	0.9180835607956767 0.2761187987782981 0.8704246497039168	0.086533
C	0.0811574071573455 0.0978139426539053 0.8688189381113074	0.093329
C	0.1251941031672569 0.0515830103924393 0.8707257976405057	-0.163176
C	0.2219311685763513 0.9486402204838081 0.8714290615124287	-0.116673
C	0.2686642431035643 0.9058445340856467 0.8726607258059581	-0.111467
C	0.3713031000041003 0.8186640122108793 0.8735177707415329	-0.162892
C	0.4180835607956766 0.7761188917782947 0.8704246497039168	0.086533
C	0.4188426038426590 0.4021860223460950 0.3688189691113064	0.093327
C	0.3748058968327430 0.4484169776075669 0.3707257976405059	-0.163167
C	0.2780688524236469 0.5513597795161919 0.3714290305124291	-0.116674
C	0.2313357358964375 0.5941555119143500 0.3726606638059599	-0.111533
C	0.1286969419959030 0.6813360347891210 0.3735177087415274	-0.162904
C	0.0819164542043280 0.7238811552217056 0.3704245877039187	0.086532
C	0.9188426868426551 0.9021861153460995 0.3688189691113064	0.093329
C	0.8748058548327463 0.9484168856075662 0.3707257976405058	-0.163176
C	0.7780688734236517 0.0513598265161921 0.3714290305124291	-0.116667
C	0.7313357158964361 0.0941554889143519 0.3726606638059599	-0.111486
C	0.6286969419959024 0.1813360457891183 0.3735177087415274	-0.162906
C	0.5819164392043233 0.2238812252217040 0.3704245877039187	0.086532
C	0.5811573961573411 0.4021860223460950 0.3688189691113064	0.093328
C	0.6251941451672537 0.4484169776075669 0.3707257976405058	-0.163168
C	0.7219311265763483 0.5513597795161919 0.3714290305124291	-0.116675
C	0.7686642841035639 0.5941555119143500 0.3726606638059599	-0.111532
C	0.8713030580040976 0.6813360347891211 0.3735177087415274	-0.162905
C	0.9180835607956767 0.7238811552217056 0.3704245877039187	0.086533
C	0.0811574071573455 0.9021861153460995 0.3688189691113064	0.093330
C	0.1251941031672569 0.9484168856075662 0.3707257976405058	-0.163177
C	0.2219311685763513 0.0513598265161921 0.3714290305124291	-0.116668
C	0.2686642431035643 0.0941554889143519 0.3726606638059599	-0.111486
C	0.3713031000041003 0.1813360457891183 0.3735177087415274	-0.162906
C	0.4180835607956766 0.2238812252217040 0.3704245877039187	0.086533
C	0.4188426038426590 0.5978139316539008 0.8688189381113074	0.093328
C	0.3748058968327430 0.5515830683924371 0.8707257976405057	-0.163167
C	0.2780688524236469 0.4486401734838080 0.8714290615124287	-0.116677
C	0.2313357358964375 0.4058444880856499 0.8726607258059581	-0.111532
C	0.1286969419959030 0.3186639652108790 0.8735177707415329	-0.162905
C	0.0819164542043280 0.2761187987782981 0.8704246497039168	0.086534
C	0.9188426868426551 0.0978139426539053 0.8688189381113074	0.093330
C	0.8748058548327463 0.0515830103924393 0.8707257976405057	-0.163176
C	0.7780688734236517 0.9486402204838081 0.8714290615124287	-0.116673
C	0.7313357158964361 0.9058445340856467 0.8726607258059581	-0.111467
C	0.6286969419959024 0.8186640122108794 0.8735177707415329	-0.162893
C	0.5819164392043233 0.7761188917782947 0.8704246497039168	0.086534
C	0.4188426038426590 0.4021860223460950 0.1311810388886942	0.093329
C	0.3748058968327430 0.4484169776075669 0.1292741863594926	-0.163167
C	0.2780688524236469 0.5513597795161919 0.1285709774875715	-0.116659
C	0.2313357358964375 0.5941555119143500 0.1273393131940417	-0.111541
C	0.1286969419959030 0.6813360347891211 0.1264822672584706	-0.162906
C	0.0819164542043280 0.7238811552217056 0.1295753962960800	0.086533
C	0.9188426868426551 0.9021861153460995 0.1311810388886942	0.093331
C	0.8748058548327463 0.9484168856075662 0.1292741863594926	-0.163176
C	0.7780688734236517 0.0513598265161921 0.1285709774875715	-0.116652
C	0.7313357158964361 0.0941554889143519 0.1273393131940417	-0.111494
C	0.6286969419959024 0.1813360457891183 0.1264822672584706	-0.162907
C	0.5819164392043233 0.2238812252217040 0.1295753962960800	0.086534
C	0.5811573961573411 0.5978139316539008 0.6311810308886936	0.093328
C	0.6251941451672537 0.5515830683924371 0.6292741713594953	-0.163166
C	0.7219311265763483 0.4486401734838080 0.6285709694875703	-0.116675
C	0.7686642841035639 0.4058444880856499 0.6273393051940409	-0.111532
C	0.8713030580040976 0.3186639652108790 0.6264822602584661	-0.162906
C	0.9180835607956767 0.2761187987782981 0.6295753812960823	0.086534
C	0.0811574071573455 0.0978139426539053 0.6311810308886936	0.093331
C	0.1251941031672569 0.0515830103924393 0.6292741713594953	-0.163176
C	0.2219311685763513 0.9486402204838081 0.6285709694875703	-0.116672
C	0.2686642431035643 0.9058445340856467 0.6273393051940409	-0.111467
C	0.3713031000041003 0.8186640122108794 0.6264822602584661	-0.162893
C	0.4180835607956766 0.7761188917782947 0.6295753812960823	0.086534
C	0.3503894855099257 0.5246492196529774 0.7500000149999977	0.119311
C	0.3029335219747226 0.4743793633587079 0.7500000149999977	0.074497
C	0.2053343775462587 0.3840775714931609 0.7500000149999977	0.065416
C	0.1543195701076766 0.3405655333582296 0.7500000149999977	0.101076
C	0.8503894435099288 0.0246492026529796 0.7500000149999977	0.119318
C	0.8029335839747203 0.9743793163587072 0.7500000149999977	0.074496
C	0.7053343775462584 0.8840775944931594 0.7500000149999977	0.065286
C	0.6543195701076763 0.8405654643582281 0.7500000149999977	0.101106
C	0.6496105144900748 0.4753508263470194 0.2500000000000000	0.119311
C	0.6970664160252797 0.5256206366412924 0.2500000000000000	0.074495
C	0.7946656224537416 0.6159224525068410 0.2500000000000000	0.065416
C	0.8456804708923307 0.6594344436417714 0.2500000000000000	0.101076
C	0.1496105254900718 0.9753508733470196 0.2500000000000000	0.119319
C	0.1970664990252755 0.0256206396412888 0.2500000000000000	0.074494
C	0.2946656224537414 0.1159224055068408 0.2500000000000000	0.065360
C	0.3456804298923234 0.1594344776417747 0.2500000000000000	0.101085
C	0.6496105144900748 0.5246492196529774 0.7500000149999977	0.119311
C	0.6970664160252797 0.4743793633587079 0.7500000149999977	0.074497
C	0.7946656224537416 0.3840775714931609 0.7500000149999977	0.065416
C	0.8456804708923307 0.3405655333582296 0.7500000149999977	0.101077
C	0.1496105254900719 0.0246492026529796 0.7500000149999977	0.119318
C	0.1970664990252755 0.9743793163587072 0.7500000149999977	0.074497
C	0.2946656224537414 0.8840775944931594 0.7500000149999977	0.065286
C	0.3456804298923234 0.8405654643582281 0.7500000149999977	0.101106
C	0.3503894855099257 0.4753508263470194 0.2500000000000000	0.119312
C	0.3029335219747226 0.5256206366412924 0.2500000000000000	0.074495
C	0.2053343775462586 0.6159224525068410 0.2500000000000000	0.065416
C	0.1543195701076766 0.6594344436417714 0.2500000000000000	0.101076
C	0.8503894435099288 0.9753508733470196 0.2500000000000000	0.119319
C	0.8029335839747203 0.0256206396412887 0.2500000000000000	0.074493
C	0.7053343775462584 0.1159224055068408 0.2500000000000000	0.065360
C	0.6543195701076763 0.1594344776417747 0.2500000000000000	0.101085
H	0.4368606023372381 0.6172108348857372 0.5351018598015370	0.107331
H	0.3611985268345653 0.5387023827542796 0.5266294574751830	0.105938
H	0.2946493457238562 0.4608853701051268 0.5280694588754865	0.086397
H	0.2154750023432231 0.3897622737573155 0.5268445484247279	0.104875
H	0.1447031960441298 0.3334750321838462 0.5254713775948515	0.124397
H	0.0619182684189433 0.2578061918977587 0.5347681318167112	0.109535
H	0.9368605603372345 0.1172108698857365 0.5351018598015370	0.107330
H	0.8611984858345653 0.0387023187542745 0.5266294574751830	0.105940
H	0.7946493247238583 0.9608853701051269 0.5280694588754865	0.086400
H	0.7154749603432197 0.8897622047573203 0.5268445484247279	0.104842
H	0.6447031860441292 0.8334750321838462 0.5254713775948515	0.124397
H	0.5619182994189419 0.7578061688977604 0.5347681318167112	0.109535
H	0.5631393976627620 0.3827891651142628 0.0351019218015353	0.107331
H	0.6388014731654349 0.4612976642457205 0.0266294574751830	0.105938
H	0.7053506752761417 0.5391145838948693 0.0280695208754848	0.086386
H	0.7845250396567803 0.6102377032426792 0.0268444874247265	0.104883
H	0.8552968139558708 0.6665249218161500 0.0254713775948514	0.124396
H	0.9380816595810583 0.7421938311022396 0.0347681008167123	0.109535
H	0.0631394036627622 0.8827891651142628 0.0351019218015353	0.107330
H	0.1388015141654347 0.9612976642457207 0.0266294574751830	0.105940
H	0.2053506752761419 0.0391146268948694 0.0280695208754848	0.086389
H	0.2845249976567769 0.1102377372426818 0.0268444874247265	0.104853
H	0.3552968139558710 0.1665249448161485 0.0254713775948514	0.124397
H	0.4380817005810573 0.2421938081022413 0.0347681008167123	0.109535
H	0.5631393976627620 0.6172108348857372 -0.0351018788015352	0.107331
H	0.6388014731654349 0.5387023827542796 -0.0266294844751887	0.105936
H	0.7053506752761417 0.4608853701051268 -0.0280694768754810	0.086396
H	0.7845250396567803 0.3897622737573155 -0.0268445414247238	0.104875
H	0.8552968139558708 0.3334750321838462 -0.0254713775948514	0.124397
H	0.9380816595810583 0.2578061918977587 -0.0347681388167155	0.109535
H	0.0631394036627622 0.1172108698857365 -0.0351018788015352	0.107330
H	0.1388015141654347 0.0387023187542745 -0.0266294844751887	0.105938
H	0.2053506752761419 0.9608853701051269 -0.0280694768754810	0.086399
H	0.2845249976567769 0.8897622047573203 -0.0268445414247238	0.104842
H	0.3552968139558710 0.8334750321838462 -0.0254713775948514	0.124397
H	0.4380817005810574 0.7578061688977604 -0.0347681388167155	0.109535
H	0.4368606023372381 0.3827891651142628 0.4648981091984636	0.107331
H	0.3611985268345653 0.4612976642457205 0.4733705735248161	0.105937
H	0.2946493457238562 0.5391145838948693 0.4719305101245143	0.086397
H	0.2154750023432231 0.6102377032426792 0.4731554205752729	0.104875
H	0.1447031960441298 0.6665249218161500 0.4745285914051495	0.124396
H	0.0619182684189433 0.7421938311022396 0.4652318681832887	0.109535
H	0.9368605603372345 0.8827891651142628 0.4648981091984636	0.107330
H	0.8611984858345653 0.9612976642457207 0.4733705735248161	0.105940
H	0.7946493247238583 0.0391146268948694 0.4719305101245143	0.086399
H	0.7154749603432197 0.1102377372426818 0.4731554205752729	0.104845
H	0.6447031860441292 0.1665249448161485 0.4745285914051495	0.124397
H	0.5619182994189419 0.2421938081022413 0.4652318681832887	0.109535
H	0.5631393976627620 0.3827891651142628 0.4648981091984636	0.107331
H	0.6388014731654349 0.4612976642457205 0.4733705735248161	0.105937
H	0.7053506752761417 0.5391145838948693 0.4719305101245143	0.086397
H	0.7845250396567803 0.6102377032426792 0.4731554205752729	0.104875
H	0.8552968139558708 0.6665249218161500 0.4745285914051495	0.124396
H	0.9380816595810583 0.7421938311022396 0.4652318681832887	0.109536
H	0.0631394036627622 0.8827891651142628 0.4648981091984636	0.107331
H	0.1388015141654347 0.9612976642457207 0.4733705735248161	0.105940
H	0.2053506752761419 0.0391146268948694 0.4719305101245143	0.086400
H	0.2845249976567769 0.1102377372426818 0.4731554205752729	0.104845
H	0.3552968139558710 0.1665249448161485 0.4745285914051495	0.124397
H	0.4380817005810573 0.2421938081022413 0.4652318681832887	0.109536
H	0.4368606023372381 0.6172108348857372 -0.0351018788015352	0.107331
H	0.3611985268345653 0.5387023827542796 -0.0266294844751887	0.105936
H	0.2946493457238562 0.4608853701051268 -0.0280694768754810	0.086397
H	0.2154750023432231 0.3897622737573155 -0.0268445414247238	0.104875
H	0.1447031960441298 0.3334750321838462 -0.0254713775948514	0.124396
H	0.0619182684189433 0.2578061918977587 -0.0347681388167155	0.109536
H	0.9368605603372345 0.1172108698857365 -0.0351018788015352	0.107331
H	0.8611984858345653 0.0387023187542745 -0.0266294844751887	0.105938
H	0.7946493247238583 0.9608853701051269 -0.0280694768754810	0.086399
H	0.7154749603432197 0.8897622047573203 -0.0268445414247239	0.104842
H	0.6447031860441292 0.8334750321838462 -0.0254713775948514	0.124396
H	0.5619182994189419 0.7578061688977604 -0.0347681388167155	0.109536
H	0.4368606023372381 0.3827891651142628 0.0351019218015353	0.107331
H	0.3611985268345653 0.4612976642457205 0.0266294574751830	0.105938
H	0.2946493457238562 0.5391145838948693 0.0280695208754848	0.086386
H	0.2154750023432231 0.6102377032426792 0.0268444874247265	0.104883
H	0.1447031960441298 0.6665249218161500 0.0254713775948513	0.124396
H	0.0619182684189433 0.7421938311022396 0.0347681008167123	0.109536
H	0.9368605603372345 0.8827891651142628 0.0351019218015353	0.107331
H	0.8611984858345653 0.9612976642457207 0.0266294574751830	0.105940
H	0.7946493247238583 0.0391146268948694 0.0280695208754848	0.086388
H	0.7154749603432197 0.1102377372426818 0.0268444874247265	0.104853
H	0.6447031860441292 0.1665249448161485 0.0254713775948514	0.124397
H	0.5619182994189419 0.2421938081022413 0.0347681008167123	0.109536
H	0.5631393976627620 0.6172108348857372 0.5351018598015369	0.107331
H	0.6388014731654349 0.5387023827542796 0.5266294574751830	0.105937
H	0.7053506752761417 0.4608853701051268 0.5280694588754865	0.086397
H	0.7845250396567803 0.3897622737573155 0.5268445484247279	0.104875
H	0.8552968139558708 0.3334750321838462 0.5254713775948515	0.124396
H	0.9380816595810583 0.2578061918977587 0.5347681318167112	0.109536
H	0.0631394036627622 0.1172108698857365 0.5351018598015370	0.107331
H	0.1388015141654347 0.0387023187542745 0.5266294574751830	0.105940
H	0.2053506752761419 0.9608853701051269 0.5280694588754865	0.086400
H	0.2845249976567769 0.8897622047573203 0.5268445484247279	0.104842
H	0.3552968139558710 0.8334750321838462 0.5254713775948515	0.124397
H	0.4380817005810574 0.7578061688977604 0.5347681318167112	0.109536
Co	0.5000000000000000 0.6880159177230388 0.7500000149999977	0.576866
Co	-0.0000000000000000 0.1880159757230369 0.7500000149999977	0.576867
Co	0.5000000000000000 0.3119840122769623 0.2500000000000000	0.576867
Co	-0.0000000000000000 0.8119840822769612 0.2500000000000000	0.576867
F	0.5000000000000000 0.6849307009979321 0.4652098381951714	-0.565776
F	-0.0000000000000000 0.1849307359979316 0.4652098381951714	-0.565775
F	0.5000000000000000 0.3150692760020624 -0.0347901618048285	-0.565775
F	-0.0000000000000000 0.8150692990020679 -0.0347901618048285	-0.565775
F	0.5000000000000000 0.6849307009979321 0.0347901478048274	-0.565775
F	-0.0000000000000000 0.1849307359979316 0.0347901478048274	-0.565775
F	0.5000000000000000 0.3150692760020624 0.5347901318048260	-0.565775
F	-0.0000000000000000 0.8150692990020679 0.5347901318048260	-0.565775
F	0.4389357328960654 0.7519924569456884 0.2500000000000000	-0.585845
F	0.5602262559581640 0.6122161444884847 0.2500000000000000	-0.575841
F	0.9389357328960654 0.2519924569456881 0.2500000000000000	-0.585845
F	0.0602262769581691 0.1122161444884847 0.2500000000000000	-0.575841
F	0.5610642261039348 0.2480075200543138 0.7500000149999977	-0.585844
F	0.4397737440418363 0.3877838555115153 0.7500000149999977	-0.575840
F	0.0610642781039390 0.7480075430543116 0.7500000149999977	-0.585844
F	0.9397737440418360 0.8877838555115153 0.7500000149999977	-0.575841
F	0.5610642261039348 0.7519924569456884 0.2500000000000000	-0.585845
F	0.4397737440418363 0.6122161444884846 0.2500000000000000	-0.575841
F	0.0610642781039390 0.2519924569456881 0.2500000000000000	-0.585845
F	0.9397737440418360 0.1122161444884847 0.2500000000000000	-0.575841
F	0.4389357328960654 0.2480075200543138 0.7500000149999977	-0.585845
F	0.5602262559581640 0.3877838555115153 0.7500000149999977	-0.575840
F	0.9389357328960654 0.7480075430543116 0.7500000149999977	-0.585844
F	0.0602262769581691 0.8877838555115153 0.7500000149999977	-0.575841
N	0.4411750598796889 0.6210346767612098 0.7500000149999977	-0.185548
N	0.5593543331748297 0.7544812876839785 0.7500000149999977	-0.195175
N	0.9411750188796820 0.1210346647612087 0.7500000149999977	-0.185549
N	0.0593543071748275 0.2544812646839732 0.7500000149999977	-0.195176
N	0.5588249401203110 0.3789653232387902 0.2500000000000000	-0.185548
N	0.4406456668251703 0.2455187353160268 0.2500000000000000	-0.195176
N	0.0588249401203111 0.8789653232387902 0.2500000000000000	-0.185549
N	0.9406457078251701 0.7455187123160215 0.2500000000000000	-0.195175
N	0.5588249401203110 0.6210346767612098 0.7500000149999977	-0.185549
N	0.4406456668251703 0.7544812876839785 0.7500000149999977	-0.195175
N	0.0588249401203111 0.1210346647612087 0.7500000149999977	-0.185549
N	0.9406457078251701 0.2544812646839732 0.7500000149999977	-0.195176
N	0.4411750598796889 0.3789653232387902 0.2500000000000000	-0.185548
N	0.5593543331748297 0.2455187353160268 0.2500000000000000	-0.195176
N	0.9411750188796820 0.8789653232387902 0.2500000000000000	-0.185550
N	0.0593543071748275 0.7455187123160215 0.2500000000000000	-0.195175
Sn	0.5000000000000000 0.6826783407958855 0.2500000000000000	1.862690
Sn	-0.0000000000000000 0.1826783647958876 0.2500000000000000	1.862690
Sn	0.5000000000000000 0.3173216122041142 0.7500000149999977	1.862690
Sn	-0.0000000000000000 0.8173216592041145 0.7500000149999977	1.862690
	  	
