#======================================================================

# CRYSTAL DATA

#----------------------------------------------------------------------

data_VESTA_phase_1


_pd_phase_name                         SnFSIX_2_Fe
_cell_length_a                         14.03316
_cell_length_b                         14.03316
_cell_length_c                         8.12861
_cell_angle_alpha                      90
_cell_angle_beta                       90
_cell_angle_gamma                      90
_symmetry_space_group_name_H-M         P 1
_symmetry_Int_Tables_number            1

loop_
_symmetry_equiv_pos_as_xyz
   x, y, z

loop_
   _atom_site_label
   _atom_site_fract_x
   _atom_site_fract_y
   _atom_site_fract_z
   _atom_site_charge
C	0.5310542201303240 0.7049978240259587 0.1322293671043331	0.103877
C	0.5314708377664977 0.8038162994194746 0.1379834942307732	-0.167396
C	0.4689458498696750 0.2950021759740415 0.1322293671043331	0.103875
C	0.4685291272335029 0.1961836825805240 0.1379834942307732	-0.167394
C	0.2950021759740415 0.5310542201303240 0.1322293671043331	0.103877
C	0.1961836825805240 0.5314708377664977 0.1379834942307732	-0.167396
C	0.7049978240259587 0.4689458498696750 0.1322293671043331	0.103875
C	0.8038162994194746 0.4685291272335029 0.1379834942307732	-0.167393
C	0.4689458498696750 0.7049978240259587 0.8677706328956668	0.103880
C	0.4685291272335029 0.8038162994194746 0.8620164757692245	-0.167391
C	0.5310542201303240 0.2950021759740415 0.8677706328956668	0.103878
C	0.5314708377664977 0.1961836825805240 0.8620164757692245	-0.167388
C	0.7049978240259587 0.5310542201303240 0.8677706328956668	0.103878
C	0.8038162994194746 0.5314708377664977 0.8620164757692245	-0.167388
C	0.2950021759740415 0.4689458498696750 0.8677706328956668	0.103880
C	0.1961836825805240 0.4685291272335029 0.8620164757692245	-0.167391
C	0.5000000000000000 0.1442994205707853 0.0000000000000000	0.171031
C	0.5000000000000000 0.0434649442771337 0.0000000000000000	-0.095044
C	0.5000000000000000 0.8557005794292144 0.0000000000000000	0.171000
C	0.5000000000000000 0.9565349987228722 0.0000000000000000	-0.094797
C	0.8557005794292144 0.5000000000000000 0.0000000000000000	0.171031
C	0.9565349987228722 0.5000000000000000 0.0000000000000000	-0.095044
C	0.1442994205707853 0.5000000000000000 0.0000000000000000	0.171000
C	0.0434649442771337 0.5000000000000000 0.0000000000000000	-0.094797
H	0.5560937192592140 0.6636814186941660 0.2374714479756044	0.092685
H	0.5564559135721315 0.8403659249877137 0.2479698549307047	0.129076
H	0.4439062807407861 0.3363185113058358 0.2374714479756044	0.092685
H	0.4435441214278678 0.1596340050122878 0.2479698549307047	0.129077
H	0.3363185113058358 0.5560937192592140 0.2374714479756044	0.092685
H	0.1596340050122878 0.5564559135721315 0.2479698549307047	0.129076
H	0.6636814186941660 0.4439062807407861 0.2374714479756044	0.092685
H	0.8403659249877137 0.4435441214278678 0.2479698549307047	0.129077
H	0.4439062807407861 0.6636814186941660 0.7625285520243957	0.092685
H	0.4435441214278678 0.8403659249877137 0.7520301750692973	0.129077
H	0.5560937192592140 0.3363185113058358 0.7625285520243957	0.092684
H	0.5564559135721315 0.1596340050122878 0.7520301750692973	0.129078
H	0.6636814186941660 0.5560937192592140 0.7625285520243957	0.092684
H	0.8403659249877137 0.5564559135721315 0.7520301750692973	0.129078
H	0.3363185113058358 0.4439062807407861 0.7625285520243957	0.092685
H	0.1596340050122878 0.4435441214278678 0.7520301750692973	0.129077
Fe	0.5000000000000000 0.5000000000000000 0.0000000000000000	0.813342
Sn	0.5000000000000000 0.5000000000000000 0.5000000000000000	1.873985
F	0.5000000000000000 0.5000000000000000 0.7522529449862807	-0.504521
F	0.5000000000000000 0.5000000000000000 0.2477470850137146	-0.504521
F	0.5999915770149553 0.5999915770149553 0.5000000000000000	-0.559234
F	0.4000084579850441 0.5999915770149553 0.5000000000000000	-0.559234
F	0.4000084579850441 0.4000084579850441 0.5000000000000000	-0.559234
F	0.5999915770149553 0.4000084579850441 0.5000000000000000	-0.559234
N	0.5000000000000000 0.3443271820256774 0.0000000000000000	-0.252926
N	0.5000000000000000 0.6556727829743233 0.0000000000000000	-0.252925
N	0.6556727829743233 0.5000000000000000 0.0000000000000000	-0.252926
N	0.3443271820256774 0.5000000000000000 0.0000000000000000	-0.252925
	  	
