#======================================================================

# CRYSTAL DATA

#----------------------------------------------------------------------

data_VESTA_phase_1


_pd_phase_name                         SnFSIX_13_Ni_i
_cell_length_a                         15.27617
_cell_length_b                         15.27296
_cell_length_c                         8.04854
_cell_angle_alpha                      90.11794
_cell_angle_beta                       89.75087
_cell_angle_gamma                      89.91071
_symmetry_space_group_name_H-M         P 1
_symmetry_Int_Tables_number            1

loop_
_symmetry_equiv_pos_as_xyz
   x, y, z

loop_
   _atom_site_label
   _atom_site_fract_x
   _atom_site_fract_y
   _atom_site_fract_z
   _atom_site_charge
C	0.5399641742575886 0.6834562482835539 0.8725513815771900	0.108831
C	0.5429489276281653 0.7745256633960536 0.8702665095866604	-0.147523
C	0.4637056310353364 0.3191337988111979 0.8801433293588833	0.108032
C	0.4606421174761907 0.2281275655339813 0.8791468485240241	-0.139511
C	0.8189674961954477 0.9735366524387262 0.3674225214754920	0.109659
C	0.7280954691511801 0.9710769581419613 0.3636810093292888	-0.133687
C	0.3188613910138393 0.5408869532954719 0.8706578273387044	0.107505
C	0.2278439755729675 0.5447099898959611 0.8682457600296615	-0.146716
C	0.1834531502401135 0.9714245414807406 0.3589786482683097	0.104360
C	0.2744453809485531 0.9703812684765444 0.3554562733476408	-0.133934
C	0.6829166753692941 0.4631912992142709 0.8855333503813596	0.108608
C	0.7738471324050540 0.4605055984862046 0.8835505026240575	-0.138110
C	0.4552129293289250 0.6837456180142448 0.1127589412339281	0.110278
C	0.4520980481577249 0.7746939870697118 0.1157943244236353	-0.137472
C	0.5393453584229704 0.3209444859537753 0.1298977706658898	0.106686
C	0.5417181681594565 0.2298749507391131 0.1352061394430919	-0.147117
C	0.1812194544755002 0.0200182135505878 0.6323537108369327	0.111365
C	0.2720072769347218 0.0218381714246777 0.6389016175591936	-0.134042
C	0.6809575459275177 0.5431822457975352 0.1312647631616677	0.107788
C	0.7720433096219982 0.5462784875474337 0.1351788082964497	-0.146095
C	0.8185364285656677 0.0292978376675400 0.6358951415640274	0.102928
C	0.7275733095025894 0.0300057024536629 0.6419945673644445	-0.134143
C	0.3176671869943688 0.4586681998113510 0.1130440258866508	0.109129
C	0.2266869645134610 0.4564117582081867 0.1159846609894447	-0.139582
C	0.9658167742698146 0.8169017981749245 0.6322178361266916	0.111286
C	0.9650264755234679 0.7259074535380207 0.6386394936493622	-0.133593
C	0.9836663924065058 0.1801310332170690 0.6371490238905638	0.105988
C	0.9803184798316006 0.2709719275222772 0.6410117070167782	-0.136295
C	0.0209704628601574 0.8156838438512503 0.3631395175975682	0.105703
C	0.0235393636166102 0.7248183784672386 0.3598133561635244	-0.134712
C	0.0311618098222857 0.1794840977915956 0.3628318060908892	0.111985
C	0.0307604906788709 0.2704637490728842 0.3565804027353589	-0.135495
C	0.0039483665450287 0.3173197710141347 0.4978702610541235	0.045289
C	0.0010386481623226 0.4133013497871635 0.4976683645804505	0.256807
C	0.4978388314502038 0.8211149282794244 0.9935327772055377	0.057998
C	0.4988219887277880 0.9176436483859023 0.9984807520894006	0.249154
C	0.9952376478484208 0.6786608282311739 0.5002530198229364	0.040023
C	0.9971679739255705 0.5825434422870155 0.5002080379814258	0.249908
C	0.5009714054115982 0.1825321250521823 0.0084923682103448	0.057827
C	0.5003080067041380 0.0859212223685206 0.0091172672141527	0.251129
C	0.6811637681980856 -0.0001040589140614 0.5034938118643443	0.038739
C	0.5850976724038265 0.9977594641502774 0.5044027922501167	0.248564
C	0.1807884200016522 0.5011507406926544 0.9923005193804806	0.058555
C	0.0842630608294122 0.5021768842756390 0.9950506245653975	0.248477
C	0.3198897133006363 0.9961228193908298 0.4981573717053053	0.042478
C	0.4158805328937268 0.9961075600534648 0.5012573757165929	0.256104
C	0.8194176131035773 0.5036111902223240 0.0098948228567591	0.057447
C	0.9160072135219979 0.5034581711878199 0.0070945985774453	0.249258
H	0.5715340241990966 0.6450456210471686 0.7747141250142313	0.099905
H	0.5790778620141079 0.8079674379560753 0.7722358419535864	0.124985
H	0.4358454053344794 0.3568612824618622 0.7781990598895381	0.100973
H	0.4296432288694659 0.1931200702964496 0.7771925098223667	0.119434
H	0.8569698490869287 0.9518922870342172 0.2601232568682068	0.096781
H	0.6946730082866366 0.9475882809402323 0.2530508302218367	0.121704
H	0.3574744248296819 0.5712506641622481 0.7720064601603942	0.099586
H	0.1947816953815889 0.5802284085755909 0.7694533667814770	0.125742
H	0.1468381309190407 0.9530989038580338 0.2484176192323431	0.092824
H	0.3086739998028868 0.9511618367224450 0.2420727573824012	0.117591
H	0.6451301466327940 0.4336507210315372 0.7854169734221554	0.101295
H	0.8089311785887177 0.4279358217661278 0.7827981891019642	0.117936
H	0.4239031310864119 0.6453091614605122 0.2103388642942877	0.101028
H	0.4177721290725392 0.8091327302641096 0.2151701636438089	0.118163
H	0.5676791073466839 0.3598348120076153 0.2300846768130558	0.100588
H	0.5736618816392053 0.1970438520770367 0.2385629302288372	0.124962
H	0.1425651519577272 0.0390965903621623 0.7404852691104932	0.096031
H	0.3045059059912407 0.0417489911438658 0.7529601991940210	0.120368
H	0.6420315798283744 0.5729841471680266 0.2304850902896751	0.100829
H	0.8047946459459394 0.5803550402490296 0.2363662321945379	0.125067
H	0.8559018470649166 0.0504287465135395 0.7437058198524095	0.092743
H	0.6940927421704599 0.0522686306726026 0.7540915681672022	0.122489
H	0.3557148172266946 0.4281045432705420 0.2116184459242356	0.100524
H	0.1918497660766866 0.4232434807987701 0.2159148644668325	0.118057
H	0.9438365162147535 0.8552188050222739 0.7389121531571563	0.098327
H	0.9425730770563603 0.6929670866462522 0.7508468779906240	0.120816
H	0.9669672698078793 0.1428385357636426 0.7478442962927873	0.090393
H	0.9604550880557468 0.3046102702364533 0.7544637505762969	0.121324
H	0.0411125587343508 0.8527054800926449 0.2540896743959778	0.090891
H	0.0465674440222170 0.6909547482243321 0.2488044060343513	0.120285
H	0.0507280743907397 0.1413633399801707 0.2542537210901623	0.098544
H	0.0493228023335964 0.3037139470983152 0.2421831850429652	0.120309
N	0.9454639426475943 0.5396682540326045 0.6099560393679604	-0.136272
N	0.4215169246313812 0.0458601339701512 0.0083334018026008	-0.147349
N	0.5422047354371150 0.0488191698499006 0.6157586136167298	-0.135174
N	0.9563846471202346 0.4246986407802358 0.0022481809647842	-0.146646
N	0.0502255544773952 0.5423436951301780 0.3883939266635920	-0.135437
N	0.5783075550505736 0.0442162503455196 0.0111254788381333	-0.147799
N	0.9573371940812636 0.5815582206304493 0.0048766295583227	-0.147625
N	0.5449993274292906 0.9436889424611870 0.3952468449935646	-0.130985
N	0.0526144331811904 0.4562155408954108 0.3879578885634370	-0.131575
N	0.5775870494542342 0.9577358601503957 0.0011128162343185	-0.145937
N	0.4588138181623722 0.9427282808969535 0.3941091595701980	-0.132889
N	0.0438165047714895 0.5808735646815625 0.9945643744722742	-0.144219
N	0.9470145320450116 0.4534319235966354 0.6076364726121982	-0.132594
N	0.4208337963283534 0.9592674529539126 0.0067130372901384	-0.145327
N	0.0429470016745538 0.4240427106015066 0.9994995064742923	-0.146931
N	0.4560270791243262 0.0481735071023540 0.6136275970384435	-0.135971
N	0.0073032307271849 0.1348160336401575 0.5002210433727037	-0.228634
N	0.4978575883694663 0.6388730291644682 0.9929344042893741	-0.236241
N	0.9937890855693255 0.8613374463101958 0.4973116735028094	-0.227883
N	0.5015900668496630 0.3647367598353494 0.0039297003246211	-0.238022
N	0.8637505613853983 0.0019096948737467 0.5011768317564268	-0.225155
N	0.3629727790160374 0.4995312172585861 0.9919921061913943	-0.236930
N	0.1373201121290936 0.9951369534101326 0.4951046580437938	-0.227171
N	0.6372024454633942 0.5031024309481278 0.0076877323290910	-0.237147
Ni	0.0005057727523501 0.9981452146967080 0.4982592482476669	0.747557
Ni	0.5000627102815712 0.5017799326215804 0.9991275266447911	0.753906
Sn	-0.0003340858083072 0.9969009291850350 0.9983955740757725	1.868458
Sn	0.4993226250491651 0.5034337732133563 0.4989528823154373	1.880876
F	0.9976656359506703 0.0014541235856976 0.2496267013498449	-0.525753
F	0.5063923886287781 0.4990733641370419 0.7514515672582470	-0.531624
F	0.0022025277919748 0.9933783944579355 0.7471036094345637	-0.525466
F	0.4928858192943003 0.5061802169635252 0.2465442827898369	-0.531807
F	0.0921301289682658 0.0884488385121423 0.9953041811218862	-0.551293
F	0.5890285294320214 0.5977795794274148 0.4955603912835866	-0.563191
F	0.9071478369643143 0.9056633570308924 0.0015431479477090	-0.550657
F	0.4097658564913515 0.4090857488496014 0.5034306402951018	-0.566067
F	0.9087299328899329 0.0899970809236340 0.9846268513727220	-0.548510
F	0.4055978935525427 0.5937823402622607 0.5116193673363640	-0.563529
F	0.0914394846148903 0.9046382348550104 0.0119923517405466	-0.548576
F	0.5941099791163483 0.4141703670623351 0.4855138556923462	-0.564762
	  	
