#======================================================================

# CRYSTAL DATA

#----------------------------------------------------------------------

data_VESTA_phase_1


_pd_phase_name                         SnFSIX_13_Fe_i
_cell_length_a                         15.47057
_cell_length_b                         15.46810
_cell_length_c                         8.07198
_cell_angle_alpha                      90.13866
_cell_angle_beta                       89.76144
_cell_angle_gamma                      89.87125
_symmetry_space_group_name_H-M         P 1
_symmetry_Int_Tables_number            1

loop_
_symmetry_equiv_pos_as_xyz
   x, y, z

loop_
   _atom_site_label
   _atom_site_fract_x
   _atom_site_fract_y
   _atom_site_fract_z
   _atom_site_charge
C	0.5398655026862638 0.6876811232104911 0.8733022708486229	0.106827
C	0.5429212645604645 0.7775538615846761 0.8713531970517737	-0.148790
C	0.4636517121452464 0.3150861865398554 0.8810714332568552	0.105830
C	0.4606800186860725 0.2252201380052420 0.8798391648892243	-0.141549
C	0.8144909844451295 0.9734955768504222 0.3683373405068528	0.108708
C	0.7247851082909744 0.9710809333854370 0.3640222504557526	-0.133533
C	0.3146517432046904 0.5409518966424747 0.8715342367834394	0.105334
C	0.2247927758885846 0.5447194885493121 0.8692201124136968	-0.147894
C	0.1880890342319272 0.9712504103162587 0.3590492731744774	0.107294
C	0.2779281271032393 0.9704694161824682 0.3555801495848083	-0.135185
C	0.6869499799295175 0.4632704851543737 0.8865967807971870	0.105616
C	0.7767393521139875 0.4606480895266451 0.8841684448332345	-0.139090
C	0.4553047389430979 0.6878843059298799 0.1115504263056646	0.107137
C	0.4524452889712104 0.7776771729965006 0.1152904465759764	-0.138503
C	0.5393647749890683 0.3167833110425407 0.1289904298611355	0.105614
C	0.5417407736831685 0.2268959357929473 0.1342690840601532	-0.148997
C	0.1856005115075866 0.0200354831365406 0.6313539850194166	0.112133
C	0.2752314529659742 0.0217746220996190 0.6385783528085688	-0.136163
C	0.6851923801880105 0.5431833174609013 0.1304767826211484	0.106627
C	0.7751066068354665 0.5462423226365741 0.1342058872602496	-0.148348
C	0.8138197290132357 0.0292871704077661 0.6357140177340812	0.104690
C	0.7240169131747121 0.0298064588526558 0.6418268122844869	-0.134308
C	0.3135939547358918 0.4587952813200259 0.1119305044801074	0.105698
C	0.2237842829117486 0.4566805167339236 0.1153127372570219	-0.140115
C	0.9656182878388657 0.8122939902882723 0.6311289972942785	0.111405
C	0.9651776897465879 0.7224914789629426 0.6379817978945601	-0.135834
C	0.9836591542185769 0.1846605091856368 0.6374768777748935	0.108123
C	0.9802772256239192 0.2743649464372857 0.6413378714714373	-0.137130
C	0.0208230748159735 0.8111033857632463 0.3631918245093283	0.106787
C	0.0234553415313825 0.7213811983878313 0.3596797993931115	-0.134927
C	0.0313360003043918 0.1839096239707144 0.3642422738129378	0.110970
C	0.0306087548782695 0.2737008149337902 0.3574276598397444	-0.136497
C	0.0039508414868681 0.3197835748691465 0.4984042172928494	0.041807
C	0.0010899615847069 0.4144720239690308 0.4979790500049413	0.255192
C	0.4979942720091383 0.8235395192562528 0.9939365049144889	0.055169
C	0.4989575502804118 0.9187806563832290 0.9987627173550511	0.248775
C	0.9952337680662250 0.6761024560685311 0.4998587568134310	0.038894
C	0.9971498561159479 0.5812821736276905 0.4999187950126500	0.248808
C	0.5010647281289258 0.1801651955422744 0.0082661267515620	0.057035
C	0.5004158631732554 0.0848077664065947 0.0088093197306463	0.248944
C	0.6785989051593027 -0.0001864569769444 0.5034189812576425	0.035308
C	0.5838338675691318 0.9978044298551336 0.5043171044013007	0.248813
C	0.1783826171458668 0.5012963222695453 0.9925342339083292	0.055784
C	0.0831079726698582 0.5022626748087716 0.9952921900189210	0.249340
C	0.3223806934080171 0.9961942744512560 0.4981970857700022	0.041840
C	0.4170594572607925 0.9962185490963005 0.5013083380447815	0.255366
C	0.8218034866676556 0.5036720923630276 0.0095825328324082	0.055016
C	0.9171063854650167 0.5035194624207778 0.0068012667204073	0.248501
H	0.5714480196686302 0.6497008813556399 0.7761901946165736	0.101882
H	0.5789755647011552 0.8107721764910832 0.7743476651312323	0.124187
H	0.4355096051691091 0.3524218125667201 0.7801014002836106	0.102475
H	0.4296357019125821 0.1905320415242474 0.7787317018436672	0.119730
H	0.8523752813883505 0.9518366401619216 0.2618038650188137	0.095765
H	0.6916835991006182 0.9476801270003828 0.2538829963317116	0.121245
H	0.3528950446785318 0.5712910116198529 0.7736968935110974	0.103070
H	0.1918859914078094 0.5800976487121812 0.7712969984170301	0.125899
H	0.1516634069530447 0.9525812539114403 0.2493011739067832	0.091767
H	0.3120816819933841 0.9513461058157502 0.2429614438832248	0.116146
H	0.6495311887534642 0.4333849287869962 0.7876887232576038	0.103194
H	0.8113782699499702 0.4281386934744308 0.7840555770822246	0.118624
H	0.4236216202467770 0.6498391003691100 0.2077351950687433	0.101639
H	0.4182856051681684 0.8116571544459179 0.2141433059480345	0.117732
H	0.5678392692746533 0.3553326036450111 0.2282714658703703	0.101637
H	0.5737479582729710 0.1942988150603496 0.2367530477297962	0.125487
H	0.1470710421775345 0.0392623812283157 0.7386683926735421	0.093222
H	0.3074438075952608 0.0417431182981840 0.7521065256162891	0.120081
H	0.6466992170763857 0.5730593707472690 0.2289167644900482	0.102527
H	0.8076569532994451 0.5803079919776528 0.2343963832515639	0.125701
H	0.8509834930546862 0.0507911190316906 0.7425954290437095	0.092203
H	0.6905448209756256 0.0520455843499232 0.7530308763601518	0.121907
H	0.3512868204560376 0.4278330664396310 0.2092517783274100	0.102961
H	0.1893167937439816 0.4235760667645069 0.2144937206676429	0.118371
H	0.9435039302712017 0.8504631756910728 0.7369914372341563	0.096235
H	0.9428451331980208 0.6897268777242235 0.7495569991547342	0.120758
H	0.9665877867330844 0.1475873965777410 0.7473995057714758	0.089567
H	0.9603453630311206 0.3079100301837620 0.7539872688023090	0.120360
H	0.0412654047428903 0.8479933170892637 0.2551026190451709	0.090511
H	0.0465387163951204 0.6877093630799015 0.2494562110420133	0.118883
H	0.0510521793816535 0.1459540253680790 0.2564258141289124	0.096902
H	0.0490614393168753 0.3067046360441811 0.2435327382891960	0.120318
N	0.9461293771560677 0.5392007656668897 0.6095293873955694	-0.138520
N	0.4225395795371448 0.0453654802549565 0.0080675608781834	-0.148383
N	0.5416736166374150 0.0483283034456746 0.6153507437547476	-0.136647
N	0.9569900947177841 0.4256841047036578 0.0020746018792089	-0.147415
N	0.0495679978344786 0.5416629953501789 0.3885288693156547	-0.135434
N	0.5774937143703642 0.0436341350716003 0.0109428101739250	-0.148137
N	0.9577935794186465 0.5807108625069225 0.0048774010059881	-0.147015
N	0.5443775075522623 0.9444490531341807 0.3954023760661199	-0.133031
N	0.0520476021203535 0.4565939075779181 0.3884902672793475	-0.133555
N	0.5768041229224050 0.9582489142945837 0.0012170907572074	-0.146211
N	0.4592725566423312 0.9435185084797696 0.3942881197934040	-0.133194
N	0.0431725076357153 0.5800227644483622 0.9946551447491968	-0.145611
N	0.9476821990615761 0.4540307209399241 0.6074717210995286	-0.132118
N	0.4218789858722110 0.9598841126070369 0.0067799473412517	-0.143907
N	0.0424507173838278 0.4250369355300831 0.9998304961994282	-0.147047
N	0.4565632375295788 0.0476916413624782 0.6132950400800187	-0.136266
N	0.0077336797771747 0.1399603707160880 0.5013104461281738	-0.238941
N	0.4977161879732263 0.6434794359734244 0.9923692395269104	-0.214135
N	0.9932962987615305 0.8560625593999642 0.4966497259280960	-0.239234
N	0.5016096332371762 0.3601936049383504 0.0039337018195695	-0.217157
N	0.8584790367150883 0.0018755852630583 0.5016953032457124	-0.238160
N	0.3583845910192163 0.4995936223659818 0.9918172228969409	-0.211548
N	0.1425078856056753 0.9950899750284360 0.4944326447547733	-0.239964
N	0.6417667727865413 0.5031462424803758 0.0079728922161267	-0.211098
Fe	0.0004653630159320 0.9980023611427038 0.4981688233164211	0.791445
Fe	0.5000696040516961 0.5018804903428865 0.9989152440399532	0.657427
Sn	-0.0001514624649190 0.9968087586727111 0.9983471885555221	1.866404
Sn	0.4994154793064419 0.5034594583535649 0.4987760582414411	1.873053
F	0.9978678300456173 0.0011894321532684 0.2509554670549555	-0.501476
F	0.5062230364817426 0.4991944249162523 0.7514590965530693	-0.504956
F	0.0020749991310612 0.9935491686401678 0.7456980091066678	-0.501219
F	0.4929115805637764 0.5065182763769908 0.2461544303177651	-0.504833
F	0.0909754744606598 0.0868299464434776 0.9954592567958855	-0.552594
F	0.5876938258892416 0.5965880755369797 0.4953133751157044	-0.568396
F	0.9089014649470087 0.9068506873372140 0.0015398271517433	-0.551369
F	0.4113563819726517 0.4103453365102792 0.5028311834231247	-0.571255
F	0.9097982858177763 0.0880338278926247 0.9845360829860871	-0.549773
F	0.4067715216760005 0.5922065455777836 0.5134002217635902	-0.568308
F	0.0902155981211376 0.9059665898825832 0.0127309296347766	-0.549299
F	0.5928861632738744 0.4154393844463060 0.4844293131757496	-0.569626
	  	
