#======================================================================

# CRYSTAL DATA

#----------------------------------------------------------------------

data_VESTA_phase_1


_pd_phase_name                         SnFSIX_2_Ni
_cell_length_a                         13.84422
_cell_length_b                         13.84422
_cell_length_c                         8.08639
_cell_angle_alpha                      90
_cell_angle_beta                       90
_cell_angle_gamma                      90
_symmetry_space_group_name_H-M         P 1
_symmetry_Int_Tables_number            1

loop_
_symmetry_equiv_pos_as_xyz
   x, y, z

loop_
   _atom_site_label
   _atom_site_fract_x
   _atom_site_fract_y
   _atom_site_fract_z
   _atom_site_charge
C	0.5312578312449834 0.7006543821308427 0.1330629657922867	0.101455
C	0.5318387579754807 0.8008418168513198 0.1385927443294050	-0.163388
C	0.4687422387550156 0.2993456178691569 0.1330629657922867	0.101453
C	0.4681612070245192 0.1991581651486785 0.1385927443294050	-0.163385
C	0.2993456178691569 0.5312578312449834 0.1330629657922867	0.101456
C	0.1991581651486785 0.5318387579754807 0.1385927443294050	-0.163388
C	0.7006543821308427 0.4687422387550156 0.1330629657922867	0.101453
C	0.8008418168513198 0.4681612070245192 0.1385927443294050	-0.163385
C	0.4687422387550156 0.7006543821308427 0.8669370342077133	0.101456
C	0.4681612070245192 0.8008418168513198 0.8614072256705926	-0.163387
C	0.5312578312449834 0.2993456178691569 0.8669370342077133	0.101454
C	0.5318387579754807 0.1991581651486785 0.8614072256705926	-0.163384
C	0.7006543821308427 0.5312578312449834 0.8669370342077133	0.101454
C	0.8008418168513198 0.5318387579754807 0.8614072256705926	-0.163384
C	0.2993456178691569 0.4687422387550156 0.8669370342077133	0.101456
C	0.1991581651486785 0.4681612070245192 0.8614072256705926	-0.163387
C	0.5000000000000000 0.1464250124607370 0.0000000000000000	0.169669
C	0.5000000000000000 0.0440505530352600 0.0000000000000000	-0.091578
C	0.5000000000000000 0.8535749875392631 0.0000000000000000	0.169638
C	0.5000000000000000 0.9559493899647457 0.0000000000000000	-0.091334
C	0.8535749875392631 0.5000000000000000 0.0000000000000000	0.169669
C	0.9559493899647457 0.5000000000000000 0.0000000000000000	-0.091579
C	0.1464250124607370 0.5000000000000000 0.0000000000000000	0.169638
C	0.0440505530352600 0.5000000000000000 0.0000000000000000	-0.091333
H	0.5561620667040147 0.6587268696214629 0.2388337436137853	0.093947
H	0.5571642670562732 0.8375570397856809 0.2493950500193464	0.129572
H	0.4438379332959854 0.3412730603785383 0.2388337436137853	0.093947
H	0.4428357679437260 0.1624428902143205 0.2493950500193464	0.129573
H	0.3412730603785383 0.5561620667040147 0.2388337436137853	0.093947
H	0.1624428902143205 0.5571642670562732 0.2493950500193464	0.129572
H	0.6587268696214629 0.4438379332959854 0.2388337436137853	0.093947
H	0.8375570397856809 0.4428357679437260 0.2493950500193464	0.129573
H	0.4438379332959854 0.6587268696214629 0.7611662563862148	0.093947
H	0.4428357679437260 0.8375570397856809 0.7506049799806560	0.129570
H	0.5561620667040147 0.3412730603785383 0.7611662563862148	0.093947
H	0.5571642670562732 0.1624428902143205 0.7506049799806560	0.129571
H	0.6587268696214629 0.5561620667040147 0.7611662563862148	0.093947
H	0.8375570397856809 0.5571642670562732 0.7506049799806560	0.129572
H	0.3412730603785383 0.4438379332959854 0.7611662563862148	0.093947
H	0.1624428902143205 0.4428357679437260 0.7506049799806560	0.129570
Ni	0.5000000000000000 0.5000000000000000 0.0000000000000000	0.755509
Sn	0.5000000000000000 0.5000000000000000 0.5000000000000000	1.872989
F	0.5000000000000000 0.5000000000000000 0.7515329849638684	-0.525905
F	0.5000000000000000 0.5000000000000000 0.2484670450361267	-0.525905
F	0.6015449637489748 0.6015449637489748 0.5000000000000000	-0.558472
F	0.3984550712510243 0.6015449637489748 0.5000000000000000	-0.558472
F	0.3984550712510243 0.3984550712510243 0.5000000000000000	-0.558472
F	0.6015449637489748 0.3984550712510243 0.5000000000000000	-0.558472
N	0.5000000000000000 0.3491137308979615 0.0000000000000000	-0.237071
N	0.5000000000000000 0.6508862341020393 0.0000000000000000	-0.237070
N	0.6508862341020393 0.5000000000000000 0.0000000000000000	-0.237071
N	0.3491137308979615 0.5000000000000000 0.0000000000000000	-0.237071
	  	
