#======================================================================

# CRYSTAL DATA

#----------------------------------------------------------------------

data_VESTA_phase_1


_pd_phase_name                         SnFSIX_1_Fe
_cell_length_a                         11.47516
_cell_length_b                         11.47516
_cell_length_c                         8.17854
_cell_angle_alpha                      90
_cell_angle_beta                       90
_cell_angle_gamma                      90
_symmetry_space_group_name_H-M         P 1
_symmetry_Int_Tables_number            1

loop_
_symmetry_equiv_pos_as_xyz
   x, y, z

loop_
   _atom_site_label
   _atom_site_fract_x
   _atom_site_fract_y
   _atom_site_fract_z
   _atom_site_charge
C	0.2487258926184302 0.4581565223870444 0.3711752738483102	0.107269
C	0.1275637935871920 0.4577110822628006 0.3660473096855061	-0.171842
C	0.7512741943815735 0.5418435206129557 0.3711752738483102	0.107268
C	0.8724362504128117 0.5422889177371996 0.3660473096855061	-0.171824
C	0.5418435206129557 0.2487258926184302 0.3711752738483102	0.107268
C	0.5422889177371996 0.1275637935871920 0.3660473096855061	-0.171824
C	0.4581565223870444 0.7512741943815735 0.3711752738483102	0.107270
C	0.4577110822628006 0.8724362504128117 0.3660473096855061	-0.171843
C	0.7512741943815735 0.4581565223870444 0.6288246961516870	0.107271
C	0.8724362504128117 0.4577110822628006 0.6339526613144881	-0.171841
C	0.2487258926184302 0.5418435206129557 0.6288246961516870	0.107268
C	0.1275637935871920 0.5422889177371996 0.6339526613144881	-0.171821
C	0.4581565223870444 0.2487258926184302 0.6288246961516870	0.107271
C	0.4577110822628006 0.1275637935871920 0.6339526613144881	-0.171840
C	0.5418435206129557 0.7512741943815735 0.6288246961516870	0.107269
C	0.5422889177371996 0.8724362504128117 0.6339526613144881	-0.171822
C	0.0643816613319528 0.5000000000000000 0.5000000000000000	0.099939
C	0.9356184146680465 0.5000000000000000 0.5000000000000000	0.099945
C	0.5000000000000000 0.0643816613319528 0.5000000000000000	0.099939
C	0.5000000000000000 0.9356184146680465 0.5000000000000000	0.099945
H	0.2995738382764280 0.4246134431766315 0.2688746046321066	0.092797
H	0.0833725319642284 0.4224524787167778 0.2591755820381029	0.122681
H	0.7004261187235720 0.5753865568233688 0.2688746046321066	0.092795
H	0.9166274840357729 0.5775475212832224 0.2591755820381029	0.122677
H	0.5753865568233688 0.2995738382764280 0.2688746046321066	0.092795
H	0.5775475212832224 0.0833725319642284 0.2591755820381029	0.122679
H	0.4246134431766315 0.7004261187235720 0.2688746046321066	0.092797
H	0.4224524787167778 0.9166274840357729 0.2591755820381029	0.122682
H	0.7004261187235720 0.4246134431766315 0.7311253663678947	0.092797
H	0.9166274840357729 0.4224524787167778 0.7408244769618985	0.122680
H	0.2995738382764280 0.5753865568233688 0.7311253663678947	0.092795
H	0.0833725319642284 0.5775475212832224 0.7408244769618985	0.122675
H	0.4246134431766315 0.2995738382764280 0.7311253663678947	0.092797
H	0.4224524787167778 0.0833725319642284 0.7408244769618985	0.122681
H	0.5753865568233688 0.7004261187235720 0.7311253663678947	0.092795
H	0.5775475212832224 0.9166274840357729 0.7408244769618985	0.122677
Fe	0.5000000000000000 0.5000000000000000 0.5000000000000000	0.787889
Sn	0.5000000000000000 0.5000000000000000 -0.0000000000000000	1.875004
F	0.5000000000000000 0.5000000000000000 0.7483800637753359	-0.507238
F	0.5000000000000000 0.5000000000000000 0.2516199362246569	-0.507238
F	0.3775345461318776 0.3775345461318776 -0.0000000000000000	-0.563957
F	0.6224654538681226 0.6224654538681226 -0.0000000000000000	-0.563958
F	0.6224654538681226 0.3775345461318776 -0.0000000000000000	-0.563957
F	0.3775345461318776 0.6224654538681226 -0.0000000000000000	-0.563957
N	0.3088308600659112 0.5000000000000000 0.5000000000000000	-0.249914
N	0.6911691619340904 0.5000000000000000 0.5000000000000000	-0.249913
N	0.5000000000000000 0.3088308600659112 0.5000000000000000	-0.249914
N	0.5000000000000000 0.6911691619340904 0.5000000000000000	-0.249913
	  	
