#======================================================================

# CRYSTAL DATA

#----------------------------------------------------------------------

data_VESTA_phase_1


_pd_phase_name                         SnFSIX_6_Cu_i
_cell_length_a                         17.85904
_cell_length_b                         17.85904
_cell_length_c                         15.62788
_cell_angle_alpha                      90
_cell_angle_beta                       90
_cell_angle_gamma                      90
_symmetry_space_group_name_H-M         P 1
_symmetry_Int_Tables_number            1

loop_
_symmetry_equiv_pos_as_xyz
   x, y, z

loop_
   _atom_site_label
   _atom_site_fract_x
   _atom_site_fract_y
   _atom_site_fract_z
   _atom_site_charge
N	0.2439519863391620 0.1286173165842097 0.1281332594749693	-0.272839
N	0.2560480136608380 0.3713826974157916 0.1281332594749693	-0.272837
N	0.3713826974157916 0.2439519863391620 0.1281332594749693	-0.272838
N	0.1286173165842097 0.2560480136608380 0.1281332594749693	-0.272838
N	0.7560479866608393 0.6286173295842145 0.3718667255250328	-0.272838
N	0.7439520133391607 0.8713826704157855 0.3718667255250328	-0.272837
N	0.6286173295842145 0.7439520133391607 0.3718667255250328	-0.272838
N	0.8713826704157855 0.7560479866608393 0.3718667255250328	-0.272838
N	0.7560479866608393 0.8713826704157855 0.8718667255250330	-0.272837
N	0.7439520133391607 0.6286173295842145 0.8718667255250330	-0.272839
N	0.6286173295842145 0.7560479866608393 0.8718667255250330	-0.272838
N	0.8713826704157855 0.7439520133391607 0.8718667255250330	-0.272838
N	0.2439519863391620 0.3713826974157916 0.6281332744749670	-0.272838
N	0.2560480136608380 0.1286173165842097 0.6281332744749670	-0.272839
N	0.3713826974157916 0.2560480136608380 0.6281332744749670	-0.272838
N	0.1286173165842097 0.2439519863391620 0.6281332744749670	-0.272838
C	0.2005301823188265 0.0927549376086574 0.1851752774669922	0.107694
C	0.1924190287668500 0.0153743756900054 0.1848686207546518	-0.178496
C	0.2325115998038411 0.9725132265386168 0.1251455549066878	0.110811
C	0.2786122279516192 0.0107590121360556 0.0670036446043750	-0.176571
C	0.2819286582583663 0.0884727918672367 0.0697723551603756	0.108186
C	0.2266258270730957 0.8901992250195341 0.1238884252640680	0.059880
C	0.2905825192063504 0.8464087932194392 0.1209569263666379	-0.172988
C	0.2862090791870822 0.7674122682466148 0.1220901657915237	0.084984
C	0.1488350813154222 0.7783945567482554 0.1246599061829531	-0.123389
C	0.1551315412053360 0.8551240375352179 0.1268367851006803	-0.135631
C	0.2994697776811773 0.4072450753913401 0.1851752774669922	0.107692
C	0.3075809312331467 0.4846256053099965 0.1848686207546518	-0.178495
C	0.2674884001961588 0.5274867734613832 0.1251455549066878	0.110808
C	0.2213877850483784 0.4892409848639407 0.0670036446043750	-0.176571
C	0.2180713557416347 0.4115272151327676 0.0697723551603756	0.108184
C	0.2733741729269043 0.6098007749804659 0.1238884252640680	0.059901
C	0.2094175217936494 0.6535912067805608 0.1209569263666379	-0.172970
C	0.2137908938129191 0.7325877317533852 0.1220901657915237	0.084962
C	0.3511649046845765 0.7216054432517446 0.1246599061829531	-0.123395
C	0.3448684587946640 0.6448759624647821 0.1268367851006803	-0.135634
C	0.4072450753913401 0.2005301823188265 0.1851752774669922	0.107693
C	0.4846256053099965 0.1924190287668500 0.1848686207546518	-0.178497
C	0.5274867734613832 0.2325115998038411 0.1251455549066878	0.110812
C	0.4892409848639407 0.2786122279516192 0.0670036446043750	-0.176570
C	0.4115272151327676 0.2819286582583663 0.0697723551603756	0.108184
C	0.6098007749804659 0.2266258270730957 0.1238884252640680	0.059880
C	0.6535912067805608 0.2905825192063504 0.1209569263666379	-0.172986
C	0.7325877317533852 0.2862090791870822 0.1220901657915237	0.084984
C	0.7216054432517446 0.1488350813154222 0.1246599061829531	-0.123388
C	0.6448759624647821 0.1551315412053360 0.1268367851006803	-0.135630
C	0.0927549376086574 0.2994697776811773 0.1851752774669922	0.107693
C	0.0153743756900054 0.3075809312331467 0.1848686207546518	-0.178495
C	0.9725132265386168 0.2674884001961588 0.1251455549066878	0.110807
C	0.0107590121360556 0.2213877850483784 0.0670036446043750	-0.176572
C	0.0884727918672367 0.2180713557416347 0.0697723551603756	0.108185
C	0.8901992250195341 0.2733741729269043 0.1238884252640680	0.059901
C	0.8464087932194392 0.2094175217936494 0.1209569263666379	-0.172972
C	0.7674122682466148 0.2137908938129191 0.1220901657915237	0.084962
C	0.7783945567482554 0.3511649046845765 0.1246599061829531	-0.123395
C	0.8551240375352179 0.3448684587946640 0.1268367851006803	-0.135634
C	0.7994698306811708 0.5927549246086599 0.3148247385330090	0.107695
C	0.8075809842331473 0.5153743406899990 0.3151313482453491	-0.178495
C	0.7674884001961593 0.4725132265386168 0.3748544130933096	0.110806
C	0.7213877450483817 0.5107590691360572 0.4329963593956252	-0.176571
C	0.7180713157416314 0.5884728388672371 0.4302276848396205	0.108185
C	0.7733742529269038 0.3901992780195349 0.3761115667359313	0.059902
C	0.7094175077936482 0.3464087402194380 0.3790430656333618	-0.172972
C	0.7137909208129178 0.2674121882466155 0.3779098342084762	0.084975
C	0.8511649316845824 0.2783945297482568 0.3753400778170455	-0.123388
C	0.8448684057946632 0.3551240115352160 0.3731632468993225	-0.135636
C	0.7005301693188292 0.9072450753913401 0.3148247385330090	0.107692
C	0.6924190157668527 0.9846256053099965 0.3151313482453491	-0.178496
C	0.7325115998038407 0.0274867794613838 0.3748544130933096	0.110808
C	0.7786122549516183 0.9892409848639402 0.4329963593956252	-0.176570
C	0.7819286842583686 0.9115272681327682 0.4302276848396205	0.108184
C	0.7266257470730962 0.1098007489804638 0.3761115667359313	0.059901
C	0.7905824922063518 0.1535912467805573 0.3790430656333618	-0.172971
C	0.7862090791870822 0.2325877847533857 0.3779098342084762	0.084965
C	0.6488350683154176 0.2216054572517457 0.3753400778170455	-0.123397
C	0.6551315942053368 0.1448759624647820 0.3731632468993225	-0.135633
C	0.5927549246086599 0.7005301693188292 0.3148247385330090	0.107694
C	0.5153743406899990 0.6924190157668527 0.3151313482453491	-0.178497
C	0.4725132265386168 0.7325115998038407 0.3748544130933096	0.110808
C	0.5107590691360572 0.7786122549516183 0.4329963593956252	-0.176570
C	0.5884728388672371 0.7819286842583686 0.4302276848396205	0.108184
C	0.3901992780195349 0.7266257470730962 0.3761115667359313	0.059901
C	0.3464087402194380 0.7905824922063518 0.3790430656333618	-0.172972
C	0.2674121882466155 0.7862090791870822 0.3779098342084762	0.084975
C	0.2783945297482568 0.6488350683154176 0.3753400778170455	-0.123388
C	0.3551240115352160 0.6551315942053368 0.3731632468993225	-0.135635
C	0.9072450753913401 0.7994698306811708 0.3148247385330090	0.107692
C	0.9846256053099965 0.8075809842331473 0.3151313482453491	-0.178494
C	0.0274867794613838 0.7674884001961593 0.3748544130933096	0.110806
C	0.9892409848639402 0.7213877450483817 0.4329963593956252	-0.176571
C	0.9115272681327682 0.7180713157416314 0.4302276848396205	0.108185
C	0.1098007489804638 0.7733742529269038 0.3761115667359313	0.059902
C	0.1535912467805573 0.7094175077936482 0.3790430656333618	-0.172971
C	0.2325877847533857 0.7137909208129178 0.3779098342084762	0.084965
C	0.2216054572517457 0.8511649316845824 0.3753400778170455	-0.123397
C	0.1448759624647820 0.8448684057946632 0.3731632468993225	-0.135633
C	0.7994698306811708 0.9072450753913401 0.8148247065330064	0.107687
C	0.8075809842331473 0.9846256053099965 0.8151314112453506	-0.178488
C	0.7674884001961593 0.0274867794613838 0.8748544770933080	0.110805
C	0.7213877450483817 0.9892409848639402 0.9329963283956266	-0.176571
C	0.7180713157416314 0.9115272681327682 0.9302276528396181	0.108183
C	0.7733742529269038 0.1098007489804638 0.8761115667359315	0.059902
C	0.7094175077936482 0.1535912467805573 0.8790430976333642	-0.172972
C	0.7137909208129178 0.2325877847533857 0.8779098662084721	0.084975
C	0.8511649316845824 0.2216054572517457 0.8753401408170471	-0.123389
C	0.8448684057946632 0.1448759624647820 0.8731632788993182	-0.135634
C	0.7005301693188292 0.5927549246086599 0.8148247065330064	0.107689
C	0.6924190157668527 0.5153743406899990 0.8151314112453506	-0.178488
C	0.7325115998038407 0.4725132265386168 0.8748544770933080	0.110803
C	0.7786122549516183 0.5107590691360572 0.9329963283956266	-0.176570
C	0.7819286842583686 0.5884728388672371 0.9302276528396181	0.108185
C	0.7266257470730962 0.3901992780195349 0.8761115667359315	0.059902
C	0.7905824922063518 0.3464087402194380 0.8790430976333642	-0.172972
C	0.7862090791870822 0.2674121882466155 0.8779098662084721	0.084965
C	0.6488350683154176 0.2783945297482568 0.8753401408170471	-0.123397
C	0.6551315942053368 0.3551240115352160 0.8731632788993182	-0.135634
C	0.5927549246086599 0.7994698306811708 0.8148247065330064	0.107688
C	0.5153743406899990 0.8075809842331473 0.8151314112453506	-0.178488
C	0.4725132265386168 0.7674884001961593 0.8748544770933080	0.110804
C	0.5107590691360572 0.7213877450483817 0.9329963283956266	-0.176571
C	0.5884728388672371 0.7180713157416314 0.9302276528396181	0.108185
C	0.3901992780195349 0.7733742529269038 0.8761115667359315	0.059902
C	0.3464087402194380 0.7094175077936482 0.8790430976333642	-0.172973
C	0.2674121882466155 0.7137909208129178 0.8779098662084721	0.084975
C	0.2783945297482568 0.8511649316845824 0.8753401408170471	-0.123389
C	0.3551240115352160 0.8448684057946632 0.8731632788993182	-0.135635
C	0.9072450753913401 0.7005301693188292 0.8148247065330064	0.107688
C	0.9846256053099965 0.6924190157668527 0.8151314112453506	-0.178488
C	0.0274867794613838 0.7325115998038407 0.8748544770933080	0.110804
C	0.9892409848639402 0.7786122549516183 0.9329963283956266	-0.176570
C	0.9115272681327682 0.7819286842583686 0.9302276528396181	0.108184
C	0.1098007489804638 0.7266257470730962 0.8761115667359315	0.059902
C	0.1535912467805573 0.7905824922063518 0.8790430976333642	-0.172971
C	0.2325877847533857 0.7862090791870822 0.8779098662084721	0.084965
C	0.2216054572517457 0.6488350683154176 0.8753401408170471	-0.123397
C	0.1448759624647820 0.6551315942053368 0.8731632788993182	-0.135633
C	0.2005301823188265 0.4072450753913401 0.6851752934669936	0.107686
C	0.1924190287668500 0.4846256053099965 0.6848685887546494	-0.178489
C	0.2325115998038411 0.5274867734613832 0.6251455229066920	0.110810
C	0.2786122279516192 0.4892409848639407 0.5670036716043734	-0.176570
C	0.2819286582583663 0.4115272151327676 0.5697723471603819	0.108184
C	0.2266258270730957 0.6098007749804659 0.6238884332640685	0.059880
C	0.2905825192063504 0.6535912067805608 0.6209569023666358	-0.172988
C	0.2862090791870822 0.7325877317533852 0.6220901337915279	0.084984
C	0.1488350813154222 0.7216054432517446 0.6246598591829529	-0.123390
C	0.1551315412053360 0.6448759624647821 0.6268367211006818	-0.135629
C	0.2994697776811773 0.0927549376086574 0.6851752934669936	0.107689
C	0.3075809312331467 0.0153743756900054 0.6848685887546494	-0.178488
C	0.2674884001961588 0.9725132265386168 0.6251455229066920	0.110803
C	0.2213877850483784 0.0107590121360556 0.5670036716043734	-0.176571
C	0.2180713557416347 0.0884727918672367 0.5697723471603819	0.108185
C	0.2733741729269043 0.8901992250195341 0.6238884332640685	0.059901
C	0.2094175217936494 0.8464087932194392 0.6209569023666358	-0.172972
C	0.2137908938129191 0.7674122682466148 0.6220901337915279	0.084962
C	0.3511649046845765 0.7783945567482554 0.6246598591829529	-0.123395
C	0.3448684587946640 0.8551240375352179 0.6268367211006818	-0.135635
C	0.4072450753913401 0.2994697776811773 0.6851752934669936	0.107687
C	0.4846256053099965 0.3075809312331467 0.6848685887546494	-0.178487
C	0.5274867734613832 0.2674884001961588 0.6251455229066920	0.110803
C	0.4892409848639407 0.2213877850483784 0.5670036716043734	-0.176571
C	0.4115272151327676 0.2180713557416347 0.5697723471603819	0.108185
C	0.6098007749804659 0.2733741729269043 0.6238884332640685	0.059902
C	0.6535912067805608 0.2094175217936494 0.6209569023666358	-0.172972
C	0.7325877317533852 0.2137908938129191 0.6220901337915279	0.084973
C	0.7216054432517446 0.3511649046845765 0.6246598591829529	-0.123388
C	0.6448759624647821 0.3448684587946640 0.6268367211006818	-0.135635
C	0.0927549376086574 0.2005301823188265 0.6851752934669936	0.107688
C	0.0153743756900054 0.1924190287668500 0.6848685887546494	-0.178490
C	0.9725132265386168 0.2325115998038411 0.6251455229066920	0.110810
C	0.0107590121360556 0.2786122279516192 0.5670036716043734	-0.176571
C	0.0884727918672367 0.2819286582583663 0.5697723471603819	0.108184
C	0.8901992250195341 0.2266258270730957 0.6238884332640685	0.059879
C	0.8464087932194392 0.2905825192063504 0.6209569023666358	-0.172987
C	0.7674122682466148 0.2862090791870822 0.6220901337915279	0.084973
C	0.7783945567482554 0.1488350813154222 0.6246598591829529	-0.123398
C	0.8551240375352179 0.1551315412053360 0.6268367211006818	-0.135630
H	0.1724225293912137 0.1275155419664585 0.2328398820395695	0.094020
H	0.1569356561146640 0.9881939151752396 0.2323645036300433	0.112918
H	0.3098230595622566 0.9799873280788257 0.0184424485592366	0.113926
H	0.3149688958422066 0.1201658787012148 0.0234507137266269	0.094000
H	0.3456973773625188 0.8728634321204846 0.1203001608497228	0.108199
H	0.0937705236361046 0.7518458086130188 0.1252820105434364	0.108841
H	0.1052619945523344 0.8904103124130774 0.1288646421209378	0.100517
H	0.3275774436087875 0.3724844850335472 0.2328398820395695	0.094019
H	0.3430643838853323 0.5118060848247604 0.2323645036300433	0.112918
H	0.1901769534377410 0.5200126719211743 0.0184424485592366	0.113927
H	0.1850311041577937 0.3798341212987851 0.0234507137266269	0.094000
H	0.1543026366374826 0.6271365678795154 0.1203001608497228	0.108177
H	0.4062294693638913 0.7481541913869812 0.1252820105434364	0.108844
H	0.3947380184476701 0.6095896875869226 0.1288646421209378	0.100518
H	0.3724844850335472 0.1724225293912137 0.2328398820395695	0.094019
H	0.5118060848247604 0.1569356561146640 0.2323645036300433	0.112919
H	0.5200126719211743 0.3098230595622566 0.0184424485592366	0.113926
H	0.3798341212987851 0.3149688958422066 0.0234507137266269	0.093999
H	0.6271365678795154 0.3456973773625188 0.1203001608497228	0.108199
H	0.7481541913869812 0.0937705236361046 0.1252820105434364	0.108841
H	0.6095896875869226 0.1052619945523344 0.1288646421209378	0.100517
H	0.1275155419664585 0.3275774436087875 0.2328398820395695	0.094020
H	0.9881939151752396 0.3430643838853323 0.2323645036300433	0.112917
H	0.9799873280788257 0.1901769534377410 0.0184424485592366	0.113926
H	0.1201658787012148 0.1850311041577937 0.0234507137266269	0.094000
H	0.8728634321204846 0.1543026366374826 0.1203001608497228	0.108176
H	0.7518458086130188 0.4062294693638913 0.1252820105434364	0.108844
H	0.8904103124130774 0.3947380184476701 0.1288646421209378	0.100517
H	0.8275774436087874 0.6275155689664573 0.2671601339604316	0.094020
H	0.8430643028853360 0.4881939691752366 0.2676354963699565	0.112918
H	0.6901769404377436 0.4799873280788261 0.4815575534407635	0.113926
H	0.6850311571577944 0.6201659057012137 0.4765492842733729	0.094000
H	0.6543026226374815 0.3728633781204871 0.3796998471502778	0.108176
H	0.9062294163638903 0.2518458356130174 0.3747179814565630	0.108843
H	0.8947379914476716 0.3904103384130725 0.3711353658790631	0.100519
H	0.6724225563912126 0.8724844310335427 0.2671601339604316	0.094020
H	0.6569356971146640 0.0118060468247576 0.2676354963699565	0.112918
H	0.8098230595622564 0.0200126709211703 0.4815575534407635	0.113926
H	0.8149688428422056 0.8798340942987863 0.4765492842733729	0.093999
H	0.8456973773625185 0.1271366348795176 0.3796998471502778	0.108177
H	0.5937705306361089 0.2481541373869768 0.3747179814565630	0.108842
H	0.6052620085523284 0.1095896745869250 0.3711353658790631	0.100517
H	0.6275155689664573 0.6724225563912126 0.2671601339604316	0.094020
H	0.4881939691752366 0.6569356971146640 0.2676354963699565	0.112918
H	0.4799873280788261 0.8098230595622564 0.4815575534407635	0.113925
H	0.6201659057012137 0.8149688428422056 0.4765492842733729	0.094000
H	0.3728633781204871 0.8456973773625185 0.3796998471502778	0.108177
H	0.2518458356130174 0.5937705306361089 0.3747179814565630	0.108842
H	0.3904103384130725 0.6052620085523284 0.3711353658790631	0.100517
H	0.8724844310335427 0.8275774436087874 0.2671601339604316	0.094020
H	0.0118060468247576 0.8430643028853360 0.2676354963699565	0.112918
H	0.0200126709211703 0.6901769404377436 0.4815575534407635	0.113927
H	0.8798340942987863 0.6850311571577944 0.4765492842733729	0.093999
H	0.1271366348795176 0.6543026226374815 0.3796998471502778	0.108176
H	0.2481541373869768 0.9062294163638903 0.3747179814565630	0.108843
H	0.1095896745869250 0.8947379914476716 0.3711353658790631	0.100518
H	0.8275774436087874 0.8724844310335427 0.7671601029604326	0.094020
H	0.8430643028853360 0.0118060468247576 0.7676355113699617	0.112918
H	0.6901769404377436 0.0200126709211703 0.9815575844407630	0.113927
H	0.6850311571577944 0.8798340942987863 0.9765492202733752	0.094000
H	0.6543026226374815 0.1271366348795176 0.8796998151502753	0.108177
H	0.9062294163638903 0.2481541373869768 0.8747179184565614	0.108843
H	0.8947379914476716 0.1095896745869250 0.8711353338790602	0.100518
H	0.6724225563912126 0.6275155689664573 0.7671601029604326	0.094021
H	0.6569356971146640 0.4881939691752366 0.7676355113699617	0.112918
H	0.8098230595622564 0.4799873280788261 0.9815575844407630	0.113926
H	0.8149688428422056 0.6201659057012137 0.9765492202733752	0.094000
H	0.8456973773625185 0.3728633781204871 0.8796998151502753	0.108177
H	0.5937705306361089 0.2518458356130174 0.8747179184565614	0.108842
H	0.6052620085523284 0.3904103384130725 0.8711353338790602	0.100518
H	0.6275155689664573 0.8275774436087874 0.7671601029604326	0.094021
H	0.4881939691752366 0.8430643028853360 0.7676355113699617	0.112917
H	0.4799873280788261 0.6901769404377436 0.9815575844407630	0.113926
H	0.6201659057012137 0.6850311571577944 0.9765492202733752	0.094000
H	0.3728633781204871 0.6543026226374815 0.8796998151502753	0.108176
H	0.2518458356130174 0.9062294163638903 0.8747179184565614	0.108843
H	0.3904103384130725 0.8947379914476716 0.8711353338790602	0.100518
H	0.8724844310335427 0.6724225563912126 0.7671601029604326	0.094020
H	0.0118060468247576 0.6569356971146640 0.7676355113699617	0.112919
H	0.0200126709211703 0.8098230595622564 0.9815575844407630	0.113926
H	0.8798340942987863 0.8149688428422056 0.9765492202733752	0.093999
H	0.1271366348795176 0.8456973773625185 0.8796998151502753	0.108177
H	0.2481541373869768 0.5937705306361089 0.8747179184565614	0.108842
H	0.1095896745869250 0.6052620085523284 0.8711353338790602	0.100517
H	0.1724225293912137 0.3724844850335472 0.7328398970395674	0.094020
H	0.1569356561146640 0.5118060848247604 0.7323644886300383	0.112918
H	0.3098230595622566 0.5200126719211743 0.5184424465592360	0.113927
H	0.3149688958422066 0.3798341212987851 0.5234507157266266	0.093999
H	0.3456973773625188 0.6271365678795154 0.6203001848497247	0.108199
H	0.0937705236361046 0.7481541913869812 0.6252820815434386	0.108842
H	0.1052619945523344 0.6095896875869226 0.6288646661209398	0.100516
H	0.3275774436087875 0.1275155419664585 0.7328398970395674	0.094020
H	0.3430643838853323 0.9881939151752396 0.7323644886300383	0.112917
H	0.1901769534377410 0.9799873280788257 0.5184424465592360	0.113927
H	0.1850311041577937 0.1201658787012148 0.5234507157266266	0.094000
H	0.1543026366374826 0.8728634321204846 0.6203001848497247	0.108175
H	0.4062294693638913 0.7518458086130188 0.6252820815434386	0.108844
H	0.3947380184476701 0.8904103124130774 0.6288646661209398	0.100519
H	0.3724844850335472 0.3275774436087875 0.7328398970395674	0.094020
H	0.5118060848247604 0.3430643838853323 0.7323644886300383	0.112917
H	0.5200126719211743 0.1901769534377410 0.5184424465592360	0.113927
H	0.3798341212987851 0.1850311041577937 0.5234507157266266	0.093999
H	0.6271365678795154 0.1543026366374826 0.6203001848497247	0.108176
H	0.7481541913869812 0.4062294693638913 0.6252820815434386	0.108844
H	0.6095896875869226 0.3947380184476701 0.6288646661209398	0.100518
H	0.1275155419664585 0.1724225293912137 0.7328398970395674	0.094020
H	0.9881939151752396 0.1569356561146640 0.7323644886300383	0.112918
H	0.9799873280788257 0.3098230595622566 0.5184424465592360	0.113926
H	0.1201658787012148 0.3149688958422066 0.5234507157266266	0.094000
H	0.8728634321204846 0.3456973773625188 0.6203001848497247	0.108198
H	0.7518458086130188 0.0937705236361046 0.6252820815434386	0.108843
H	0.8904103124130774 0.1052619945523344 0.6288646661209398	0.100516
F	0.3120653432905519 0.1577241508044106 0.3784723973004517	-0.573641
F	0.1879346837094470 0.3422758491955892 0.3784723973004517	-0.573640
F	0.3422758491955892 0.3120653432905519 0.3784723973004517	-0.573641
F	0.1577241508044106 0.1879346837094470 0.3784723973004517	-0.573641
F	0.6879346567094483 0.6577240968044133 0.1215276026995482	-0.573641
F	0.8120653432905517 0.8422759031955867 0.1215276026995482	-0.573640
F	0.6577240968044133 0.8120653432905517 0.1215276026995482	-0.573640
F	0.8422759031955867 0.6879346567094483 0.1215276026995482	-0.573642
F	0.6879346567094483 0.8422759031955867 0.6215275706995453	-0.573640
F	0.8120653432905517 0.6577240968044133 0.6215275706995453	-0.573641
F	0.6577240968044133 0.6879346567094483 0.6215275706995453	-0.573641
F	0.8422759031955867 0.8120653432905517 0.6215275706995453	-0.573641
F	0.3120653432905519 0.3422758491955892 0.8784724293004547	-0.573640
F	0.1879346837094470 0.1577241508044106 0.8784724293004547	-0.573641
F	0.3422758491955892 0.1879346837094470 0.8784724293004547	-0.573642
F	0.1577241508044106 0.3120653432905519 0.8784724293004547	-0.573640
F	0.2500000000000000 0.2500000000000000 0.2493539357113004	-0.524359
F	0.2500000000000000 0.2500000000000000 0.5076333928829545	-0.524445
F	0.7500000000000000 0.7500000000000000 0.2506460802887008	-0.524359
F	0.7500000000000000 0.7500000000000000 -0.0076333858829502	-0.524445
F	0.7500000000000000 0.7500000000000000 0.7506460322886966	-0.524360
F	0.7500000000000000 0.7500000000000000 0.4923666391170484	-0.524445
F	0.2500000000000000 0.2500000000000000 0.7493539677113034	-0.524360
F	0.2500000000000000 0.2500000000000000 0.0076333608829518	-0.524445
Cu	0.2500000000000000 0.2500000000000000 0.1284978102378593	0.845101
Cu	0.7500000000000000 0.7500000000000000 0.3715022057621420	0.845100
Cu	0.7500000000000000 0.7500000000000000 0.8715021747621430	0.845103
Cu	0.2500000000000000 0.2500000000000000 0.6284978252378570	0.845103
Sn	0.2500000000000000 0.2500000000000000 0.3785680553130718	1.922049
Sn	0.7500000000000000 0.7500000000000000 0.1214319526869288	1.922049
Sn	0.7500000000000000 0.7500000000000000 0.6214319136869291	1.922049
Sn	0.2500000000000000 0.2500000000000000 0.8785680863130709	1.922049
	  	
