#======================================================================

# CRYSTAL DATA

#----------------------------------------------------------------------

data_VESTA_phase_1


_pd_phase_name                         SnFSIX_7_Co
_cell_length_a                         18.72079
_cell_length_b                         18.72079
_cell_length_c                         8.47804
_cell_angle_alpha                      90
_cell_angle_beta                       90
_cell_angle_gamma                      90
_symmetry_space_group_name_H-M         P 1
_symmetry_Int_Tables_number            1

loop_
_symmetry_equiv_pos_as_xyz
   x, y, z

loop_
   _atom_site_label
   _atom_site_fract_x
   _atom_site_fract_y
   _atom_site_fract_z
   _atom_site_charge
C	0.6675644554456982 0.8682050741818675 0.6920130465911439	0.089994
C	0.6151872826073511 0.9206332734655542 0.6958392607971404	-0.169556
C	0.5820669249340925 0.8867113535610612 0.4332384109099491	-0.165575
C	0.6342794623593442 0.8344709119576197 0.4386649164142772	0.088187
C	0.8324355445543018 0.6317949258181325 0.6920130465911439	0.089994
C	0.8848127673926459 0.5793667775344464 0.6958392607971404	-0.169556
C	0.9179329740659098 0.6132886974389323 0.4332384109099491	-0.165575
C	0.8657205376406558 0.6655290880423803 0.4386649164142772	0.088187
C	0.6317949258181325 0.6675644554456982 0.6920130465911439	0.089995
C	0.5793667775344464 0.6151872826073511 0.6958392607971404	-0.169556
C	0.6132886974389323 0.5820669249340925 0.4332384109099491	-0.165574
C	0.6655290880423803 0.6342794623593442 0.4386649164142772	0.088187
C	0.8682050741818675 0.8324355445543018 0.6920130465911439	0.089995
C	0.9206332734655542 0.8848127673926459 0.6958392607971404	-0.169556
C	0.8867113535610612 0.9179329740659098 0.4332384109099491	-0.165575
C	0.8344709119576197 0.8657205376406558 0.4386649164142772	0.088187
C	0.3324355195543031 0.3682050241818632 0.3079869834088584	0.089994
C	0.3848127173926488 0.4206332734655542 0.3041607692028619	-0.169556
C	0.4179330750659075 0.3867113025610677 0.5667615890900510	-0.165586
C	0.3657204866406621 0.3344709119576199 0.5613351135857254	0.088189
C	0.1675644804456969 0.1317949628181394 0.3079869834088584	0.089977
C	0.1151872826073512 0.0793667265344458 0.3041607692028619	-0.169553
C	0.0820669059340875 0.1132886974389322 0.5667615890900510	-0.165584
C	0.1342795133593378 0.1655290760423793 0.5613351135857254	0.088183
C	0.3682050241818632 0.1675644804456969 0.3079869834088584	0.089994
C	0.4206332734655542 0.1151872826073512 0.3041607692028619	-0.169555
C	0.3867113025610677 0.0820669059340875 0.5667615890900510	-0.165585
C	0.3344709119576199 0.1342795133593378 0.5613351135857254	0.088189
C	0.1317949628181394 0.3324355195543031 0.3079869834088584	0.089977
C	0.0793667265344458 0.3848127173926488 0.3041607692028619	-0.169553
C	0.1132886974389322 0.4179330750659075 0.5667615890900510	-0.165584
C	0.1655290760423793 0.3657204866406621 0.5613351135857254	0.088183
C	0.4318286460427650 0.0712604140844146 0.4363147753268924	0.139263
C	0.4874083227217641 0.0168749138741275 0.4349240444573317	-0.121210
C	0.0681713539572350 0.4287395789155883 0.4363147753268924	0.139262
C	0.0125916452782332 0.4831250221258744 0.4349240444573317	-0.121210
C	0.4287395789155883 0.4318286460427650 0.4363147753268924	0.139263
C	0.4831250221258744 0.4874083227217642 0.4349240444573317	-0.121210
C	0.0712604140844146 0.0681713539572350 0.4363147753268924	0.139262
C	0.0168749138741275 0.0125916452782332 0.4349240444573317	-0.121210
C	0.5681713539572348 0.5712604210844116 0.5636852246731077	0.139261
C	0.5125917282782296 0.5168749278741215 0.5650759845426668	-0.121198
C	0.9318285960427681 0.9287395289155843 0.5636852246731077	0.139261
C	0.9874083227217639 0.9831251231258792 0.5650759845426668	-0.121197
C	0.5712604210844116 0.9318285960427681 0.5636852246731077	0.139261
C	0.5168749278741215 0.9874083227217639 0.5650759845426668	-0.121198
C	0.9287395289155843 0.5681713539572348 0.5636852246731077	0.139261
C	0.9831251231258792 0.5125917282782296 0.5650759845426668	-0.121197
H	0.7021120624003241 0.8587547777177762 0.7929032816076695	0.104064
H	0.6093602773857248 0.9528433564850726 0.8022518449668575	0.123570
H	0.5492774057298295 0.8908371908704090 0.3274824489509354	0.122503
H	0.6434475847301612 0.7993472668393264 0.3387500317639026	0.102999
H	0.7978879375996759 0.6412452222822238 0.7929032816076695	0.104064
H	0.8906397226142752 0.5471566945149281 0.8022518449668575	0.123570
H	0.9507226452701711 0.6091628601295916 0.3274824489509354	0.122503
H	0.8565524152698388 0.7006527331606736 0.3387500317639026	0.102999
H	0.6412452222822238 0.7021120624003241 0.7929032816076695	0.104064
H	0.5471566945149281 0.6093602773857248 0.8022518449668575	0.123570
H	0.6091628601295916 0.5492774057298295 0.3274824489509354	0.122503
H	0.7006527331606736 0.6434475847301612 0.3387500317639026	0.102999
H	0.8587547777177762 0.7978879375996759 0.7929032816076695	0.104064
H	0.9528433564850726 0.8906397226142752 0.8022518449668575	0.123570
H	0.8908371908704090 0.9507226452701711 0.3274824489509354	0.122503
H	0.7993472668393264 0.8565524152698388 0.3387500317639026	0.102999
H	0.2978879635996783 0.3587547017177771 0.2070967033923325	0.104064
H	0.3906396466142692 0.4528433054850721 0.1977481110331389	0.123570
H	0.4507226452701713 0.3908371908704091 0.6725175210490694	0.122503
H	0.3565524402698441 0.2993472928393289 0.6612499682360975	0.103000
H	0.2021120494003192 0.1412453242822250 0.2070967033923325	0.104067
H	0.1093603283857252 0.0471567105149292 0.1977481110331389	0.123570
H	0.0492773487298282 0.1091628351295929 0.6725175210490694	0.122503
H	0.1434475847301617 0.2006526951606703 0.6612499682360975	0.103002
H	0.3587547017177771 0.2021120494003192 0.2070967033923325	0.104064
H	0.4528433054850721 0.1093603283857252 0.1977481110331389	0.123570
H	0.3908371908704091 0.0492773487298282 0.6725175210490694	0.122503
H	0.2993472928393289 0.1434475847301617 0.6612499682360975	0.103000
H	0.1412453242822250 0.2978879635996783 0.2070967033923325	0.104067
H	0.0471567105149292 0.3906396466142692 0.1977481110331389	0.123570
H	0.1091628351295929 0.4507226452701713 0.6725175210490694	0.122503
H	0.2006526951606703 0.3565524402698441 0.6612499682360975	0.103003
H	0.5073258825151598 0.0010798815352323 0.3187569329709249	0.105635
H	0.9926741684848409 0.4989200904647653 0.3187569329709249	0.105635
H	0.4989200904647653 0.5073258825151598 0.3187569329709249	0.105635
H	0.0010798815352323 0.9926741684848409 0.3187569329709249	0.105635
H	0.4926741174848400 0.5010798595352374 0.6812430970290707	0.105633
H	0.0073258735151628 0.9989200904647656 0.6812430970290707	0.105633
H	0.5010798595352374 0.0073258735151628 0.6812430970290707	0.105633
H	0.9989200904647656 0.4926741174848400 0.6812430970290707	0.105633
Co	0.2500000000000000 0.2500000000000000 0.4338306457537177	0.575220
Co	0.7500000000000000 0.7500000000000000 0.5661693542462822	0.575198
Sn	0.2500000000000000 0.2500000000000000 0.9349260105058881	1.857415
Sn	0.7500000000000000 0.7500000000000000 0.0650739744941146	1.857415
F	0.2500000000000000 0.2500000000000000 0.1752144341863865	-0.530174
F	0.2500000000000000 0.2500000000000000 0.6945777624034671	-0.528987
F	0.7500000000000000 0.7500000000000000 0.8247855958136157	-0.530174
F	0.7500000000000000 0.7500000000000000 0.3054222375965326	-0.528989
F	0.3262797537662129 0.3245247058738002 0.9348318377707455	-0.575205
F	0.1737202712337856 0.1754753191261981 0.9348318377707455	-0.575205
F	0.1754753191261981 0.3262797537662129 0.9348318377707455	-0.575205
F	0.3245247058738002 0.1737202712337856 0.9348318377707455	-0.575205
F	0.6737202712337856 0.8245247058738006 0.0651681622292545	-0.575205
F	0.8262797287662144 0.6754752941261994 0.0651681622292545	-0.575205
F	0.8245247058738006 0.8262797287662144 0.0651681622292545	-0.575205
F	0.6754752941261994 0.6737202712337856 0.0651681622292545	-0.575205
N	0.3252945231895229 0.1770406951653121 0.4343094551977291	-0.188033
N	0.1747055018104757 0.3229593298346864 0.4343094551977291	-0.188024
N	0.3229593298346864 0.3252945231895229 0.4343094551977291	-0.188030
N	0.1770406951653121 0.1747055018104757 0.4343094551977291	-0.188027
N	0.6747054768104774 0.6770406701653137 0.5656905448022708	-0.188037
N	0.8252945231895226 0.8229593298346863 0.5656905448022708	-0.188037
N	0.6770406701653137 0.8252945231895226 0.5656905448022708	-0.188037
N	0.8229593298346863 0.6747054768104774 0.5656905448022708	-0.188037
	  	
