#======================================================================

# CRYSTAL DATA

#----------------------------------------------------------------------

data_VESTA_phase_1


_pd_phase_name                         SnFSIX_7_Fe
_cell_length_a                         19.39280
_cell_length_b                         19.39280
_cell_length_c                         8.21849
_cell_angle_alpha                      90
_cell_angle_beta                       90
_cell_angle_gamma                      90
_symmetry_space_group_name_H-M         P 1
_symmetry_Int_Tables_number            1

loop_
_symmetry_equiv_pos_as_xyz
   x, y, z

loop_
   _atom_site_label
   _atom_site_fract_x
   _atom_site_fract_y
   _atom_site_fract_z
   _atom_site_charge
C	0.6632351281432101 0.8732757288341230 0.6937763895770571	0.104958
C	0.6127123793914858 0.9240203654959211 0.6980239420799336	-0.175828
C	0.5788202339852396 0.8895206706691141 0.4297374498550283	-0.171306
C	0.6294834767597436 0.8391285148574253 0.4358603449221138	0.102326
C	0.8367648718567899 0.6267242711658770 0.6937763895770571	0.104958
C	0.8872876706085112 0.5759796855040795 0.6980239420799336	-0.175828
C	0.9211796650147627 0.6104793803308795 0.4297374498550283	-0.171306
C	0.8705165232402564 0.6608714851425747 0.4358603449221138	0.102325
C	0.6267242711658770 0.6632351281432101 0.6937763895770571	0.104958
C	0.5759796855040795 0.6127123793914858 0.6980239420799336	-0.175828
C	0.6104793803308795 0.5788202339852396 0.4297374498550283	-0.171306
C	0.6608714851425747 0.6294834767597436 0.4358603449221138	0.102325
C	0.8732757288341230 0.8367648718567899 0.6937763895770571	0.104959
C	0.9240203654959211 0.8872876706085112 0.6980239420799336	-0.175828
C	0.8895206706691141 0.9211796650147627 0.4297374498550283	-0.171306
C	0.8391285148574253 0.8705165232402564 0.4358603449221138	0.102325
C	0.3367648468567913 0.3732756788341188 0.3062236404229451	0.104955
C	0.3872876206085146 0.4240203654959213 0.3019760879200692	-0.175828
C	0.4211797660147606 0.3895206196691206 0.5702625501449720	-0.171355
C	0.3705164722402632 0.3391285148574255 0.5641396850778888	0.102330
C	0.1632351531432087 0.1267243081658837 0.3062236404229451	0.104955
C	0.1127123793914855 0.0759796345040786 0.3019760879200692	-0.175828
C	0.0788202149852343 0.1104793803308794 0.5702625501449720	-0.171355
C	0.1294835277597369 0.1608714731425736 0.5641396850778888	0.102330
C	0.3732756788341188 0.1632351531432087 0.3062236404229451	0.104955
C	0.4240203654959213 0.1127123793914855 0.3019760879200692	-0.175828
C	0.3895206196691206 0.0788202149852343 0.5702625501449720	-0.171354
C	0.3391285148574255 0.1294835277597369 0.5641396850778888	0.102330
C	0.1267243081658837 0.3367648468567913 0.3062236404229451	0.104955
C	0.0759796345040786 0.3872876206085146 0.3019760879200692	-0.175828
C	0.1104793803308794 0.4211797660147606 0.5702625501449720	-0.171354
C	0.1608714731425736 0.3705164722402632 0.5641396850778888	0.102330
C	0.4339037165678771 0.0692826891287711 0.4368354873406111	0.139735
C	0.4875360016366047 0.0166169196749837 0.4336613124959147	-0.122875
C	0.0660962834321228 0.4307173038712319 0.4368354873406111	0.139735
C	0.0124639663633926 0.4833830163250181 0.4336613124959147	-0.122876
C	0.4307173038712319 0.4339037165678771 0.4368354873406111	0.139735
C	0.4833830163250181 0.4875360016366047 0.4336613124959147	-0.122875
C	0.0692826891287711 0.0660962834321228 0.4368354873406111	0.139735
C	0.0166169196749837 0.0124639663633926 0.4336613124959147	-0.122876
C	0.5660962834321227 0.5692826961287684 0.5631645126593888	0.139721
C	0.5124640493633887 0.5166169336749776 0.5663387165040842	-0.122852
C	0.9339036665678803 0.9307172538712275 0.5631645126593888	0.139721
C	0.9875360016366048 0.9833831173250230 0.5663387165040842	-0.122852
C	0.5692826961287684 0.9339036665678803 0.5631645126593888	0.139721
C	0.5166169336749776 0.9875360016366048 0.5663387165040842	-0.122852
C	0.9307172538712275 0.5660962834321227 0.5631645126593888	0.139721
C	0.9833831173250230 0.5124640493633887 0.5663387165040842	-0.122852
H	0.6970977971597953 0.8651783078722370 0.7978291109130619	0.094107
H	0.6074852096791921 0.9560443183514232 0.8063134569520567	0.117745
H	0.5460757726012185 0.8927675972221331 0.3223488695075791	0.117899
H	0.6372518955780059 0.8043973956089798 0.3333234855941647	0.093399
H	0.8029022028402047 0.6348216921277630 0.7978291109130619	0.094107
H	0.8925147903208079 0.5439557326485774 0.8063134569520567	0.117745
H	0.9539242783987821 0.6072324537778676 0.3223488695075791	0.117899
H	0.8627481044219941 0.6956026043910202 0.3333234855941647	0.093399
H	0.6348216921277630 0.6970977971597953 0.7978291109130619	0.094107
H	0.5439557326485774 0.6074852096791921 0.8063134569520567	0.117745
H	0.6072324537778676 0.5460757726012185 0.3223488695075791	0.117899
H	0.6956026043910202 0.6372518955780059 0.3333234855941647	0.093399
H	0.8651783078722370 0.8029022028402047 0.7978291109130619	0.094107
H	0.9560443183514232 0.8925147903208079 0.8063134569520567	0.117745
H	0.8927675972221331 0.9539242783987821 0.3223488695075791	0.117899
H	0.8043973956089798 0.8627481044219941 0.3333234855941647	0.093399
H	0.3029022288402069 0.3651782318722379 0.2021708740869404	0.094107
H	0.3925147143208017 0.4560442673514228 0.1936864990479396	0.117745
H	0.4539242783987822 0.3927675972221332 0.6776511004924253	0.117905
H	0.3627481294219998 0.3043974216089820 0.6666765144058350	0.093411
H	0.1970977841597906 0.1348217941277643 0.2021708740869404	0.094107
H	0.1074852606791927 0.0439557486485786 0.1936864990479396	0.117745
H	0.0460757156012174 0.1072324287778691 0.6776511004924253	0.117905
H	0.1372518955780058 0.1956025663910170 0.6666765144058350	0.093411
H	0.3651782318722379 0.1970977841597906 0.2021708740869404	0.094107
H	0.4560442673514228 0.1074852606791927 0.1936864990479396	0.117745
H	0.3927675972221332 0.0460757156012174 0.6776511004924253	0.117905
H	0.3043974216089820 0.1372518955780058 0.6666765144058350	0.093411
H	0.1348217941277643 0.3029022288402069 0.2021708740869404	0.094107
H	0.0439557486485786 0.3925147143208017 0.1936864990479396	0.117745
H	0.1072324287778691 0.4539242783987822 0.6776511004924253	0.117905
H	0.1956025663910170 0.3627481294219998 0.6666765144058350	0.093411
H	0.5062019039504460 0.0019508526786397 0.3128438390737586	0.103281
H	0.9937981470495547 0.4980491193213581 0.3128438390737586	0.103281
H	0.4980491193213581 0.5062019039504460 0.3128438390737586	0.103281
H	0.0019508526786397 0.9937981470495547 0.3128438390737586	0.103281
H	0.4937980960495542 0.5019508306786451 0.6871561909262367	0.103280
H	0.0062018949504486 0.9980491193213579 0.6871561909262367	0.103280
H	0.5019508306786451 0.0062018949504486 0.6871561909262367	0.103280
H	0.9980491193213579 0.4937980960495542 0.6871561909262367	0.103280
Fe	0.2500000000000000 0.2500000000000000 0.4340134715608289	0.803751
Fe	0.7500000000000000 0.7500000000000000 0.5659865284391713	0.803757
Sn	0.2500000000000000 0.2500000000000000 0.9346970043469599	1.873864
Sn	0.7500000000000000 0.7500000000000000 0.0653029806530426	1.873865
F	0.2500000000000000 0.2500000000000000 0.1854702769903240	-0.507444
F	0.2500000000000000 0.2500000000000000 0.6838087590366638	-0.506409
F	0.7500000000000000 0.7500000000000000 0.8145297530096784	-0.507444
F	0.7500000000000000 0.7500000000000000 0.3161912409633361	-0.506411
F	0.3231080641010340 0.3214011850041655 0.9352370980903995	-0.563747
F	0.1768919608989645 0.1785988399958331 0.9352370980903995	-0.563747
F	0.1785988399958331 0.3231080641010340 0.9352370980903995	-0.563747
F	0.3214011850041655 0.1768919608989645 0.9352370980903995	-0.563747
F	0.6768919608989644 0.8214011850041651 0.0647629019096005	-0.563747
F	0.8231080391010356 0.6785988149958349 0.0647629019096005	-0.563747
F	0.8214011850041651 0.8231080391010356 0.0647629019096005	-0.563747
F	0.6785988149958349 0.6768919608989644 0.0647629019096005	-0.563747
N	0.3309857285538576 0.1716667180885842 0.4348635719521816	-0.255614
N	0.1690142964461409 0.3283333069114144 0.4348635719521816	-0.255614
N	0.3283333069114144 0.3309857285538576 0.4348635719521816	-0.255614
N	0.1716667180885842 0.1690142964461409 0.4348635719521816	-0.255614
N	0.6690142714461425 0.6716666930885858 0.5651364280478185	-0.255633
N	0.8309857285538575 0.8283333069114142 0.5651364280478185	-0.255634
N	0.6716666930885858 0.8309857285538575 0.5651364280478185	-0.255634
N	0.8283333069114142 0.6690142714461425 0.5651364280478185	-0.255633
	  	
