#======================================================================

# CRYSTAL DATA

#----------------------------------------------------------------------

data_VESTA_phase_1


_pd_phase_name                         SnFSIX_3_Zn
_cell_length_a                         14.33749
_cell_length_b                         14.33749
_cell_length_c                         8.15084
_cell_angle_alpha                      90
_cell_angle_beta                       90
_cell_angle_gamma                      90
_symmetry_space_group_name_H-M         P 1
_symmetry_Int_Tables_number            1

loop_
_symmetry_equiv_pos_as_xyz
   x, y, z

loop_
   _atom_site_label
   _atom_site_fract_x
   _atom_site_fract_y
   _atom_site_fract_z
   _atom_site_charge
C	0.2700223042523024 0.4513971523713987 0.6369717507099850	0.068305
C	0.2299776957476976 0.0486028516286015 0.6369717507099850	0.068305
C	0.2299776957476976 0.4513971523713987 0.3630282172900120	0.068308
C	0.2700223042523024 0.0486028516286015 0.3630282172900120	0.068309
C	0.0486028516286015 0.2700223042523024 0.3630282172900120	0.068310
C	0.4513971523713987 0.2299776957476976 0.3630282172900120	0.068309
C	0.4513971523713987 0.2700223042523024 0.6369717507099850	0.068312
C	0.0486028516286015 0.2299776957476976 0.6369717507099850	0.068313
C	0.9513970843714005 0.2299776957476976 0.6369717507099850	0.068320
C	0.5486029156285995 0.2700223042523024 0.6369717507099850	0.068321
C	0.5486029156285995 0.2299776957476976 0.3630282172900120	0.068324
C	0.9513970843714005 0.2700223042523024 0.3630282172900120	0.068323
C	0.7299777127476955 0.0486028516286015 0.3630282172900120	0.068309
C	0.7700222872523045 0.4513971523713987 0.3630282172900120	0.068309
C	0.7700222872523045 0.0486028516286015 0.6369717507099850	0.068313
C	0.7299777127476955 0.4513971523713987 0.6369717507099850	0.068312
C	0.4513971523713987 0.7299777127476955 0.6369717507099850	0.068305
C	0.0486028516286015 0.7700222872523045 0.6369717507099850	0.068306
C	0.0486028516286015 0.7299777127476955 0.3630282172900120	0.068309
C	0.4513971523713987 0.7700222872523045 0.3630282172900120	0.068309
C	0.2299776957476976 0.5486029156285995 0.3630282172900120	0.068325
C	0.2700223042523024 0.9513970843714005 0.3630282172900120	0.068324
C	0.2700223042523024 0.5486029156285995 0.6369717507099850	0.068328
C	0.2299776957476976 0.9513970843714005 0.6369717507099850	0.068327
C	0.7700222872523045 0.9513970843714005 0.6369717507099850	0.068321
C	0.7299777127476955 0.5486029156285995 0.6369717507099850	0.068321
C	0.7299777127476955 0.9513970843714005 0.3630282172900120	0.068323
C	0.7700222872523045 0.5486029156285995 0.3630282172900120	0.068324
C	0.5486029156285995 0.7700222872523045 0.3630282172900120	0.068325
C	0.9513970843714005 0.7299777127476955 0.3630282172900120	0.068324
C	0.9513970843714005 0.7700222872523045 0.6369717507099850	0.068327
C	0.5486029156285995 0.7299777127476955 0.6369717507099850	0.068328
H	0.2865228927774670 0.4127836959000624 0.7484763278834210	0.109186
H	0.2134770732225301 0.0872163040999377 0.7484763278834210	0.109186
H	0.2134770732225301 0.4127836959000623 0.2515236411165795	0.109186
H	0.2865228927774670 0.0872163040999377 0.2515236411165795	0.109186
H	0.0872163040999377 0.2865228927774670 0.2515236411165795	0.109183
H	0.4127836959000623 0.2134770732225301 0.2515236411165795	0.109184
H	0.4127836959000623 0.2865228927774670 0.7484763278834210	0.109183
H	0.0872163040999377 0.2134770732225301 0.7484763278834210	0.109183
H	0.9127837639000680 0.2134770732225301 0.7484763278834210	0.109179
H	0.5872162360999320 0.2865228927774670 0.7484763278834210	0.109179
H	0.5872162360999320 0.2134770732225301 0.2515236411165795	0.109179
H	0.9127837639000680 0.2865228927774670 0.2515236411165795	0.109179
H	0.7134770392225341 0.0872163040999377 0.2515236411165795	0.109184
H	0.7865229607774659 0.4127836959000623 0.2515236411165795	0.109183
H	0.7865229607774660 0.0872163040999377 0.7484763278834210	0.109183
H	0.7134770392225340 0.4127836959000623 0.7484763278834210	0.109183
H	0.4127836959000623 0.7134770392225340 0.7484763278834210	0.109186
H	0.0872163040999377 0.7865229607774660 0.7484763278834210	0.109186
H	0.0872163040999377 0.7134770392225341 0.2515236411165795	0.109186
H	0.4127836959000623 0.7865229607774659 0.2515236411165795	0.109186
H	0.2134770732225301 0.5872162360999320 0.2515236411165795	0.109177
H	0.2865228927774670 0.9127837639000680 0.2515236411165795	0.109177
H	0.2865228927774670 0.5872162360999320 0.7484763278834210	0.109176
H	0.2134770732225301 0.9127837639000680 0.7484763278834210	0.109176
H	0.7865229607774660 0.9127837639000680 0.7484763278834210	0.109179
H	0.7134770392225340 0.5872162360999320 0.7484763278834210	0.109179
H	0.7134770392225341 0.9127837639000680 0.2515236411165795	0.109179
H	0.7865229607774659 0.5872162360999320 0.2515236411165795	0.109179
H	0.5872162360999320 0.7865229607774659 0.2515236411165795	0.109177
H	0.9127837639000680 0.7134770392225341 0.2515236411165795	0.109177
H	0.9127837639000680 0.7865229607774660 0.7484763278834210	0.109176
H	0.5872162360999320 0.7134770392225340 0.7484763278834210	0.109176
Zn	0.2500000000000000 0.2500000000000000 0.5000000000000000	0.735180
Zn	0.7500000340000028 0.2500000000000000 0.5000000000000000	0.735181
Zn	0.2500000000000000 0.7500000340000028 0.5000000000000000	0.735181
Zn	0.7500000340000028 0.7500000340000028 0.5000000000000000	0.735181
Sn	0.2500000000000000 0.2500000000000000 0.0000000000000000	1.853905
Sn	0.7500000340000028 0.2500000000000000 0.0000000000000000	1.853905
Sn	0.2500000000000000 0.7500000340000028 0.0000000000000000	1.853905
Sn	0.7500000340000028 0.7500000340000028 0.0000000000000000	1.853904
F	0.2500000000000000 0.2500000000000000 0.7485212018696892	-0.525562
F	0.2500000000000000 0.2500000000000000 0.2514787981303107	-0.525562
F	0.3475710383101823 0.3475710383101823 -0.0124975835339933	-0.545907
F	0.1524289616898179 0.1524289616898179 -0.0124975835339933	-0.545906
F	0.1524289616898179 0.3475710383101823 0.0124976045339915	-0.545906
F	0.3475710383101823 0.1524289616898179 0.0124976045339915	-0.545906
F	0.7500000340000028 0.2500000000000000 0.7485212018696892	-0.525562
F	0.7500000340000028 0.2500000000000000 0.2514787981303107	-0.525562
F	0.8475710723101851 0.3475710383101823 0.0124976045339915	-0.545910
F	0.6524289276898149 0.1524289616898179 0.0124976045339915	-0.545908
F	0.6524289276898149 0.3475710383101823 -0.0124975835339933	-0.545909
F	0.8475710723101851 0.1524289616898179 -0.0124975835339933	-0.545910
F	0.2500000000000000 0.7500000340000028 0.7485212018696892	-0.525562
F	0.2500000000000000 0.7500000340000028 0.2514787981303107	-0.525562
F	0.3475710383101823 0.8475710723101851 0.0124976045339915	-0.545910
F	0.1524289616898179 0.6524289276898149 0.0124976045339915	-0.545908
F	0.1524289616898179 0.8475710723101851 -0.0124975835339933	-0.545910
F	0.3475710383101823 0.6524289276898149 -0.0124975835339933	-0.545909
F	0.7500000340000028 0.7500000340000028 0.7485212018696892	-0.525562
F	0.7500000340000028 0.7500000340000028 0.2514787981303107	-0.525562
F	0.8475710723101851 0.8475710723101851 -0.0124975835339933	-0.545914
F	0.6524289276898149 0.6524289276898149 -0.0124975835339933	-0.545911
F	0.6524289276898149 0.8475710723101851 0.0124976045339915	-0.545912
F	0.8475710723101851 0.6524289276898149 0.0124976045339915	-0.545912
N	0.4028931419756363 0.2500000000000000 0.5000000000000000	-0.193575
N	0.0971068580243639 0.2500000000000000 0.5000000000000000	-0.193574
N	0.2500000000000000 0.4028931419756363 0.5000000000000000	-0.193574
N	0.2500000000000000 0.0971068580243639 0.5000000000000000	-0.193574
N	0.9028931419756360 0.2500000000000000 0.5000000000000000	-0.193578
N	0.5971068580243640 0.2500000000000000 0.5000000000000000	-0.193577
N	0.7500000340000028 0.4028931419756363 0.5000000000000000	-0.193576
N	0.7500000340000028 0.0971068580243639 0.5000000000000000	-0.193575
N	0.4028931419756363 0.7500000340000028 0.5000000000000000	-0.193574
N	0.0971068580243639 0.7500000340000028 0.5000000000000000	-0.193573
N	0.2500000000000000 0.9028931419756360 0.5000000000000000	-0.193580
N	0.2500000000000000 0.5971068580243640 0.5000000000000000	-0.193579
N	0.9028931419756360 0.7500000340000028 0.5000000000000000	-0.193579
N	0.5971068580243640 0.7500000340000028 0.5000000000000000	-0.193578
N	0.7500000340000028 0.9028931419756360 0.5000000000000000	-0.193579
N	0.7500000340000028 0.5971068580243640 0.5000000000000000	-0.193578
	  	
