#======================================================================

# CRYSTAL DATA

#----------------------------------------------------------------------

data_VESTA_phase_1


_pd_phase_name                         SnFSIX_4_Zn_i
_cell_length_a                         23.79091
_cell_length_b                         20.67935
_cell_length_c                         9.47317
_cell_angle_alpha                      90
_cell_angle_beta                       90
_cell_angle_gamma                      90
_symmetry_space_group_name_H-M         P 1
_symmetry_Int_Tables_number            1

loop_
_symmetry_equiv_pos_as_xyz
   x, y, z

loop_
   _atom_site_label
   _atom_site_fract_x
   _atom_site_fract_y
   _atom_site_fract_z
   _atom_site_charge
C	0.4148679322479476 0.5958480773713107 0.6290525764854100	0.104945
C	0.3715868974123980 0.5509129838789670 0.6268091847145320	-0.169962
C	0.2767300462629224 0.4491972686021143 0.6262566689408408	-0.115067
C	0.2314301780160861 0.4069103171101893 0.6250788702729654	-0.113775
C	0.1316750193159672 0.3209112520980589 0.6236664220415229	-0.166797
C	0.0855564503884799 0.2798682915092135 0.6272963905867452	0.099525
C	0.9148680152479435 0.0958480883713148 0.6290525764854100	0.104941
C	0.8715868554124018 0.0509129258789696 0.6268091847145320	-0.169963
C	0.7767300672629275 0.9491973156021143 0.6262566689408408	-0.115071
C	0.7314301580160846 0.9069103631101855 0.6250788702729654	-0.113749
C	0.6316750193159671 0.8209112990980590 0.6236664220415228	-0.166786
C	0.5855564353884752 0.7798683845092101 0.6272963905867452	0.099526
C	0.5851320677520527 0.4041518766286859 0.1290525844854104	0.104946
C	0.6284131445875982 0.4490870621210367 0.1268091997145299	-0.169963
C	0.7232699327370725 0.5508026843978857 0.1262566769408411	-0.115067
C	0.7685698419839154 0.5930896828898112 0.1250788782729657	-0.113775
C	0.8683249806840329 0.6790887479019413 0.1236664290415267	-0.166795
C	0.9144435646115248 0.7201316624907902 0.1272964055867432	0.099526
C	0.0851320787520572 0.9041519696286896 0.1290525844854104	0.104945
C	0.1284131025876017 0.9490869701210363 0.1268091997145299	-0.169963
C	0.2232699747370760 0.0508027313978858 0.1262566769408411	-0.115071
C	0.2685698009839161 0.0930896598898124 0.1250788782729657	-0.113750
C	0.3683250226840362 0.1790887589019385 0.1236664290415267	-0.166785
C	0.4144435646115248 0.2201317324907885 0.1272964055867432	0.099525
C	0.5851320677520527 0.5958480773713107 0.8709473925145910	0.104946
C	0.6284131445875982 0.5509129838789670 0.8731907842854690	-0.169962
C	0.7232699327370725 0.4491972686021144 0.8737433620591583	-0.115067
C	0.7685698419839154 0.4069103171101893 0.8749211607270336	-0.113775
C	0.8683249806840329 0.3209112520980589 0.8763336089584762	-0.166796
C	0.9144435646115248 0.2798682915092135 0.8727036404132538	0.099525
C	0.0851320787520572 0.0958480883713148 0.8709473925145910	0.104941
C	0.1284131025876017 0.0509129258789696 0.8731907842854690	-0.169964
C	0.2232699747370760 0.9491973156021143 0.8737433620591583	-0.115071
C	0.2685698009839161 0.9069103631101855 0.8749211607270336	-0.113749
C	0.3683250226840362 0.8209112990980590 0.8763336089584761	-0.166786
C	0.4144435646115248 0.7798683845092101 0.8727036404132538	0.099525
C	0.4148679322479476 0.4041518766286859 0.3709474235145905	0.104946
C	0.3715868974123980 0.4490870621210367 0.3731907842854688	-0.169963
C	0.2767300462629224 0.5508026843978857 0.3737433310591597	-0.115067
C	0.2314301780160861 0.5930896828898112 0.3749210987270356	-0.113775
C	0.1316750193159672 0.6790887479019413 0.3763335469584714	-0.166795
C	0.0855564503884799 0.7201316624907902 0.3727035784132555	0.099526
C	0.9148680152479435 0.9041519696286896 0.3709474235145905	0.104946
C	0.8715868554124018 0.9490869701210363 0.3731907842854688	-0.169963
C	0.7767300672629275 0.0508027313978858 0.3737433310591597	-0.115070
C	0.7314301580160846 0.0930896598898124 0.3749210987270356	-0.113749
C	0.6316750193159671 0.1790887589019385 0.3763335469584714	-0.166785
C	0.5855564353884752 0.2201317324907885 0.3727035784132555	0.099525
C	0.5851320677520527 0.4041518766286859 0.3709474235145905	0.104948
C	0.6284131445875982 0.4490870621210367 0.3731907842854688	-0.169963
C	0.7232699327370725 0.5508026843978857 0.3737433310591597	-0.115067
C	0.7685698419839154 0.5930896828898112 0.3749210987270356	-0.113775
C	0.8683249806840329 0.6790887479019413 0.3763335469584714	-0.166795
C	0.9144435646115248 0.7201316624907902 0.3727035784132555	0.099529
C	0.0851320787520572 0.9041519696286896 0.3709474235145905	0.104947
C	0.1284131025876017 0.9490869701210363 0.3731907842854688	-0.169964
C	0.2232699747370760 0.0508027313978858 0.3737433310591597	-0.115071
C	0.2685698009839161 0.0930896598898124 0.3749210987270356	-0.113750
C	0.3683250226840362 0.1790887589019385 0.3763335469584714	-0.166785
C	0.4144435646115248 0.2201317324907885 0.3727035784132555	0.099528
C	0.4148679322479476 0.5958480773713107 0.8709473925145910	0.104947
C	0.3715868974123980 0.5509129838789670 0.8731907842854690	-0.169963
C	0.2767300462629224 0.4491972686021143 0.8737433620591583	-0.115068
C	0.2314301780160861 0.4069103171101893 0.8749211607270336	-0.113775
C	0.1316750193159672 0.3209112520980589 0.8763336089584762	-0.166796
C	0.0855564503884799 0.2798682915092135 0.8727036404132538	0.099529
C	0.9148680152479435 0.0958480883713148 0.8709473925145910	0.104943
C	0.8715868554124018 0.0509129258789696 0.8731907842854690	-0.169964
C	0.7767300672629275 0.9491973156021143 0.8737433620591583	-0.115071
C	0.7314301580160846 0.9069103631101855 0.8749211607270336	-0.113749
C	0.6316750193159671 0.8209112990980590 0.8763336089584761	-0.166786
C	0.5855564353884752 0.7798683845092101 0.8727036404132538	0.099529
C	0.4148679322479476 0.4041518766286859 0.1290525844854104	0.104948
C	0.3715868974123980 0.4490870621210367 0.1268091997145299	-0.169963
C	0.2767300462629224 0.5508026843978857 0.1262566769408411	-0.115067
C	0.2314301780160861 0.5930896828898112 0.1250788782729657	-0.113775
C	0.1316750193159672 0.6790887479019413 0.1236664290415267	-0.166795
C	0.0855564503884799 0.7201316624907902 0.1272964055867431	0.099529
C	0.9148680152479435 0.9041519696286896 0.1290525844854104	0.104948
C	0.8715868554124018 0.9490869701210363 0.1268091997145299	-0.169963
C	0.7767300672629275 0.0508027313978858 0.1262566769408411	-0.115070
C	0.7314301580160846 0.0930896598898124 0.1250788782729657	-0.113749
C	0.6316750193159671 0.1790887589019385 0.1236664290415268	-0.166784
C	0.5855564353884752 0.2201317324907885 0.1272964055867431	0.099528
C	0.5851320677520527 0.5958480773713107 0.6290525764854100	0.104948
C	0.6284131445875982 0.5509129838789670 0.6268091847145320	-0.169962
C	0.7232699327370725 0.4491972686021143 0.6262566689408408	-0.115067
C	0.7685698419839154 0.4069103171101893 0.6250788702729654	-0.113775
C	0.8683249806840329 0.3209112520980589 0.6236664220415229	-0.166796
C	0.9144435646115248 0.2798682915092135 0.6272963905867452	0.099529
C	0.0851320787520572 0.0958480883713148 0.6290525764854100	0.104943
C	0.1284131025876017 0.0509129258789696 0.6268091847145320	-0.169964
C	0.2232699747370760 0.9491973156021143 0.6262566689408408	-0.115071
C	0.2685698009839161 0.9069103631101855 0.6250788702729654	-0.113749
C	0.3683250226840362 0.8209112990980590 0.6236664220415229	-0.166785
C	0.4144435646115248 0.7798683845092101 0.6272963905867452	0.099529
C	0.3475932550394042 0.5242994964800121 0.7500000149999977	0.119313
C	0.3010896997914043 0.4747681884813138 0.7500000149999977	0.071151
C	0.2061354620113028 0.3852554929363453 0.7500000149999977	0.067204
C	0.1565476158132355 0.3422951541660221 0.7500000149999977	0.103093
C	0.8475932130394078 0.0242994794800141 0.7500000149999977	0.119313
C	0.8010897617914025 0.9747681414813134 0.7500000149999977	0.071152
C	0.7061354620113031 0.8852555159363434 0.7500000149999977	0.067188
C	0.6565476158132354 0.8422950851660200 0.7500000149999977	0.103055
C	0.6524067449605958 0.4757005495199847 0.2500000000000000	0.119313
C	0.6989102382085975 0.5252318115186863 0.2500000000000000	0.071150
C	0.7938645379886969 0.6147445310636569 0.2500000000000000	0.067204
C	0.8434524251867715 0.6577048228339795 0.2500000000000000	0.103093
C	0.1524067559605929 0.9757005965199850 0.2500000000000000	0.119314
C	0.1989103212085941 0.0252318145186830 0.2500000000000000	0.071153
C	0.2938645379886970 0.1147444840636565 0.2500000000000000	0.067188
C	0.3434523841867645 0.1577048568339826 0.2500000000000000	0.103055
C	0.6524067449605958 0.5242994964800121 0.7500000149999977	0.119313
C	0.6989102382085975 0.4747681884813138 0.7500000149999977	0.071151
C	0.7938645379886969 0.3852554929363453 0.7500000149999977	0.067204
C	0.8434524251867715 0.3422951541660221 0.7500000149999977	0.103093
C	0.1524067559605930 0.0242994794800141 0.7500000149999977	0.119314
C	0.1989103212085941 0.9747681414813134 0.7500000149999977	0.071153
C	0.2938645379886970 0.8852555159363434 0.7500000149999977	0.067188
C	0.3434523841867645 0.8422950851660200 0.7500000149999977	0.103055
C	0.3475932550394042 0.4757005495199846 0.2500000000000000	0.119313
C	0.3010896997914043 0.5252318115186863 0.2500000000000000	0.071150
C	0.2061354620113028 0.6147445310636569 0.2500000000000000	0.067204
C	0.1565476158132355 0.6577048228339795 0.2500000000000000	0.103093
C	0.8475932130394078 0.9757005965199850 0.2500000000000000	0.119313
C	0.8010897617914025 0.0252318145186830 0.2500000000000000	0.071152
C	0.7061354620113031 0.1147444840636565 0.2500000000000000	0.067188
C	0.6565476158132354 0.1577048568339825 0.2500000000000000	0.103055
H	0.4323763699256291 0.6144364869640940 0.5305023107404122	0.102849
H	0.3585420766955432 0.5385596105147569 0.5217561502335964	0.106117
H	0.2923796521663368 0.4610637540634502 0.5231767854851244	0.086004
H	0.2159722014626162 0.3911192586920986 0.5224762849732812	0.104146
H	0.1476936888947745 0.3354263141145840 0.5208989889137132	0.121684
H	0.0660057911457909 0.2621941034338913 0.5303140934840151	0.103027
H	0.9323763279256259 0.1144365219640933 0.5305023107404122	0.102852
H	0.8585420356955432 0.0385595465147511 0.5217561502335964	0.106116
H	0.7923796311663386 0.9610637540634501 0.5231767854851244	0.086004
H	0.7159721594626131 0.8911191896921036 0.5224762849732812	0.104141
H	0.6476936788947734 0.8354263141145841 0.5208989889137132	0.121683
H	0.5660058221457894 0.7621940804338929 0.5303140934840151	0.103020
H	0.5676236300743707 0.3855635130359059 0.0305023727404101	0.102849
H	0.6414579233044569 0.4614404364852438 0.0217561502335966	0.106117
H	0.7076203688336614 0.5389361999365461 0.0231768474851225	0.086004
H	0.7840278405373869 0.6088807183078959 0.0224762239732796	0.104146
H	0.8523063211052266 0.6645736398854121 0.0208989889137128	0.121684
H	0.9339941368542107 0.7378059195661071 0.0303140624840160	0.103020
H	0.0676236360743714 0.8855635130359060 0.0305023727404101	0.102849
H	0.1414579643044568 0.9614404364852435 0.0217561502335966	0.106117
H	0.2076203688336612 0.0389362429365461 0.0231768474851225	0.086004
H	0.2840277985373837 0.1088807523078986 0.0224762239732796	0.104141
H	0.3523063211052264 0.1645736628854106 0.0208989889137128	0.121683
H	0.4339941778542099 0.2378058965661089 0.0303140624840160	0.103020
H	0.5676236300743707 0.6144364869640940 -0.0305023297404101	0.102849
H	0.6414579233044569 0.5385596105147569 -0.0217561772336024	0.106116
H	0.7076203688336614 0.4610637540634502 -0.0231768034851190	0.086004
H	0.7840278405373869 0.3911192586920986 -0.0224762779732768	0.104146
H	0.8523063211052266 0.3354263141145840 -0.0208989889137127	0.121683
H	0.9339941368542107 0.2621941034338913 -0.0303141004840192	0.103027
H	0.0676236360743714 0.1144365219640933 -0.0305023297404101	0.102851
H	0.1414579643044568 0.0385595465147511 -0.0217561772336024	0.106116
H	0.2076203688336612 0.9610637540634501 -0.0231768034851190	0.086004
H	0.2840277985373837 0.8911191896921036 -0.0224762779732768	0.104141
H	0.3523063211052264 0.8354263141145841 -0.0208989889137127	0.121683
H	0.4339941778542099 0.7621940804338929 -0.0303141004840192	0.103020
H	0.4323763699256291 0.3855635130359059 0.4694976582595889	0.102849
H	0.3585420766955432 0.4614404364852438 0.4782438807664020	0.106117
H	0.2923796521663368 0.5389361999365461 0.4768231835148763	0.086004
H	0.2159722014626162 0.6088807183078959 0.4775236840267199	0.104146
H	0.1476936888947745 0.6645736398854121 0.4791009800862885	0.121683
H	0.0660057911457909 0.7378059195661071 0.4696859065159848	0.103020
H	0.9323763279256259 0.8855635130359060 0.4694976582595889	0.102850
H	0.8585420356955432 0.9614404364852435 0.4782438807664020	0.106117
H	0.7923796311663386 0.0389362429365461 0.4768231835148763	0.086004
H	0.7159721594626131 0.1088807523078986 0.4775236840267198	0.104141
H	0.6476936788947734 0.1645736628854106 0.4791009800862885	0.121682
H	0.5660058221457894 0.2378058965661089 0.4696859065159848	0.103020
H	0.5676236300743707 0.3855635130359059 0.4694976582595889	0.102849
H	0.6414579233044569 0.4614404364852438 0.4782438807664020	0.106117
H	0.7076203688336614 0.5389361999365461 0.4768231835148763	0.086004
H	0.7840278405373869 0.6088807183078959 0.4775236840267198	0.104145
H	0.8523063211052266 0.6645736398854121 0.4791009800862885	0.121684
H	0.9339941368542107 0.7378059195661071 0.4696859065159848	0.103020
H	0.0676236360743714 0.8855635130359060 0.4694976582595889	0.102849
H	0.1414579643044568 0.9614404364852435 0.4782438807664020	0.106117
H	0.2076203688336612 0.0389362429365461 0.4768231835148763	0.086004
H	0.2840277985373837 0.1088807523078986 0.4775236840267198	0.104141
H	0.3523063211052264 0.1645736628854106 0.4791009800862885	0.121683
H	0.4339941778542099 0.2378058965661089 0.4696859065159848	0.103020
H	0.4323763699256291 0.6144364869640940 -0.0305023297404101	0.102850
H	0.3585420766955432 0.5385596105147569 -0.0217561772336024	0.106117
H	0.2923796521663368 0.4610637540634502 -0.0231768034851190	0.086004
H	0.2159722014626162 0.3911192586920986 -0.0224762779732768	0.104145
H	0.1476936888947745 0.3354263141145840 -0.0208989889137127	0.121684
H	0.0660057911457909 0.2621941034338913 -0.0303141004840192	0.103027
H	0.9323763279256259 0.1144365219640933 -0.0305023297404101	0.102852
H	0.8585420356955432 0.0385595465147511 -0.0217561772336024	0.106116
H	0.7923796311663386 0.9610637540634501 -0.0231768034851190	0.086004
H	0.7159721594626131 0.8911191896921036 -0.0224762779732768	0.104140
H	0.6476936788947734 0.8354263141145841 -0.0208989889137127	0.121683
H	0.5660058221457894 0.7621940804338929 -0.0303141004840192	0.103020
H	0.4323763699256291 0.3855635130359059 0.0305023727404101	0.102850
H	0.3585420766955432 0.4614404364852438 0.0217561502335966	0.106117
H	0.2923796521663368 0.5389361999365461 0.0231768474851225	0.086004
H	0.2159722014626162 0.6088807183078959 0.0224762239732796	0.104145
H	0.1476936888947745 0.6645736398854121 0.0208989889137128	0.121684
H	0.0660057911457909 0.7378059195661071 0.0303140624840160	0.103020
H	0.9323763279256259 0.8855635130359060 0.0305023727404101	0.102850
H	0.8585420356955432 0.9614404364852435 0.0217561502335966	0.106117
H	0.7923796311663386 0.0389362429365461 0.0231768474851225	0.086004
H	0.7159721594626131 0.1088807523078986 0.0224762239732796	0.104141
H	0.6476936788947734 0.1645736628854106 0.0208989889137128	0.121683
H	0.5660058221457894 0.2378058965661089 0.0303140624840160	0.103021
H	0.5676236300743707 0.6144364869640940 0.5305023107404122	0.102850
H	0.6414579233044569 0.5385596105147569 0.5217561502335964	0.106117
H	0.7076203688336614 0.4610637540634502 0.5231767854851244	0.086004
H	0.7840278405373869 0.3911192586920986 0.5224762849732812	0.104145
H	0.8523063211052266 0.3354263141145840 0.5208989889137132	0.121684
H	0.9339941368542107 0.2621941034338913 0.5303140934840151	0.103027
H	0.0676236360743714 0.1144365219640933 0.5305023107404122	0.102851
H	0.1414579643044568 0.0385595465147511 0.5217561502335964	0.106116
H	0.2076203688336612 0.9610637540634501 0.5231767854851244	0.086004
H	0.2840277985373837 0.8911191896921036 0.5224762849732812	0.104141
H	0.3523063211052264 0.8354263141145841 0.5208989889137132	0.121683
H	0.4339941778542099 0.7621940804338929 0.5303140934840151	0.103021
Zn	0.5000000000000000 0.6886812545026789 0.7500000149999977	0.747603
Zn	-0.0000000000000000 0.1886813125026770 0.7500000149999977	0.747579
Zn	0.5000000000000000 0.3113186754973218 0.2500000000000000	0.747603
Zn	-0.0000000000000000 0.8113187454973211 0.2500000000000000	0.747602
F	0.5000000000000000 0.6854564702982160 0.4722157695480868	-0.574058
F	-0.0000000000000000 0.1854565052982155 0.4722157695480868	-0.574044
F	0.5000000000000000 0.3145435067017783 -0.0277842304519133	-0.574058
F	-0.0000000000000000 0.8145435297017840 -0.0277842304519133	-0.574050
F	0.5000000000000000 0.6854564702982160 0.0277842164519122	-0.574058
F	-0.0000000000000000 0.1854565052982155 0.0277842164519122	-0.574044
F	0.5000000000000000 0.3145435067017783 0.5277842004519113	-0.574058
F	-0.0000000000000000 0.8145435297017840 0.5277842004519113	-0.574050
F	0.4402864311844435 0.7511938538905393 0.2500000000000000	-0.580918
F	0.5588774885397597 0.6151962271691936 0.2500000000000000	-0.572752
F	0.9402864311844435 0.2511938538905394 0.2500000000000000	-0.580907
F	0.0588775095397646 0.1151962271691941 0.2500000000000000	-0.572723
F	0.5597135278155566 0.2488061231094623 0.7500000149999977	-0.580918
F	0.4411225114602407 0.3848037728308059 0.7500000149999977	-0.572752
F	0.0597135798155609 0.7488061461094607 0.7500000149999977	-0.580906
F	0.9411225114602403 0.8848037728308064 0.7500000149999977	-0.572746
F	0.5597135278155566 0.7511938538905393 0.2500000000000000	-0.580918
F	0.4411225114602407 0.6151962271691936 0.2500000000000000	-0.572752
F	0.0597135798155609 0.2511938538905394 0.2500000000000000	-0.580907
F	0.9411225114602403 0.1151962271691941 0.2500000000000000	-0.572750
F	0.4402864311844435 0.2488061231094623 0.7500000149999977	-0.580918
F	0.5588774885397597 0.3848037728308059 0.7500000149999977	-0.572752
F	0.9402864311844435 0.7488061461094607 0.7500000149999977	-0.580906
F	0.0588775095397646 0.8848037728308064 0.7500000149999977	-0.572719
N	0.4370240622151639 0.6181774841941592 0.7500000149999977	-0.226652
N	0.5630571096011827 0.7593149705824905 0.7500000149999977	-0.238974
N	0.9370240212151569 0.1181774721941578 0.7500000149999977	-0.226648
N	0.0630570836011805 0.2593149475824851 0.7500000149999977	-0.238972
N	0.5629759377848361 0.3818225158058415 0.2500000000000000	-0.226652
N	0.4369428903988173 0.2406850524175148 0.2500000000000000	-0.238974
N	0.0629759377848363 0.8818225158058408 0.2500000000000000	-0.226651
N	0.9369429313988171 0.7406850294175095 0.2500000000000000	-0.238974
N	0.5629759377848361 0.6181774841941592 0.7500000149999977	-0.226651
N	0.4369428903988173 0.7593149705824905 0.7500000149999977	-0.238974
N	0.0629759377848363 0.1181774721941578 0.7500000149999977	-0.226648
N	0.9369429313988171 0.2593149475824851 0.7500000149999977	-0.238972
N	0.4370240622151639 0.3818225158058415 0.2500000000000000	-0.226651
N	0.5630571096011827 0.2406850524175148 0.2500000000000000	-0.238974
N	0.9370240212151569 0.8818225158058408 0.2500000000000000	-0.226651
N	0.0630570836011805 0.7406850294175095 0.2500000000000000	-0.238974
Sn	0.5000000000000000 0.6837602609827896 0.2500000000000000	1.866809
Sn	-0.0000000000000000 0.1837602849827914 0.2500000000000000	1.866733
Sn	0.5000000000000000 0.3162396920172101 0.7500000149999977	1.866809
Sn	-0.0000000000000000 0.8162397390172104 0.7500000149999977	1.866733
	  	
