#======================================================================

# CRYSTAL DATA

#----------------------------------------------------------------------

data_VESTA_phase_1


_pd_phase_name                         TIFSIX_18_Cd
_cell_length_a                         14.72926
_cell_length_b                         14.02088
_cell_length_c                         8.34475
_cell_angle_alpha                      90
_cell_angle_beta                       96.03541
_cell_angle_gamma                      90
_symmetry_space_group_name_H-M         P 1
_symmetry_Int_Tables_number            1

loop_
_symmetry_equiv_pos_as_xyz
   x, y, z

loop_
   _atom_site_label
   _atom_site_fract_x
   _atom_site_fract_y
   _atom_site_fract_z
   _atom_site_charge
F	0.4132429159089198 0.3696631006717082 0.5122167987279534	-0.635143
F	0.5241701081687221 0.4739359167778913 0.7306697870155894	-0.627230
F	0.4071010166327019 0.5610112198647524 0.5168311699725888	-0.626554
F	0.9132429499089160 0.8696630316717064 0.5122167987279534	-0.635145
F	0.0241701341687172 0.9739358817778923 0.7306697870155894	-0.627230
F	0.9071010506327051 0.0610111858647579 0.5168311699725888	-0.626551
F	0.5867570470910802 0.3696631006717082 0.4877832012720469	-0.635144
F	0.4758298888312811 0.4739359167778913 0.2693302129844108	-0.627230
F	0.5928989793672975 0.5610112198647524 0.4831688310274143	-0.626554
F	0.0867570680910789 0.8696630316717064 0.4877832012720469	-0.635145
F	0.9758297538312807 0.9739358817778923 0.2693302129844108	-0.627230
F	0.0928989543672992 0.0610111858647579 0.4831688310274143	-0.626551
C	0.6806368939760465 0.1622352200513363 0.6544786733619961	-0.424698
C	0.7531366823354073 0.1589890231199467 0.7927348544007798	0.209591
C	0.7550681410165878 0.1970548082873369 0.9485172684188790	-0.151333
C	0.6865883744199552 0.2582425683040629 0.0112089760427146	-0.144059
C	0.6730742273013040 0.3566172878430042 0.9757485198820992	0.219278
C	0.7246331791355488 0.4186107774395132 0.8716448851358858	-0.427989
C	0.8810771400338425 0.1963622090602270 0.1944642603778284	-0.435109
C	0.8418638692397112 0.1727045817165795 0.0272476721149393	0.210563
C	0.6251552674166413 0.2362514949842599 0.1232229578366651	0.208125
C	0.6063251068093032 0.1455887099256558 0.2065799769850563	-0.425074
C	0.1806369439760437 0.6622352720513331 0.6544786733619961	-0.424673
C	0.2531367163354096 0.6589890061199422 0.7927348544007800	0.209510
C	0.2550681070165849 0.6970547742873340 0.9485172684188790	-0.151314
C	0.1865883744199556 0.7582425853040609 0.0112089760427146	-0.144070
C	0.1730742103012992 0.8566173218430080 0.9757485198820992	0.219318
C	0.2246331951355430 0.9186107424395141 0.8716448851358858	-0.427997
C	0.3810770390338378 0.6963621230602268 0.1944642603778284	-0.435109
C	0.3418639372397093 0.6727045817165797 0.0272476721149393	0.210558
C	0.1251552424166430 0.7362514089842597 0.1232229578366651	0.208128
C	0.1063251908093032 0.6455887789256572 0.2065799769850563	-0.425069
C	0.3193631030239565 0.1622352200513363 0.3455213276380072	-0.424697
C	0.2468633106645887 0.1589890231199467 0.2072650655992208	0.209591
C	0.2449318879834110 0.1970548082873369 0.0514827075811259	-0.151329
C	0.3134116215800439 0.2582425683040629 0.9887910149572877	-0.144078
C	0.3269258386987016 0.3566172878430042 0.0242515311179014	0.219317
C	0.2753668358644559 0.4186107774395132 0.1283551308641159	-0.427988
C	0.1189229429661608 0.1963622090602270 0.8055357876221755	-0.435111
C	0.1581361097602909 0.1727045817165795 0.9727523158850597	0.210563
C	0.3748447635833576 0.2362514949842599 0.8767770661633296	0.208129
C	0.3936748191906979 0.1455887099256558 0.7934199440149478	-0.425066
C	0.8193631030239568 0.6622352720513331 0.3455213276380072	-0.424672
C	0.7468633106645886 0.6589890061199422 0.2072650655992208	0.209510
C	0.7449318539834153 0.6970547742873340 0.0514827075811259	-0.151311
C	0.8134116215800444 0.7582425853040609 0.9887910149572877	-0.144070
C	0.8269257716986995 0.8566173218430080 0.0242515311179014	0.219277
C	0.7753668188644510 0.9186107424395141 0.1283551308641159	-0.427980
C	0.6189228589661609 0.6963621230602268 0.8055357876221755	-0.435110
C	0.6581361267602884 0.6727045817165797 0.9727523158850597	0.210558
C	0.8748447295833549 0.7362514089842597 0.8767770661633296	0.208124
C	0.8936748861906998 0.6455887789256572 0.7934199440149478	-0.425066
H	0.7090528751999420 0.1785743371205763 0.5412614447852714	0.149440
H	0.6305676893311022 0.2178005543979642 0.6736588035524362	0.148699
H	0.6448759223065770 0.0933458666569734 0.6388518902080705	0.132401
H	0.6787856865628301 0.4547893535525108 0.7788863625142726	0.146769
H	0.7732881632671066 0.3756640608358037 0.8114906763319452	0.138557
H	0.7626459561699988 0.4735868456087193 0.9452409622390506	0.128684
H	0.8600308222348974 0.0863477776278983 0.6849012570706918	0.291684
H	0.8784099738192075 0.1357770707368822 0.2774611067128799	0.150147
H	0.8429100999535742 0.2555736980136303 0.2416773758500884	0.137940
H	0.9531427697989969 0.2170901230879346 0.1966393213740538	0.139703
H	0.5847795951885614 0.1593908209507405 0.3263935754025947	0.144721
H	0.6674982601518994 0.1004934970698536 0.2205782457645315	0.149923
H	0.5515524850186716 0.1047813684219301 0.1375537636366040	0.132474
H	0.5376749067922632 0.3324684437919757 0.2326322567776221	0.276839
H	0.2090529261999423 0.6785742341205784 0.5412614447852714	0.149438
H	0.1305677733311023 0.7178004853979617 0.6736588035524362	0.148691
H	0.1448759723065738 0.5933458066569688 0.6388518902080705	0.132400
H	0.1787857035628282 0.9547892855525050 0.7788863625142726	0.146769
H	0.2732881972671098 0.8756640948358071 0.8114906763319452	0.138557
H	0.2626459891699981 0.9735868456087199 0.9452409622390506	0.128685
H	0.3600307882349017 0.5863478206278984 0.6849012570706918	0.291707
H	0.3784100408192095 0.6357770367368792 0.2774611067128799	0.150147
H	0.3429100319535761 0.7555737330136294 0.2416773758500884	0.137940
H	0.4531428367989916 0.7170901740879284 0.1966393213740538	0.139703
H	0.0847795871885616 0.6593908379507381 0.3263935754025947	0.144719
H	0.1674982261518968 0.6004934540698535 0.2205782457645315	0.149922
H	0.0515525210186748 0.6047813164219333 0.1375537636366040	0.132473
H	0.0376748917922654 0.8324684437919759 0.2326322567776221	0.276839
H	0.2909470558000633 0.1785743371205763 0.4587385872147238	0.149440
H	0.3694322096688928 0.2178005543979642 0.3263412614475650	0.148696
H	0.3551240066934278 0.0933458666569734 0.3611481097919294	0.132402
H	0.3212143084371731 0.4547893535525108 0.2211136054857319	0.146769
H	0.2267118317328892 0.3756640608358037 0.1885092916680522	0.138558
H	0.2373540398300077 0.4735868456087193 0.0547590107609506	0.128682
H	0.1399691787650990 0.0863477776278983 0.3150986479293041	0.291685
H	0.1215899491807896 0.1357770707368822 0.7225389252871224	0.150147
H	0.1570899640464236 0.2555736980136303 0.7583226241499114	0.137942
H	0.0468571592010079 0.2170901230879346 0.8033607106259413	0.139707
H	0.4152204348114399 0.1593908209507405 0.6736064245974058	0.144716
H	0.3325018018481050 0.1004934970698536 0.7794217062354646	0.149921
H	0.4484474799813287 0.1047813684219301 0.8624462763633987	0.132468
H	0.4623250542077375 0.3324684437919757 0.7673676962223770	0.276838
H	0.7909471228000579 0.6785742341205784 0.4587385872147238	0.149438
H	0.8694323106688978 0.7178004853979617 0.3263412614475650	0.148689
H	0.8551240066934278 0.5933458066569688 0.3611481097919294	0.132401
H	0.8212143084371730 0.9547892855525050 0.2211136054857319	0.146768
H	0.7267118317328894 0.8756640948358071 0.1885092916680522	0.138558
H	0.7373540398300080 0.9735868456087199 0.0547590107609506	0.128681
H	0.6399691697651020 0.5863478206278984 0.3150986479293041	0.291707
H	0.6215900581807881 0.6357770367368792 0.7225389252871224	0.150148
H	0.6570898970464220 0.7555737330136294 0.7583226241499114	0.137942
H	0.5468571952010037 0.7170901740879284 0.8033607106259413	0.139707
H	0.9152203678114391 0.6593908379507381 0.6736064245974059	0.144716
H	0.8325017348481037 0.6004934540698535 0.7794217062354646	0.149921
H	0.9484474799813291 0.6047813164219333 0.8624462763633987	0.132469
H	0.9623250202077415 0.8324684437919759 0.7673676962223770	0.276838
N	0.8339940975724198 0.1145905501488486 0.7855505976980193	-0.147554
N	0.6071094895428312 0.3914708816743788 0.0589287945793634	-0.257948
N	0.8890820070355645 0.1229276380918029 0.9257175430573592	-0.266675
N	0.5789402023728503 0.3175437336532093 0.1454786623301349	-0.142550
N	0.3339940975724201 0.6145904731488525 0.7855505976980193	-0.147511
N	0.1071095565428334 0.8914708816743790 0.0589287945793634	-0.257967
N	0.3890820410355671 0.6229276890918030 0.9257175430573592	-0.266683
N	0.0789401943728495 0.8175436986532106 0.1454786623301349	-0.142560
N	0.1660058844275785 0.1145905501488486 0.2144494503019773	-0.147554
N	0.3928904044571669 0.3914708816743788 0.9410711814206347	-0.257969
N	0.1109179629644331 0.1229276380918029 0.0742824369426388	-0.266674
N	0.4210597946271533 0.3175437336532093 0.8545213536698665	-0.142560
N	0.6660059014275765 0.6145904731488525 0.2144494503019773	-0.147512
N	0.8928905054571720 0.8914708816743790 0.9410711814206347	-0.257949
N	0.6109179879644386 0.6229276890918030 0.0742824369426388	-0.266683
N	0.9210598286271487 0.8175436986532106 0.8545213536698665	-0.142550
Ti	0.4999999979999998 0.4667299279619371 0.5000000000000000	2.310616
Ti	0.0000000000000000 0.9667299279619371 0.5000000000000000	2.310615
Cd	0.5000000000000000 0.5130231660622534 -0.0000000000000000	0.882142
Cd	0.0000000000000000 0.0130231730622569 -0.0000000000000000	0.882142
	  	
