#======================================================================

# CRYSTAL DATA

#----------------------------------------------------------------------

data_VESTA_phase_1


_pd_phase_name                         TIFSIX_6_Ni_i
_cell_length_a                         17.68783
_cell_length_b                         17.68783
_cell_length_c                         15.44693
_cell_angle_alpha                      90
_cell_angle_beta                       90
_cell_angle_gamma                      90
_symmetry_space_group_name_H-M         P 1
_symmetry_Int_Tables_number            1

loop_
_symmetry_equiv_pos_as_xyz
   x, y, z

loop_
   _atom_site_label
   _atom_site_fract_x
   _atom_site_fract_y
   _atom_site_fract_z
   _atom_site_charge
N	0.2439352762034323 0.1320758608020038 0.1280325732588600	-0.242900
N	0.2560647237965677 0.3679241531979975 0.1280325732588600	-0.242899
N	0.3679241531979975 0.2439352762034323 0.1280325732588600	-0.242900
N	0.1320758608020038 0.2560647237965677 0.1280325732588600	-0.242900
N	0.7560646967965691 0.6320758738020086 0.3719674117411424	-0.242900
N	0.7439353032034309 0.8679241261979914 0.3719674117411424	-0.242899
N	0.6320758738020086 0.7439353032034309 0.3719674117411424	-0.242899
N	0.8679241261979914 0.7560646967965691 0.3719674117411424	-0.242900
N	0.7560646967965691 0.8679241261979914 0.8719674117411422	-0.242900
N	0.7439353032034309 0.6320758738020086 0.8719674117411422	-0.242901
N	0.6320758738020086 0.7560646967965691 0.8719674117411422	-0.242900
N	0.8679241261979914 0.7439353032034309 0.8719674117411422	-0.242900
N	0.2439352762034323 0.3679241531979975 0.6280325882588578	-0.242900
N	0.2560647237965677 0.1320758608020038 0.6280325882588578	-0.242901
N	0.3679241531979975 0.2560647237965677 0.6280325882588578	-0.242901
N	0.1320758608020038 0.2439352762034323 0.6280325882588578	-0.242900
C	0.2004409354238318 0.0956602447819231 0.1861445892494265	0.104558
C	0.1921632512884701 0.0175797622448661 0.1856200535172937	-0.180039
C	0.2324217922200318 0.9743554139118378 0.1250962877105681	0.112127
C	0.2789258473597978 0.0129117366783312 0.0663287520220746	-0.177987
C	0.2821138229294315 0.0913537755965563 0.0688048225037539	0.106240
C	0.2264101685291895 0.8913451603814619 0.1237911089222762	0.059891
C	0.2910305213404141 0.8472237109631012 0.1208852815515290	-0.172396
C	0.2865567250206086 0.7675516479438415 0.1220087342160312	0.085381
C	0.1478401887970036 0.7786210557874187 0.1246484104666476	-0.122951
C	0.1541929889329913 0.8560829687456158 0.1268080460843540	-0.137250
C	0.2995590245761720 0.4043397682180744 0.1861445892494265	0.104557
C	0.3078367087115268 0.4824202187551359 0.1856200535172937	-0.180035
C	0.2675782077799680 0.5256445860881622 0.1250962877105681	0.112110
C	0.2210741656401998 0.4870882603216650 0.0663287520220746	-0.177985
C	0.2178861910705694 0.4086462314034478 0.0688048225037539	0.106238
C	0.2735898314708104 0.6086548396185381 0.1237911089222762	0.059964
C	0.2089695196595859 0.6527762890368988 0.1208852815515290	-0.172421
C	0.2134432479793927 0.7324483520561585 0.1220087342160312	0.085367
C	0.3521597972029953 0.7213789442125813 0.1246484104666476	-0.122944
C	0.3458070110670087 0.6439170312543842 0.1268080460843540	-0.137262
C	0.4043397682180744 0.2004409354238318 0.1861445892494265	0.104557
C	0.4824202187551359 0.1921632512884701 0.1856200535172937	-0.180038
C	0.5256445860881622 0.2324217922200318 0.1250962877105681	0.112127
C	0.4870882603216650 0.2789258473597978 0.0663287520220746	-0.177986
C	0.4086462314034478 0.2821138229294315 0.0688048225037539	0.106238
C	0.6086548396185381 0.2264101685291895 0.1237911089222762	0.059892
C	0.6527762890368988 0.2910305213404141 0.1208852815515290	-0.172395
C	0.7324483520561585 0.2865567250206086 0.1220087342160312	0.085381
C	0.7213789442125813 0.1478401887970036 0.1246484104666476	-0.122951
C	0.6439170312543842 0.1541929889329913 0.1268080460843540	-0.137249
C	0.0956602447819231 0.2995590245761720 0.1861445892494265	0.104557
C	0.0175797622448661 0.3078367087115268 0.1856200535172937	-0.180035
C	0.9743554139118378 0.2675782077799680 0.1250962877105681	0.112110
C	0.0129117366783312 0.2210741656401998 0.0663287520220746	-0.177985
C	0.0913537755965563 0.2178861910705694 0.0688048225037539	0.106239
C	0.8913451603814619 0.2735898314708104 0.1237911089222762	0.059964
C	0.8472237109631012 0.2089695196595859 0.1208852815515290	-0.172422
C	0.7675516479438415 0.2134432479793927 0.1220087342160312	0.085367
C	0.7786210557874187 0.3521597972029953 0.1246484104666476	-0.122945
C	0.8560829687456158 0.3458070110670087 0.1268080460843540	-0.137263
C	0.7995590775761657 0.5956602317819256 0.3138554267505748	0.104559
C	0.8078367617115274 0.5175797272448597 0.3143799154827074	-0.180035
C	0.7675782077799681 0.4743554139118377 0.3749036802894292	0.112109
C	0.7210741256402038 0.5129117936783325 0.4336712519779258	-0.177985
C	0.7178861510705662 0.5913538225965567 0.4311952174962423	0.106239
C	0.7735899114708101 0.3913452133814627 0.3762088830777230	0.059964
C	0.7089695056595847 0.3472236579631003 0.3791147104484704	-0.172421
C	0.7134432749793915 0.2675515679438421 0.3779912657839689	0.085362
C	0.8521598242030010 0.2786210287874199 0.3753515735333511	-0.122948
C	0.8458069580670079 0.3560829427456140 0.3731919859156487	-0.137261
C	0.7004409224238343 0.9043397682180744 0.3138554267505748	0.104556
C	0.6921632382884726 0.9824202187551359 0.3143799154827074	-0.180036
C	0.7324217922200319 0.0256445920881629 0.3749036802894292	0.112111
C	0.7789258743597962 0.9870882603216649 0.4336712519779258	-0.177984
C	0.7821138489294338 0.9086462844034486 0.4311952174962423	0.106238
C	0.7264100885291899 0.1086548136185360 0.3762088830777230	0.059965
C	0.7910304943404153 0.1527763290368949 0.3791147104484704	-0.172422
C	0.7865567250206085 0.2324484050561591 0.3779912657839689	0.085373
C	0.6478401757969990 0.2213789582125825 0.3753515735333511	-0.122940
C	0.6541930419329921 0.1439170312543840 0.3731919859156487	-0.137261
C	0.5956602317819256 0.7004409224238343 0.3138554267505748	0.104558
C	0.5175797272448597 0.6921632382884726 0.3143799154827074	-0.180036
C	0.4743554139118377 0.7324217922200319 0.3749036802894292	0.112110
C	0.5129117936783325 0.7789258743597962 0.4336712519779258	-0.177983
C	0.5913538225965567 0.7821138489294338 0.4311952174962423	0.106238
C	0.3913452133814627 0.7264100885291899 0.3762088830777230	0.059964
C	0.3472236579631003 0.7910304943404153 0.3791147104484704	-0.172422
C	0.2675515679438421 0.7865567250206085 0.3779912657839689	0.085361
C	0.2786210287874199 0.6478401757969990 0.3753515735333511	-0.122948
C	0.3560829427456140 0.6541930419329921 0.3731919859156487	-0.137262
C	0.9043397682180744 0.7995590775761657 0.3138554267505748	0.104556
C	0.9824202187551359 0.8078367617115274 0.3143799154827074	-0.180034
C	0.0256445920881629 0.7675782077799681 0.3749036802894292	0.112109
C	0.9870882603216649 0.7210741256402038 0.4336712519779258	-0.177984
C	0.9086462844034486 0.7178861510705662 0.4311952174962423	0.106238
C	0.1086548136185360 0.7735899114708101 0.3762088830777230	0.059965
C	0.1527763290368949 0.7089695056595847 0.3791147104484704	-0.172422
C	0.2324484050561591 0.7134432749793915 0.3779912657839689	0.085373
C	0.2213789582125825 0.8521598242030010 0.3753515735333511	-0.122940
C	0.1439170312543840 0.8458069580670079 0.3731919859156487	-0.137262
C	0.7995590775761657 0.9043397682180744 0.8138553947505723	0.104557
C	0.8078367617115274 0.9824202187551359 0.8143799784827090	-0.180035
C	0.7675782077799681 0.0256445920881629 0.8749037442894275	0.112110
C	0.7210741256402038 0.9870882603216649 0.9336712209779269	-0.177985
C	0.7178861510705662 0.9086462844034486 0.9311951854962394	0.106237
C	0.7735899114708101 0.1086548136185360 0.8762088830777234	0.059959
C	0.7089695056595847 0.1527763290368949 0.8791147424484734	-0.172405
C	0.7134432749793915 0.2324484050561591 0.8779912977839641	0.085358
C	0.8521598242030010 0.2213789582125825 0.8753516365333525	-0.122948
C	0.8458069580670079 0.1439170312543840 0.8731920179156443	-0.137260
C	0.7004409224238343 0.5956602317819256 0.8138553947505723	0.104558
C	0.6921632382884726 0.5175797272448597 0.8143799784827090	-0.180036
C	0.7324217922200319 0.4743554139118377 0.8749037442894275	0.112109
C	0.7789258743597962 0.5129117936783325 0.9336712209779269	-0.177984
C	0.7821138489294338 0.5913538225965567 0.9311951854962394	0.106239
C	0.7264100885291899 0.3913452133814627 0.8762088830777234	0.059960
C	0.7910304943404153 0.3472236579631003 0.8791147424484734	-0.172408
C	0.7865567250206085 0.2675515679438421 0.8779912977839641	0.085369
C	0.6478401757969990 0.2786210287874199 0.8753516365333525	-0.122939
C	0.6541930419329921 0.3560829427456140 0.8731920179156443	-0.137262
C	0.5956602317819256 0.7995590775761657 0.8138553947505723	0.104557
C	0.5175797272448597 0.8078367617115274 0.8143799784827090	-0.180034
C	0.4743554139118377 0.7675782077799681 0.8749037442894275	0.112110
C	0.5129117936783325 0.7210741256402038 0.9336712209779269	-0.177984
C	0.5913538225965567 0.7178861510705662 0.9311951854962394	0.106238
C	0.3913452133814627 0.7735899114708101 0.8762088830777234	0.059959
C	0.3472236579631003 0.7089695056595847 0.8791147424484734	-0.172407
C	0.2675515679438421 0.7134432749793915 0.8779912977839641	0.085358
C	0.2786210287874199 0.8521598242030010 0.8753516365333525	-0.122948
C	0.3560829427456140 0.8458069580670079 0.8731920179156443	-0.137262
C	0.9043397682180744 0.7004409224238343 0.8138553947505723	0.104557
C	0.9824202187551359 0.6921632382884726 0.8143799784827090	-0.180035
C	0.0256445920881629 0.7324217922200319 0.8749037442894275	0.112109
C	0.9870882603216649 0.7789258743597962 0.9336712209779269	-0.177983
C	0.9086462844034486 0.7821138489294338 0.9311951854962394	0.106237
C	0.1086548136185360 0.7264100885291899 0.8762088830777234	0.059960
C	0.1527763290368949 0.7910304943404153 0.8791147424484734	-0.172406
C	0.2324484050561591 0.7865567250206085 0.8779912977839641	0.085370
C	0.2213789582125825 0.6478401757969990 0.8753516365333525	-0.122939
C	0.1439170312543840 0.6541930419329921 0.8731920179156443	-0.137262
C	0.2004409354238318 0.4043397682180744 0.6861446052494277	0.104556
C	0.1921632512884701 0.4824202187551359 0.6856200215172910	-0.180038
C	0.2324217922200318 0.5256445860881622 0.6250962557105725	0.112128
C	0.2789258473597978 0.4870882603216650 0.5663287790220731	-0.177987
C	0.2821138229294315 0.4086462314034478 0.5688048145037606	0.106238
C	0.2264101685291895 0.6086548396185381 0.6237911169222766	0.059887
C	0.2910305213404141 0.6527762890368988 0.6208852575515266	-0.172379
C	0.2865567250206086 0.7324483520561585 0.6220087022160359	0.085378
C	0.1478401887970036 0.7213789442125813 0.6246483634666475	-0.122949
C	0.1541929889329913 0.6439170312543842 0.6268079820843557	-0.137247
C	0.2995590245761720 0.0956602447819231 0.6861446052494277	0.104558
C	0.3078367087115268 0.0175797622448661 0.6856200215172910	-0.180035
C	0.2675782077799680 0.9743554139118378 0.6250962557105725	0.112109
C	0.2210741656401998 0.0129117366783312 0.5663287790220731	-0.177985
C	0.2178861910705694 0.0913537755965563 0.5688048145037606	0.106239
C	0.2735898314708104 0.8913451603814619 0.6237911169222766	0.059960
C	0.2089695196595859 0.8472237109631012 0.6208852575515266	-0.172406
C	0.2134432479793927 0.7675516479438415 0.6220087022160359	0.085364
C	0.3521597972029953 0.7786210557874187 0.6246483634666475	-0.122941
C	0.3458070110670087 0.8560829687456158 0.6268079820843557	-0.137262
C	0.4043397682180744 0.2995590245761720 0.6861446052494277	0.104556
C	0.4824202187551359 0.3078367087115268 0.6856200215172910	-0.180034
C	0.5256445860881622 0.2675782077799680 0.6250962557105725	0.112109
C	0.4870882603216650 0.2210741656401998 0.5663287790220731	-0.177984
C	0.4086462314034478 0.2178861910705694 0.5688048145037606	0.106238
C	0.6086548396185381 0.2735898314708104 0.6237911169222766	0.059960
C	0.6527762890368988 0.2089695196595859 0.6208852575515266	-0.172405
C	0.7324483520561585 0.2134432479793927 0.6220087022160359	0.085353
C	0.7213789442125813 0.3521597972029953 0.6246483634666475	-0.122949
C	0.6439170312543842 0.3458070110670087 0.6268079820843557	-0.137260
C	0.0956602447819231 0.2004409354238318 0.6861446052494277	0.104558
C	0.0175797622448661 0.1921632512884701 0.6856200215172910	-0.180039
C	0.9743554139118378 0.2324217922200318 0.6250962557105725	0.112128
C	0.0129117366783312 0.2789258473597978 0.5663287790220731	-0.177987
C	0.0913537755965563 0.2821138229294315 0.5688048145037606	0.106238
C	0.8913451603814619 0.2264101685291895 0.6237911169222766	0.059887
C	0.8472237109631012 0.2910305213404141 0.6208852575515266	-0.172380
C	0.7675516479438415 0.2865567250206086 0.6220087022160359	0.085389
C	0.7786210557874187 0.1478401887970036 0.6246483634666475	-0.122940
C	0.8560829687456158 0.1541929889329913 0.6268079820843557	-0.137251
H	0.1726013696431963 0.1305726076576083 0.2348516912915855	0.101886
H	0.1563563805520301 0.9902193436057465 0.2336933933686281	0.113783
H	0.3106271202327525 0.9819113081515628 0.0173817443223561	0.114669
H	0.3149862516576106 0.1232327084453222 0.0215121561356701	0.100733
H	0.3466466724431432 0.8739574117066473 0.1202654892013850	0.107565
H	0.0923347171039500 0.7516115506538252 0.1253488434602278	0.108766
H	0.1038013858493519 0.8916372050953254 0.1288892107873263	0.100853
H	0.3273986033568049 0.3694274193423975 0.2348516912915855	0.101885
H	0.3436436594479662 0.5097806563942535 0.2336933933686281	0.113782
H	0.1893728927672449 0.5180886918484372 0.0173817443223561	0.114670
H	0.1850137483423895 0.3767672915546778 0.0215121561356701	0.100733
H	0.1533533415568580 0.6260425882933527 0.1202654892013850	0.107549
H	0.4076652758960458 0.7483884493461748 0.1253488434602278	0.108765
H	0.3961986271506527 0.6083627949046746 0.1288892107873263	0.100854
H	0.3694274193423975 0.1726013696431964 0.2348516912915855	0.101885
H	0.5097806563942535 0.1563563805520301 0.2336933933686281	0.113784
H	0.5180886918484372 0.3106271202327525 0.0173817443223561	0.114670
H	0.3767672915546778 0.3149862516576106 0.0215121561356701	0.100732
H	0.6260425882933527 0.3466466724431432 0.1202654892013850	0.107567
H	0.7483884493461748 0.0923347171039500 0.1253488434602278	0.108765
H	0.6083627949046746 0.1038013858493519 0.1288892107873263	0.100855
H	0.1305726076576083 0.3273986033568049 0.2348516912915855	0.101886
H	0.9902193436057465 0.3436436594479662 0.2336933933686281	0.113782
H	0.9819113081515628 0.1893728927672449 0.0173817443223561	0.114670
H	0.1232327084453222 0.1850137483423895 0.0215121561356701	0.100733
H	0.8739574117066473 0.1533533415568580 0.1202654892013850	0.107550
H	0.7516115506538252 0.4076652758960458 0.1253488434602278	0.108765
H	0.8916372050953254 0.3961986271506527 0.1288892107873263	0.100856
H	0.8273986033568049 0.6305726346576069 0.2651483247084160	0.101886
H	0.8436435784479702 0.4902193976057441 0.2663066066313718	0.113783
H	0.6893728797672473 0.4819113081515630 0.4826182576776443	0.114669
H	0.6850138013423903 0.6232327354453212 0.4784878418643297	0.100733
H	0.6533533275568568 0.3739573577066497 0.3797345187986159	0.107550
H	0.9076652228960451 0.2516115776538240 0.3746511485397716	0.108766
H	0.8961986001506543 0.3916372310953201 0.3711107972126744	0.100856
H	0.6726013966431951 0.8694273653423931 0.2651483247084160	0.101885
H	0.6563564215520298 0.0097806183942502 0.2663066066313718	0.113783
H	0.8106271202327527 0.0180886908484334 0.4826182576776443	0.114669
H	0.8149861986576097 0.8767672645546788 0.4784878418643297	0.100732
H	0.8466466724431432 0.1260426552933549 0.3797345187986159	0.107551
H	0.5923347241039540 0.2483883953461704 0.3746511485397716	0.108762
H	0.6038013998493457 0.1083627819046774 0.3711107972126744	0.100853
H	0.6305726346576069 0.6726013966431951 0.2651483247084160	0.101886
H	0.4902193976057441 0.6563564215520298 0.2663066066313718	0.113784
H	0.4819113081515630 0.8106271202327527 0.4826182576776443	0.114669
H	0.6232327354453212 0.8149861986576097 0.4784878418643297	0.100733
H	0.3739573577066497 0.8466466724431432 0.3797345187986159	0.107552
H	0.2516115776538240 0.5923347241039540 0.3746511485397716	0.108764
H	0.3916372310953201 0.6038013998493457 0.3711107972126744	0.100855
H	0.8694273653423931 0.8273986033568049 0.2651483247084160	0.101885
H	0.0097806183942502 0.8436435784479702 0.2663066066313718	0.113783
H	0.0180886908484334 0.6893728797672473 0.4826182576776443	0.114670
H	0.8767672645546788 0.6850138013423903 0.4784878418643297	0.100732
H	0.1260426552933549 0.6533533275568568 0.3797345187986159	0.107551
H	0.2483883953461704 0.9076652228960451 0.3746511485397716	0.108764
H	0.1083627819046774 0.8961986001506543 0.3711107972126744	0.100857
H	0.8273986033568049 0.8694273653423931 0.7651482937084167	0.101885
H	0.8436435784479702 0.0097806183942502 0.7663066216313764	0.113782
H	0.6893728797672473 0.0180886908484334 0.9826182886776428	0.114668
H	0.6850138013423903 0.8767672645546788 0.9784877778643313	0.100733
H	0.6533533275568568 0.1260426552933549 0.8797344867986132	0.107543
H	0.9076652228960451 0.2483883953461704 0.8746510855397699	0.108765
H	0.8961986001506543 0.1083627819046774 0.8711107652126717	0.100855
H	0.6726013966431951 0.6305726346576069 0.7651482937084167	0.101886
H	0.6563564215520298 0.4902193976057441 0.7663066216313764	0.113783
H	0.8106271202327527 0.4819113081515630 0.9826182886776428	0.114668
H	0.8149861986576097 0.6232327354453212 0.9784877778643313	0.100733
H	0.8466466724431432 0.3739573577066497 0.8797344867986132	0.107543
H	0.5923347241039540 0.2516115776538240 0.8746510855397699	0.108762
H	0.6038013998493457 0.3916372310953201 0.8711107652126717	0.100855
H	0.6305726346576069 0.8273986033568049 0.7651482937084167	0.101886
H	0.4902193976057441 0.8436435784479702 0.7663066216313764	0.113782
H	0.4819113081515630 0.6893728797672473 0.9826182886776428	0.114669
H	0.6232327354453212 0.6850138013423903 0.9784877778643313	0.100733
H	0.3739573577066497 0.6533533275568568 0.8797344867986132	0.107544
H	0.2516115776538240 0.9076652228960451 0.8746510855397699	0.108765
H	0.3916372310953201 0.8961986001506543 0.8711107652126717	0.100857
H	0.8694273653423931 0.6726013966431951 0.7651482937084167	0.101885
H	0.0097806183942502 0.6563564215520298 0.7663066216313764	0.113784
H	0.0180886908484334 0.8106271202327527 0.9826182886776428	0.114669
H	0.8767672645546788 0.8149861986576097 0.9784877778643313	0.100733
H	0.1260426552933549 0.8466466724431432 0.8797344867986132	0.107544
H	0.2483883953461704 0.5923347241039540 0.8746510855397699	0.108761
H	0.1083627819046774 0.6038013998493457 0.8711107652126717	0.100857
H	0.1726013696431963 0.3694274193423975 0.7348517062915833	0.101885
H	0.1563563805520301 0.5097806563942535 0.7336933783686236	0.113783
H	0.3106271202327525 0.5180886918484372 0.5173817423223562	0.114668
H	0.3149862516576106 0.3767672915546778 0.5215121581356705	0.100733
H	0.3466466724431432 0.6260425882933527 0.6202655132013868	0.107561
H	0.0923347171039500 0.7483884493461748 0.6253489144602301	0.108763
H	0.1038013858493519 0.6083627949046746 0.6288892347873283	0.100853
H	0.3273986033568049 0.1305726076576083 0.7348517062915833	0.101886
H	0.3436436594479662 0.9902193436057465 0.7336933783686236	0.113783
H	0.1893728927672449 0.9819113081515628 0.5173817423223562	0.114668
H	0.1850137483423895 0.1232327084453222 0.5215121581356705	0.100733
H	0.1533533415568580 0.8739574117066473 0.6202655132013868	0.107543
H	0.4076652758960458 0.7516115506538252 0.6253489144602301	0.108762
H	0.3961986271506527 0.8916372050953254 0.6288892347873283	0.100857
H	0.3694274193423975 0.3273986033568049 0.7348517062915833	0.101885
H	0.5097806563942535 0.3436436594479662 0.7336933783686236	0.113783
H	0.5180886918484372 0.1893728927672449 0.5173817423223562	0.114670
H	0.3767672915546778 0.1850137483423895 0.5215121581356705	0.100733
H	0.6260425882933527 0.1533533415568580 0.6202655132013868	0.107546
H	0.7483884493461748 0.4076652758960458 0.6253489144602301	0.108764
H	0.6083627949046746 0.3961986271506527 0.6288892347873283	0.100857
H	0.1305726076576083 0.1726013696431964 0.7348517062915833	0.101886
H	0.9902193436057465 0.1563563805520301 0.7336933783686236	0.113784
H	0.9819113081515628 0.3106271202327525 0.5173817423223562	0.114668
H	0.1232327084453222 0.3149862516576106 0.5215121581356705	0.100734
H	0.8739574117066473 0.3466466724431432 0.6202655132013868	0.107560
H	0.7516115506538252 0.0923347171039500 0.6253489144602301	0.108761
H	0.8916372050953254 0.1038013858493519 0.6288892347873283	0.100855
F	0.3099429597164416 0.1612135618782173 0.3783147212282748	-0.657128
F	0.1900570672835570 0.3387864381217826 0.3783147212282748	-0.657127
F	0.3387864381217826 0.3099429597164416 0.3783147212282748	-0.657127
F	0.1612135618782173 0.1900570672835570 0.3783147212282748	-0.657128
F	0.6900570402835584 0.6612135078782198 0.1216852787717252	-0.657128
F	0.8099429597164416 0.8387864921217802 0.1216852787717252	-0.657127
F	0.6612135078782198 0.8099429597164416 0.1216852787717252	-0.657127
F	0.8387864921217802 0.6900570402835584 0.1216852787717252	-0.657129
F	0.6900570402835584 0.8387864921217802 0.6216852467717224	-0.657127
F	0.8099429597164416 0.6612135078782198 0.6216852467717224	-0.657128
F	0.6612135078782198 0.6900570402835584 0.6216852467717224	-0.657128
F	0.8387864921217802 0.8099429597164416 0.6216852467717224	-0.657128
F	0.3099429597164416 0.3387864381217826 0.8783147532282776	-0.657127
F	0.1900570672835570 0.1612135618782173 0.8783147532282776	-0.657128
F	0.3387864381217826 0.1900570672835570 0.8783147532282776	-0.657129
F	0.1612135618782173 0.3099429597164416 0.8783147532282776	-0.657127
F	0.2500000000000000 0.2500000000000000 0.2545420800211081	-0.619770
F	0.2500000000000000 0.2500000000000000 0.5018252581689574	-0.619638
F	0.7500000000000000 0.7500000000000000 0.2454579359788933	-0.619770
F	0.7500000000000000 0.7500000000000000 -0.0018252511689533	-0.619638
F	0.7500000000000000 0.7500000000000000 0.7454578879788892	-0.619770
F	0.7500000000000000 0.7500000000000000 0.4981747738310452	-0.619638
F	0.2500000000000000 0.2500000000000000 0.7545421120211108	-0.619770
F	0.2500000000000000 0.2500000000000000 0.0018252261689548	-0.619638
Ni	0.2500000000000000 0.2500000000000000 0.1281961421376842	0.786720
Ni	0.7500000000000000 0.7500000000000000 0.3718038738623172	0.786720
Ni	0.7500000000000000 0.7500000000000000 0.8718038428623179	0.786722
Ni	0.2500000000000000 0.2500000000000000 0.6281961571376821	0.786722
Ti	0.2500000000000000 0.2500000000000000 0.3782056889205224	2.349472
Ti	0.7500000000000000 0.7500000000000000 0.1217943190794783	2.349472
Ti	0.7500000000000000 0.7500000000000000 0.6217942800794789	2.349472
Ti	0.2500000000000000 0.2500000000000000 0.8782057199205211	2.349472
	  	
