#======================================================================

# CRYSTAL DATA

#----------------------------------------------------------------------

data_VESTA_phase_1


_pd_phase_name                         TIFSIX_1_Cu
_cell_length_a                         11.11018
_cell_length_b                         11.11018
_cell_length_c                         8.17996
_cell_angle_alpha                      90
_cell_angle_beta                       90
_cell_angle_gamma                      90
_symmetry_space_group_name_H-M         P 1
_symmetry_Int_Tables_number            1

loop_
_symmetry_equiv_pos_as_xyz
   x, y, z

loop_
   _atom_site_label
   _atom_site_fract_x
   _atom_site_fract_y
   _atom_site_fract_z
   _atom_site_charge
C	0.2563734596436402 0.4580485617567755 0.3695954960837312	0.105309
C	0.1313608321886928 0.4572025505818021 0.3651564667976338	-0.169153
C	0.7436266273563634 0.5419514812432246 0.3695954960837312	0.105307
C	0.8686392118113108 0.5427974494181976 0.3651564667976338	-0.169149
C	0.5419514812432246 0.2563734596436402 0.3695954960837312	0.105309
C	0.5427974494181976 0.1313608321886928 0.3651564667976338	-0.169153
C	0.4580485617567755 0.7436266273563634 0.3695954960837312	0.105308
C	0.4572025505818021 0.8686392118113108 0.3651564667976338	-0.169149
C	0.7436266273563634 0.4580485617567755 0.6304044739162662	0.105341
C	0.8686392118113108 0.4572025505818021 0.6348435042023600	-0.169145
C	0.2563734596436402 0.5419514812432246 0.6304044739162662	0.105342
C	0.1313608321886928 0.5427974494181976 0.6348435042023600	-0.169149
C	0.4580485617567755 0.2563734596436402 0.6304044739162662	0.105342
C	0.4572025505818021 0.1313608321886928 0.6348435042023600	-0.169149
C	0.5419514812432246 0.7436266273563634 0.6304044739162662	0.105341
C	0.5427974494181976 0.8686392118113108 0.6348435042023600	-0.169145
C	0.0664304159839862 0.5000000000000000 0.5000000000000000	0.101652
C	0.9335696600160130 0.5000000000000000 0.5000000000000000	0.101654
C	0.5000000000000000 0.0664304159839862 0.5000000000000000	0.101652
C	0.5000000000000000 0.9335696600160130 0.5000000000000000	0.101654
H	0.3095830663478884 0.4256573790848904 0.2665041172283754	0.106693
H	0.0856685097485676 0.4212437979621912 0.2579648226026758	0.126598
H	0.6904168906521114 0.5743426209151095 0.2665041172283754	0.106693
H	0.9143315062514336 0.5787562020378089 0.2579648226026758	0.126594
H	0.5743426209151095 0.3095830663478884 0.2665041172283754	0.106693
H	0.5787562020378089 0.0856685097485676 0.2579648226026758	0.126598
H	0.4256573790848904 0.6904168906521114 0.2665041172283754	0.106693
H	0.4212437979621912 0.9143315062514336 0.2579648226026758	0.126594
H	0.6904168906521114 0.4256573790848904 0.7334958537716260	0.106650
H	0.9143315062514336 0.4212437979621912 0.7420352363973257	0.126591
H	0.3095830663478884 0.5743426209151095 0.7334958537716260	0.106650
H	0.0856685097485676 0.5787562020378089 0.7420352363973257	0.126595
H	0.4256573790848904 0.3095830663478884 0.7334958537716260	0.106650
H	0.4212437979621912 0.0856685097485676 0.7420352363973257	0.126596
H	0.5743426209151095 0.6904168906521114 0.7334958537716260	0.106650
H	0.5787562020378089 0.9143315062514336 0.7420352363973257	0.126591
Cu	0.5000000000000000 0.5000000000000000 0.5000000000000000	0.735064
Ti	0.5000000000000000 0.5000000000000000 -0.0000000000000000	2.333371
F	0.5000000000000000 0.5000000000000000 0.7655975956300219	-0.649292
F	0.5000000000000000 0.5000000000000000 0.2344024043699779	-0.649296
F	0.3791125825683897 0.3791125825683897 -0.0000000000000000	-0.657052
F	0.6208874174316101 0.6208874174316101 -0.0000000000000000	-0.657052
F	0.6208874174316101 0.3791125825683897 -0.0000000000000000	-0.657052
F	0.3791125825683897 0.6208874174316101 -0.0000000000000000	-0.657052
N	0.3173385360460571 0.5000000000000000 0.5000000000000000	-0.225948
N	0.6826614859539448 0.5000000000000000 0.5000000000000000	-0.225946
N	0.5000000000000000 0.3173385360460571 0.5000000000000000	-0.225948
N	0.5000000000000000 0.6826614859539448 0.5000000000000000	-0.225946
	  	
