#======================================================================

# CRYSTAL DATA

#----------------------------------------------------------------------

data_VESTA_phase_1


_pd_phase_name                         TIFSIX_3_Cd
_cell_length_a                         14.96495
_cell_length_b                         14.96495
_cell_length_c                         8.26712
_cell_angle_alpha                      90
_cell_angle_beta                       90
_cell_angle_gamma                      90
_symmetry_space_group_name_H-M         P 1
_symmetry_Int_Tables_number            1

loop_
_symmetry_equiv_pos_as_xyz
   x, y, z

loop_
   _atom_site_label
   _atom_site_fract_x
   _atom_site_fract_y
   _atom_site_fract_z
   _atom_site_charge
C	0.2692223409207551 0.4533789453278554 0.6355314706699613	0.066490
C	0.2307776590792451 0.0466210586721448 0.6355314706699613	0.066490
C	0.2307776590792451 0.4533789453278554 0.3644684973300361	0.066523
C	0.2692223409207551 0.0466210586721448 0.3644684973300361	0.066524
C	0.0466210586721448 0.2692223409207551 0.3644684973300361	0.066527
C	0.4533789453278554 0.2307776590792451 0.3644684973300361	0.066527
C	0.4533789453278554 0.2692223409207551 0.6355314706699613	0.066503
C	0.0466210586721448 0.2307776590792451 0.6355314706699613	0.066503
C	0.9533788773278572 0.2307776590792451 0.6355314706699613	0.066507
C	0.5466211226721428 0.2692223409207551 0.6355314706699613	0.066508
C	0.5466211226721428 0.2307776590792451 0.3644684973300361	0.066541
C	0.9533788773278572 0.2692223409207551 0.3644684973300361	0.066541
C	0.7307776760792429 0.0466210586721448 0.3644684973300361	0.066527
C	0.7692223239207571 0.4533789453278554 0.3644684973300361	0.066527
C	0.7692223239207571 0.0466210586721448 0.6355314706699613	0.066503
C	0.7307776760792429 0.4533789453278554 0.6355314706699613	0.066502
C	0.4533789453278554 0.7307776760792429 0.6355314706699613	0.066491
C	0.0466210586721448 0.7692223239207571 0.6355314706699613	0.066492
C	0.0466210586721448 0.7307776760792429 0.3644684973300361	0.066525
C	0.4533789453278554 0.7692223239207571 0.3644684973300361	0.066525
C	0.2307776590792451 0.5466211226721428 0.3644684973300361	0.066544
C	0.2692223409207551 0.9533788773278572 0.3644684973300361	0.066544
C	0.2692223409207551 0.5466211226721428 0.6355314706699613	0.066519
C	0.2307776590792451 0.9533788773278572 0.6355314706699613	0.066518
C	0.7692223239207571 0.9533788773278572 0.6355314706699613	0.066508
C	0.7307776760792429 0.5466211226721428 0.6355314706699613	0.066508
C	0.7307776760792429 0.9533788773278572 0.3644684973300361	0.066540
C	0.7692223239207571 0.5466211226721428 0.3644684973300361	0.066541
C	0.5466211226721428 0.7692223239207571 0.3644684973300361	0.066544
C	0.9533788773278572 0.7307776760792429 0.3644684973300361	0.066543
C	0.9533788773278572 0.7692223239207571 0.6355314706699613	0.066519
C	0.5466211226721428 0.7307776760792429 0.6355314706699613	0.066519
H	0.2844826626375655 0.4157508199705581 0.7453035190936075	0.119070
H	0.2155173033624318 0.0842491800294418 0.7453035190936075	0.119071
H	0.2155173033624318 0.4157508199705581 0.2546964499063934	0.119078
H	0.2844826626375655 0.0842491800294418 0.2546964499063934	0.119077
H	0.0842491800294418 0.2844826626375655 0.2546964499063934	0.119076
H	0.4157508199705581 0.2155173033624318 0.2546964499063934	0.119076
H	0.4157508199705581 0.2844826626375655 0.7453035190936075	0.119068
H	0.0842491800294418 0.2155173033624318 0.7453035190936075	0.119068
H	0.9157508879705636 0.2155173033624318 0.7453035190936075	0.119064
H	0.5842491120294364 0.2844826626375655 0.7453035190936075	0.119064
H	0.5842491120294364 0.2155173033624318 0.2546964499063934	0.119071
H	0.9157508879705636 0.2844826626375655 0.2546964499063934	0.119071
H	0.7155172693624360 0.0842491800294418 0.2546964499063934	0.119076
H	0.7844827306375640 0.4157508199705581 0.2546964499063934	0.119076
H	0.7844827306375640 0.0842491800294418 0.7453035190936075	0.119068
H	0.7155172693624360 0.4157508199705581 0.7453035190936075	0.119068
H	0.4157508199705581 0.7155172693624360 0.7453035190936075	0.119071
H	0.0842491800294418 0.7844827306375640 0.7453035190936075	0.119070
H	0.0842491800294418 0.7155172693624360 0.2546964499063934	0.119077
H	0.4157508199705581 0.7844827306375640 0.2546964499063934	0.119077
H	0.2155173033624318 0.5842491120294364 0.2546964499063934	0.119069
H	0.2844826626375655 0.9157508879705636 0.2546964499063934	0.119069
H	0.2844826626375655 0.5842491120294364 0.7453035190936075	0.119061
H	0.2155173033624318 0.9157508879705636 0.7453035190936075	0.119062
H	0.7844827306375640 0.9157508879705636 0.7453035190936075	0.119064
H	0.7155172693624360 0.5842491120294364 0.7453035190936075	0.119064
H	0.7155172693624360 0.9157508879705636 0.2546964499063934	0.119071
H	0.7844827306375640 0.5842491120294364 0.2546964499063934	0.119071
H	0.5842491120294364 0.7844827306375640 0.2546964499063934	0.119069
H	0.9157508879705636 0.7155172693624360 0.2546964499063934	0.119069
H	0.9157508879705636 0.7844827306375640 0.7453035190936075	0.119061
H	0.5842491120294364 0.7155172693624360 0.7453035190936075	0.119062
Cd	0.2500000000000000 0.2500000000000000 0.5000000000000000	0.854066
Cd	0.7500000340000028 0.2500000000000000 0.5000000000000000	0.854066
Cd	0.2500000000000000 0.7500000340000028 0.5000000000000000	0.854066
Cd	0.7500000340000028 0.7500000340000028 0.5000000000000000	0.854067
Ti	0.2500000000000000 0.2500000000000000 0.0000000000000000	2.333714
Ti	0.7500000340000028 0.2500000000000000 0.0000000000000000	2.333706
Ti	0.2500000000000000 0.7500000340000028 0.0000000000000000	2.333706
Ti	0.7500000340000028 0.7500000340000028 0.0000000000000000	2.333698
F	0.2500000000000000 0.2500000000000000 0.7656283676847015	-0.634509
F	0.2500000000000000 0.2500000000000000 0.2343716323152982	-0.634510
F	0.3389566738057450 0.3389566738057450 -0.0149031416199208	-0.647169
F	0.1610433261942550 0.1610433261942550 -0.0149031416199208	-0.647168
F	0.1610433261942550 0.3389566738057450 0.0149031626199188	-0.647169
F	0.3389566738057450 0.1610433261942550 0.0149031626199188	-0.647169
F	0.7500000340000028 0.2500000000000000 0.7656283676847015	-0.634508
F	0.7500000340000028 0.2500000000000000 0.2343716323152982	-0.634510
F	0.8389567078057478 0.3389566738057450 0.0149031626199188	-0.647170
F	0.6610432921942522 0.1610433261942550 0.0149031626199188	-0.647168
F	0.6610432921942522 0.3389566738057450 -0.0149031416199208	-0.647169
F	0.8389567078057478 0.1610433261942550 -0.0149031416199208	-0.647169
F	0.2500000000000000 0.7500000340000028 0.7656283676847015	-0.634508
F	0.2500000000000000 0.7500000340000028 0.2343716323152982	-0.634510
F	0.3389566738057450 0.8389567078057478 0.0149031626199188	-0.647170
F	0.1610433261942550 0.6610432921942522 0.0149031626199188	-0.647168
F	0.1610433261942550 0.8389567078057478 -0.0149031416199208	-0.647169
F	0.3389566738057450 0.6610432921942522 -0.0149031416199208	-0.647169
F	0.7500000340000028 0.7500000340000028 0.7656283676847015	-0.634508
F	0.7500000340000028 0.7500000340000028 0.2343716323152982	-0.634509
F	0.8389567078057478 0.8389567078057478 -0.0149031416199208	-0.647170
F	0.6610432921942522 0.6610432921942522 -0.0149031416199208	-0.647168
F	0.6610432921942522 0.8389567078057478 0.0149031626199188	-0.647170
F	0.8389567078057478 0.6610432921942522 0.0149031626199188	-0.647170
N	0.4075295497807144 0.2500000000000000 0.5000000000000000	-0.203696
N	0.0924704502192856 0.2500000000000000 0.5000000000000000	-0.203696
N	0.2500000000000000 0.4075295497807144 0.5000000000000000	-0.203695
N	0.2500000000000000 0.0924704502192856 0.5000000000000000	-0.203694
N	0.9075295497807143 0.2500000000000000 0.5000000000000000	-0.203699
N	0.5924704502192857 0.2500000000000000 0.5000000000000000	-0.203698
N	0.7500000340000028 0.4075295497807144 0.5000000000000000	-0.203697
N	0.7500000340000028 0.0924704502192856 0.5000000000000000	-0.203696
N	0.4075295497807144 0.7500000340000028 0.5000000000000000	-0.203695
N	0.0924704502192856 0.7500000340000028 0.5000000000000000	-0.203694
N	0.2500000000000000 0.9075295497807144 0.5000000000000000	-0.203701
N	0.2500000000000000 0.5924704502192856 0.5000000000000000	-0.203700
N	0.9075295497807143 0.7500000340000028 0.5000000000000000	-0.203701
N	0.5924704502192857 0.7500000340000028 0.5000000000000000	-0.203700
N	0.7500000340000028 0.9075295497807143 0.5000000000000000	-0.203699
N	0.7500000340000028 0.5924704502192857 0.5000000000000000	-0.203699
	  	
