#======================================================================

# CRYSTAL DATA

#----------------------------------------------------------------------

data_VESTA_phase_1


_pd_phase_name                         TIFSIX_14_Zn_i
_cell_length_a                         13.36169
_cell_length_b                         13.33148
_cell_length_c                         8.06019
_cell_angle_alpha                      87.31259
_cell_angle_beta                       87.34917
_cell_angle_gamma                      88.93253
_symmetry_space_group_name_H-M         P 1
_symmetry_Int_Tables_number            1

loop_
_symmetry_equiv_pos_as_xyz
   x, y, z

loop_
   _atom_site_label
   _atom_site_fract_x
   _atom_site_fract_y
   _atom_site_fract_z
   _atom_site_charge
C	0.5700620693910264 0.2681345777850196 0.3632587099733608	-0.179068
C	0.4659989313484574 0.2719245700975105 0.3680338482978904	0.111632
C	0.9352659770524931 0.2882271130064407 0.4162653710638271	-0.169093
C	0.0391159618803473 0.2812927286773758 0.4012827223805011	0.111090
C	0.2664600524845875 0.5694245778943519 0.3650977142355400	-0.179399
C	0.2700120811247521 0.4651009689735899 0.3705360271491806	0.113597
C	0.2956281871540827 0.9351064612190517 0.4115226210746572	-0.169563
C	0.2878210053903355 0.0391464897914176 0.3974437205373205	0.111698
C	0.9303874582898110 0.2343799878584677 0.1347597859779281	-0.179838
C	0.0344713194555346 0.2309669252278272 0.1295077293930820	0.110978
C	0.5652840578827463 0.2070979666493935 0.0862981192235116	-0.167797
C	0.4614296531583285 0.2146705947595082 0.1004719779072231	0.113946
C	0.2083996472335764 0.5644595514662458 0.0861869752945960	-0.172343
C	0.2159260399329165 0.4604368801303419 0.1009490609813016	0.111579
C	0.2310507929881682 0.9302681750043799 0.1370113725509990	-0.179197
C	0.2273128049279374 0.0345833933961699 0.1320624218750326	0.114928
C	0.4305161349988790 0.7366153623983763 0.6343668442316723	-0.178635
C	0.5345205242667154 0.7339433306551730 0.6290941199027301	0.112606
C	0.0648719758282799 0.7272252939282687 0.5753403246524680	-0.163938
C	0.9609733227450103 0.7313792424391813 0.5918534116635222	0.114010
C	0.7369749886781034 0.4308770216158744 0.6343182692645618	-0.178156
C	0.7348047329132593 0.5351394531845345 0.6289349232808226	0.114493
C	0.7146647124812624 0.0647861612070550 0.5806911609621122	-0.164063
C	0.7202629887773150 0.9606488677114722 0.5957617385056482	0.115032
C	0.0695060683244232 0.7611284904066800 0.8667091479173419	-0.179773
C	0.9654762773158490 0.7629332935055519 0.8725262159712538	0.114272
C	0.4351375192608048 0.7791196971544071 0.9220094851304500	-0.162825
C	0.5390386141849600 0.7741004648438775 0.9061081234105103	0.113253
C	0.7795772057350472 0.4351504879496091 0.9219883565597276	-0.166283
C	0.7747374587403214 0.5392807608500809 0.9062069722499362	0.114875
C	0.7660192859279560 0.0689442044127609 0.8637928254882706	-0.177424
C	0.7688159678867327 0.9647070349375165 0.8686661101532448	0.114060
C	0.6209476545540558 0.2355381502590506 0.2187280685971065	0.188438
C	0.8795665810683377 0.2630304385036272 0.2818509965736723	0.189493
C	0.2354383672998216 0.6202931541273894 0.2194661420194377	0.192458
C	0.2655681837015824 0.8793283236217884 0.2802049238186642	0.188786
C	0.3795624349339013 0.7593906423780936 0.7847376013599597	0.190039
C	0.1204412236758924 0.7430587900659079 0.7143007245662785	0.190355
C	0.7595788067467151 0.3796397684672536 0.7845972386526594	0.190422
C	0.7386567068064547 0.1202508280089936 0.7160510615897553	0.187992
H	0.6109153123274438 0.2860314618477828 0.4715868868841028	0.109887
H	0.4239747812884070 0.2950392281065721 0.4794595347858290	0.100999
H	0.8984066179484591 0.3128519800875161 0.5307183451097054	0.125464
H	0.0847436920860888 0.2995006120859739 0.5040140753577563	0.100812
H	0.2831764019593391 0.6107216875015619 0.4735569177489592	0.112120
H	0.2917223858861120 0.4229650250011744 0.4827932070848333	0.099327
H	0.3247141191392418 0.8981471428162174 0.5228048159150741	0.125658
H	0.3094690389876307 0.0848633684607957 0.4980905861229363	0.101472
H	0.8894185952627393 0.2193261869354246 0.0251637302864250	0.110176
H	0.0764559399592118 0.2107383215500486 0.0163880041121477	0.100357
H	0.6022338994138025 0.1792690633964609 0.9741483456913499	0.125135
H	0.4159057540573159 0.1939985669367673 0.9990874246879158	0.100228
H	0.1820615227584387 0.6012417269931862 0.9727251127769296	0.126203
H	0.1966206611456791 0.4146371929527050 0.9989562734813739	0.101365
H	0.2118563690760027 0.8891185877393708 0.0297221087845008	0.112060
H	0.2029730800248789 0.0767546568288778 0.0214895841511469	0.098524
H	0.3902003066189523 0.7239938116923068 0.5229532879080614	0.105935
H	0.5767782065619312 0.7174278018216113 0.5144159493953678	0.099056
H	0.1018450576270006 0.7121321697840785 0.4560296068070516	0.124266
H	0.9156109894480268 0.7197898833405718 0.4859245464976494	0.098491
H	0.7246988119515254 0.3904025035569873 0.5228873702103971	0.107264
H	0.7186512833078976 0.5777030099729337 0.5142539974296090	0.098970
H	0.6918145605602261 0.1020692012179680 0.4654639276740477	0.124898
H	0.7024914263252766 0.9152713310556871 0.4925190594295989	0.098091
H	0.1099714574780025 0.7708366009401888 0.9790498487928566	0.105573
H	0.9232007897627040 0.7757841540372818 0.9886853971450034	0.098036
H	0.3981393260068063 0.7979228544821356 0.0395917710395150	0.124137
H	0.5843593239432220 0.7887467771338995 0.0108414826244654	0.098282
H	0.7985663828706465 0.3979832121154310 0.0394628820925145	0.124452
H	0.7894985105152870 0.5846911107127212 0.0108937491492053	0.097700
H	0.7814342930584297 0.1093071321619117 0.9739484694227337	0.107770
H	0.7885112656974494 0.9221468871594810 0.9816228344475376	0.100035
N	0.7741218177795879 0.2740741562888538 0.2999612622415612	-0.102266
N	0.2779546573548481 0.7736277977984275 0.2958292290779564	-0.104113
N	0.7264271260731680 0.2240419501625072 0.2009723249423065	-0.104970
N	0.2233843457634391 0.7259557389180676 0.2035101004847181	-0.105970
N	0.2258909218070864 0.7360439802590238 0.6902100183098838	-0.099970
N	0.7295770274452590 0.2259932483700523 0.6944978998056077	-0.101248
N	0.2740910809665414 0.7669296851158948 0.8085639248883886	-0.100789
N	0.7681303043500211 0.2739368390334165 0.8065238307832653	-0.100991
N	0.4124541297924848 0.2463813850426536 0.2388320814806000	-0.223247
N	0.0880671881497608 0.2532071961045582 0.2605261056026497	-0.221198
N	0.2459788353978863 0.4114156441912007 0.2406114119119036	-0.222188
N	0.2545022039659363 0.0881948480923616 0.2601203504804231	-0.222004
N	0.5880599983265905 0.7519521913093741 0.7623753516832016	-0.219355
N	0.9119001128172545 0.7487391003962800 0.7376995893896675	-0.220767
N	0.7529228469208132 0.5885849268506134 0.7623030562400143	-0.220470
N	0.7467052722780740 0.9113345704596526 0.7371659802430049	-0.221584
F	0.3493504432097216 0.1451202638976509 0.7524641476648789	-0.641309
F	0.1527470409409998 0.3527735951143785 0.7475601180478776	-0.641654
F	0.3531087639824682 0.3454196585175270 0.7236743902790890	-0.642058
F	0.1488899626967511 0.1527659666792422 0.7773258119430112	-0.641053
F	0.6465731711869968 0.8506296966282443 0.2503299131803333	-0.638806
F	0.8506058881077198 0.6501103623630294 0.2505813366406283	-0.639446
F	0.6505539661478840 0.6504662264779485 0.2707834517634115	-0.638596
F	0.8468152445600512 0.8507175211429185 0.2290521386800323	-0.638870
F	0.2491547501105669 0.2462829995816413 0.5093210703850661	-0.615217
F	0.2524358925811043 0.2521554504583561 -0.0087715035384728	-0.614763
F	0.7497263092659356 0.7511452211541277 0.4908582978364293	-0.611373
F	0.7490959922483206 0.7496161196949872 0.0088586047522634	-0.611958
Ti	0.2510888385020797 0.2489242419463067 0.7502985710187419	2.319257
Ti	0.7487625024382469 0.7505561911329164 0.2498792965414072	2.313733
Zn	0.2502333013319214 0.2498721840209666 0.2501594701474101	0.754710
Zn	0.7499864508995233 0.7498878128015711 0.7496798896083878	0.753152
	  	
