#======================================================================

# CRYSTAL DATA

#----------------------------------------------------------------------

data_VESTA_phase_1


_pd_phase_name                         TIFSIX_7_Fe
_cell_length_a                         19.39550
_cell_length_b                         19.39550
_cell_length_c                         8.06176
_cell_angle_alpha                      90
_cell_angle_beta                       90
_cell_angle_gamma                      90
_symmetry_space_group_name_H-M         P 1
_symmetry_Int_Tables_number            1

loop_
_symmetry_equiv_pos_as_xyz
   x, y, z

loop_
   _atom_site_label
   _atom_site_fract_x
   _atom_site_fract_y
   _atom_site_fract_z
   _atom_site_charge
C	0.6636065504301872 0.8732568727619573 0.6961300760438566	0.105379
C	0.6131276768199018 0.9240237908198349 0.7006314091011550	-0.177276
C	0.5786638307466969 0.8891594667255374 0.4277733471568164	-0.171065
C	0.6294458312752572 0.8389150102306761 0.4336506106212220	0.101589
C	0.8363934495698128 0.6267431272380427 0.6961300760438566	0.105379
C	0.8868723731800953 0.5759762601801658 0.7006314091011550	-0.177276
C	0.9213360682533054 0.6108405842744562 0.4277733471568164	-0.171065
C	0.8705541687247428 0.6610849897693239 0.4336506106212220	0.101589
C	0.6267431272380427 0.6636065504301872 0.6961300760438566	0.105379
C	0.5759762601801658 0.6131276768199018 0.7006314091011550	-0.177276
C	0.6108405842744562 0.5786638307466969 0.4277733471568164	-0.171065
C	0.6610849897693239 0.6294458312752572 0.4336506106212220	0.101589
C	0.8732568727619573 0.8363934495698128 0.6961300760438566	0.105379
C	0.9240237908198349 0.8868723731800953 0.7006314091011550	-0.177276
C	0.8891594667255374 0.9213360682533054 0.4277733471568164	-0.171065
C	0.8389150102306761 0.8705541687247428 0.4336506106212220	0.101589
C	0.3363934245698142 0.3732568227619534 0.3038699539561461	0.105380
C	0.3868723231800978 0.4240237908198349 0.2993686208988481	-0.177276
C	0.4213361692533030 0.3891594157255445 0.5722266528431835	-0.171072
C	0.3705541177247495 0.3389150102306762 0.5663494193787806	0.101617
C	0.1636065754301859 0.1267431642380494 0.3038699539561461	0.105380
C	0.1131276768199020 0.0759762091801652 0.2993686208988481	-0.177276
C	0.0786638117466920 0.1108405842744558 0.5722266528431835	-0.171072
C	0.1294458822752506 0.1610849777693228 0.5663494193787806	0.101617
C	0.3732568227619534 0.1636065754301859 0.3038699539561461	0.105380
C	0.4240237908198349 0.1131276768199020 0.2993686208988481	-0.177276
C	0.3891594157255445 0.0786638117466920 0.5722266528431835	-0.171072
C	0.3389150102306762 0.1294458822752506 0.5663494193787807	0.101618
C	0.1267431642380494 0.3363934245698142 0.3038699539561461	0.105380
C	0.0759762091801652 0.3868723231800978 0.2993686208988481	-0.177276
C	0.1108405842744558 0.4213361692533030 0.5722266528431835	-0.171072
C	0.1610849777693228 0.3705541177247496 0.5663494193787806	0.101617
C	0.4337424308149305 0.0694065930206563 0.4364396015519750	0.138598
C	0.4873679316502622 0.0166770743284769 0.4326382531073276	-0.122965
C	0.0662575691850697 0.4305933999793466 0.4364396015519750	0.138598
C	0.0126320363497350 0.4833228616715248 0.4326382531073276	-0.122965
C	0.4305933999793466 0.4337424308149305 0.4364396015519750	0.138598
C	0.4833228616715248 0.4873679316502622 0.4326382531073276	-0.122965
C	0.0694065930206563 0.0662575691850697 0.4364396015519750	0.138599
C	0.0166770743284768 0.0126320363497350 0.4326382531073276	-0.122965
C	0.5662575691850698 0.5694066000206530 0.5635603984480247	0.138595
C	0.5126321193497313 0.5166770883284708 0.5673617758926712	-0.122942
C	0.9337423808149332 0.9305933499793428 0.5635603984480247	0.138596
C	0.9873679316502623 0.9833229626715299 0.5673617758926712	-0.122942
C	0.5694066000206530 0.9337423808149332 0.5635603984480247	0.138596
C	0.5166770883284708 0.9873679316502623 0.5673617758926712	-0.122942
C	0.9305933499793428 0.5662575691850698 0.5635603984480247	0.138596
C	0.9833229626715299 0.5126321193497313 0.5673617758926712	-0.122942
H	0.6976234151220907 0.8649752992601377 0.8017681566311404	0.099985
H	0.6083524210318938 0.9562034849482559 0.8108854131211989	0.116774
H	0.5456837828034292 0.8921247225140381 0.3187645198006971	0.116809
H	0.6373671694741270 0.8041474999198301 0.3294117768390791	0.099650
H	0.8023765848779093 0.6350247007398623 0.8017681566311404	0.099985
H	0.8916475789681062 0.5437965660517448 0.8108854131211989	0.116774
H	0.9543162681965714 0.6078753284859626 0.3187645198006971	0.116809
H	0.8626328305258730 0.6958525000801699 0.3294117768390791	0.099650
H	0.6350247007398623 0.6976234151220907 0.8017681566311404	0.099985
H	0.5437965660517448 0.6083524210318938 0.8108854131211989	0.116773
H	0.6078753284859626 0.5456837828034292 0.3187645198006971	0.116809
H	0.6958525000801699 0.6373671694741270 0.3294117768390791	0.099650
H	0.8649752992601377 0.8023765848779093 0.8017681566311404	0.099985
H	0.9562034849482559 0.8916475789681062 0.8108854131211989	0.116773
H	0.8921247225140381 0.9543162681965714 0.3187645198006971	0.116809
H	0.8041474999198301 0.8626328305258730 0.3294117768390791	0.099650
H	0.3023766108779115 0.3649752232601384 0.1982318283688620	0.099985
H	0.3916475029681001 0.4562034339482554 0.1891145428787975	0.116773
H	0.4543162681965711 0.3921247225140381 0.6812354501993074	0.116810
H	0.3626328555258789 0.3041475259198327 0.6705882231609209	0.099634
H	0.1976234021220860 0.1350248027398638 0.1982318283688620	0.099985
H	0.1083524720318944 0.0437965820517458 0.1891145428787975	0.116773
H	0.0456837258034285 0.1078753034859642 0.6812354501993074	0.116810
H	0.1373671694741270 0.1958524620801664 0.6705882231609209	0.099634
H	0.3649752232601384 0.1976234021220860 0.1982318283688620	0.099985
H	0.4562034339482554 0.1083524720318944 0.1891145428787975	0.116773
H	0.3921247225140381 0.0456837258034285 0.6812354501993074	0.116810
H	0.3041475259198327 0.1373671694741270 0.6705882231609209	0.099634
H	0.1350248027398638 0.3023766108779115 0.1982318283688620	0.099985
H	0.0437965820517458 0.3916475029681001 0.1891145428787975	0.116773
H	0.1078753034859642 0.4543162681965711 0.6812354501993074	0.116810
H	0.1958524620801664 0.3626328555258789 0.6705882231609209	0.099634
H	0.5058703869073576 0.0022238112330417 0.3091616724511161	0.102312
H	0.9941296640926430 0.4977761607669561 0.3091616724511161	0.102312
H	0.4977761607669561 0.5058703869073576 0.3091616724511161	0.102312
H	0.0022238112330417 0.9941296640926430 0.3091616724511161	0.102312
H	0.4941296130926425 0.5022237892330472 0.6908383575488792	0.102310
H	0.0058703779073605 0.9977761607669557 0.6908383575488792	0.102310
H	0.5022237892330472 0.0058703779073605 0.6908383575488792	0.102310
H	0.9977761607669557 0.4941296130926425 0.6908383575488792	0.102310
Fe	0.2500000000000000 0.2500000000000000 0.4351162458317376	0.835905
Fe	0.7500000000000000 0.7500000000000000 0.5648837541682624	0.835902
Ti	0.2500000000000000 0.2500000000000000 0.9358343011143742	2.320125
Ti	0.7500000000000000 0.7500000000000000 0.0641656838856283	2.320127
F	0.2500000000000000 0.2500000000000000 0.1800556798538877	-0.599908
F	0.2500000000000000 0.2500000000000000 0.6912110080593428	-0.600308
F	0.7500000000000000 0.7500000000000000 0.8199443501461147	-0.599908
F	0.7500000000000000 0.7500000000000000 0.3087889919406571	-0.600309
F	0.3193168007084045 0.3180121627926055 0.9358520963160427	-0.644394
F	0.1806832242915939 0.1819878622073929 0.9358520963160427	-0.644394
F	0.1819878622073929 0.3193168007084045 0.9358520963160427	-0.644394
F	0.3180121627926055 0.1806832242915939 0.9358520963160427	-0.644394
F	0.6806832242915939 0.8180121627926056 0.0641479036839570	-0.644396
F	0.8193167757084061 0.6819878372073944 0.0641479036839570	-0.644396
F	0.8180121627926056 0.8193167757084061 0.0641479036839570	-0.644396
F	0.6819878372073944 0.6806832242915939 0.0641479036839570	-0.644396
N	0.3309527167473808 0.1717680723907873 0.4349506966115917	-0.254367
N	0.1690473082526177 0.3282319526092115 0.4349506966115917	-0.254367
N	0.3282319526092115 0.3309527167473808 0.4349506966115917	-0.254367
N	0.1717680723907873 0.1690473082526177 0.4349506966115917	-0.254367
N	0.6690472832526189 0.6717680473907884 0.5650493033884082	-0.254356
N	0.8309527167473811 0.8282319526092116 0.5650493033884082	-0.254356
N	0.6717680473907884 0.8309527167473811 0.5650493033884082	-0.254356
N	0.8282319526092116 0.6690472832526189 0.5650493033884082	-0.254356
	  	
