#======================================================================

# CRYSTAL DATA

#----------------------------------------------------------------------

data_VESTA_phase_1


_pd_phase_name                         TIFSIX_5_Ni_i
_cell_length_a                         19.85076
_cell_length_b                         19.85076
_cell_length_c                         15.57535
_cell_angle_alpha                      90
_cell_angle_beta                       90
_cell_angle_gamma                      90
_symmetry_space_group_name_H-M         P 1
_symmetry_Int_Tables_number            1

loop_
_symmetry_equiv_pos_as_xyz
   x, y, z

loop_
   _atom_site_label
   _atom_site_fract_x
   _atom_site_fract_y
   _atom_site_fract_z
   _atom_site_charge
F	0.3238056188554694 0.1896117340925716 0.3508568225574282	-0.647379
F	0.1761943691445297 0.3103882659074282 0.3508568225574282	-0.647383
F	0.3103882659074282 0.3238056188554694 0.3508568225574282	-0.647382
F	0.1896117340925716 0.1761943691445297 0.3508568225574282	-0.647380
F	0.6761944051445254 0.6896117580925737 0.1491431774425720	-0.647380
F	0.8238055948554746 0.8103882419074263 0.1491431774425720	-0.647382
F	0.6896117580925737 0.8238055948554746 0.1491431774425720	-0.647382
F	0.8103882419074263 0.6761944051445254 0.1491431774425720	-0.647380
F	0.6761944051445254 0.8103882419074263 0.6491432094425748	-0.647383
F	0.8238055948554746 0.6896117580925737 0.6491432094425748	-0.647379
F	0.6896117580925737 0.6761944051445254 0.6491432094425748	-0.647381
F	0.8103882419074263 0.8238055948554746 0.6491432094425748	-0.647382
F	0.3238056188554694 0.3103882659074282 0.8508567905574252	-0.647382
F	0.1761943691445297 0.1896117340925716 0.8508567905574252	-0.647380
F	0.3103882659074282 0.1761943691445297 0.8508567905574252	-0.647380
F	0.1896117340925716 0.3238056188554694 0.8508567905574252	-0.647382
F	0.2500000000000000 0.2500000000000000 0.4739626960724321	-0.617900
F	0.2500000000000000 0.2500000000000000 0.2276633138384936	-0.618272
F	0.7500000000000000 0.7500000000000000 0.0260373309275666	-0.617900
F	0.7500000000000000 0.7500000000000000 0.2723366701615051	-0.618282
F	0.7500000000000000 0.7500000000000000 0.5260373349275664	-0.617899
F	0.7500000000000000 0.7500000000000000 0.7723366701615050	-0.618273
F	0.2500000000000000 0.2500000000000000 0.9739626650724336	-0.617898
F	0.2500000000000000 0.2500000000000000 0.7276633298384950	-0.618273
N	0.3551740250250686 0.2475596759534012 0.6012505270975640	-0.243273
N	0.1448259749749315 0.2524403240465989 0.6012505270975640	-0.243273
N	0.2524403240465989 0.3551740250250686 0.6012505270975640	-0.243273
N	0.2475596759534012 0.1448259749749315 0.6012505270975640	-0.243272
N	0.6448259989749333 0.7475596519533994 0.8987494729024360	-0.243273
N	0.8551740010250667 0.7524403480466006 0.8987494729024360	-0.243273
N	0.7475596519533994 0.8551740010250667 0.8987494729024360	-0.243273
N	0.7524403480466006 0.6448259989749333 0.8987494729024360	-0.243272
N	0.6448259989749333 0.7524403480466006 0.3987495039024349	-0.243287
N	0.8551740010250667 0.7475596519533994 0.3987495039024349	-0.243287
N	0.7475596519533994 0.6448259989749333 0.3987495039024349	-0.243286
N	0.7524403480466006 0.8551740010250667 0.3987495039024349	-0.243287
N	0.3551740250250686 0.2524403240465989 0.1012505270975642	-0.243271
N	0.1448259749749315 0.2475596759534012 0.1012505270975642	-0.243270
N	0.2524403240465989 0.1448259749749315 0.1012505270975642	-0.243270
N	0.2475596759534012 0.3551740250250686 0.1012505270975642	-0.243271
C	0.3885795899235315 0.2178090574456045 0.6663101483323050	0.105331
C	0.4584779358130279 0.2164292975891788 0.6702441589594764	-0.178069
C	0.4965025601000487 0.2471754226628566 0.6051707231689496	0.105467
C	0.4608859148342970 0.2777079944261581 0.5376860827624917	-0.178194
C	0.3908839414672208 0.2767738754656908 0.5377978319244923	0.106032
C	0.5706600101599743 0.2478804967438961 0.6082489826294546	0.054029
C	0.6068230794476802 0.1915169114057475 0.6375908896573393	-0.130239
C	0.6767926316179931 0.1922748149349071 0.6401558673959094	-0.124729
C	0.7129194299846907 0.2498190445370467 0.6149429119595602	0.067009
C	0.6767946319136072 0.3065012569907518 0.5867816945932232	-0.119093
C	0.6068625203249027 0.3052843116528704 0.5826684059184251	-0.125984
C	0.1114203860764738 0.2821909665543977 0.6663101483323050	0.105333
C	0.0415220041869743 0.2835707264108233 0.6702441589594764	-0.178076
C	0.0034974188999532 0.2528245773371434 0.6051707231689496	0.105481
C	0.0391141121657018 0.2222920055738417 0.5376860827624917	-0.178187
C	0.1091160225327762 0.2232261485343112 0.5377978319244923	0.106028
C	0.9293399418400289 0.2521194792561017 0.6082489826294546	0.054024
C	0.8931769685523167 0.3084831235942518 0.6375908896573393	-0.130345
C	0.8232073683820069 0.3077251970650867 0.6401558673959094	-0.124694
C	0.7870805700153093 0.2501809314629514 0.6149429119595602	0.067010
C	0.8232054150863931 0.1934987430092482 0.5867816945932232	-0.119123
C	0.8931375756750981 0.1947157233471290 0.5826684059184251	-0.125957
C	0.2821909665543977 0.3885795899235315 0.6663101483323050	0.105334
C	0.2835707264108233 0.4584779358130279 0.6702441589594764	-0.178075
C	0.2528245773371434 0.4965025601000487 0.6051707231689496	0.105473
C	0.2222920055738417 0.4608859148342970 0.5376860827624917	-0.178190
C	0.2232261485343112 0.3908839414672208 0.5377978319244923	0.106032
C	0.2521194792561017 0.5706600101599743 0.6082489826294546	0.054034
C	0.3084831235942518 0.6068230794476802 0.6375908896573393	-0.130354
C	0.3077251970650867 0.6767926316179931 0.6401558673959094	-0.124696
C	0.2501809314629514 0.7129194299846907 0.6149429119595602	0.067005
C	0.1934987430092482 0.6767946319136072 0.5867816945932232	-0.119108
C	0.1947157233471290 0.6068625203249027 0.5826684059184251	-0.125909
C	0.2178090574456045 0.1114203860764738 0.6663101483323050	0.105331
C	0.2164292975891788 0.0415220041869743 0.6702441589594764	-0.178069
C	0.2471754226628566 0.0034974188999532 0.6051707231689496	0.105475
C	0.2777079944261581 0.0391141121657018 0.5376860827624917	-0.178191
C	0.2767738754656908 0.1091160225327762 0.5377978319244923	0.106029
C	0.2478804967438961 0.9293399418400289 0.6082489826294546	0.054020
C	0.1915169114057475 0.8931769685523167 0.6375908896573393	-0.130230
C	0.1922748149349071 0.8232073683820069 0.6401558673959094	-0.124727
C	0.2498190445370467 0.7870805700153093 0.6149429119595602	0.067014
C	0.3065012569907518 0.8232054150863931 0.5867816945932232	-0.119109
C	0.3052843116528704 0.8931375756750981 0.5826684059184251	-0.126033
C	0.6114203860764735 0.7178091054456014 0.8336898516676950	0.105331
C	0.5415220161869753 0.7164293215891738 0.8297558410405236	-0.178073
C	0.5034974398999514 0.7471754706628535 0.8948292768310504	0.105480
C	0.5391141811657042 0.7777079464261543 0.9623139172375083	-0.178187
C	0.6091160825327742 0.7767738994656856 0.9622021680755077	0.106028
C	0.4293399898400260 0.7478805687438947 0.8917510173705454	0.054033
C	0.3931769205523196 0.6915168764057481 0.8624091103426607	-0.130346
C	0.3232072963820012 0.6922747789349112 0.8598441326040906	-0.124693
C	0.2870806180153131 0.7498190685370488 0.8850570880404398	0.067008
C	0.3232053200863888 0.8065012569907516 0.9132183054067768	-0.119119
C	0.3931375036750925 0.8052842406528679 0.9173315940815749	-0.125978
C	0.8885796139235265 0.7821908945543986 0.8336898516676950	0.105334
C	0.9584779838130247 0.7835706784108262 0.8297558410405236	-0.178077
C	0.9965026081000454 0.7528245293371465 0.8948292768310504	0.105483
C	0.9608858668342998 0.7222920535738457 0.9623139172375083	-0.178187
C	0.8908839174672258 0.7232261005343144 0.9622021680755077	0.106030
C	0.0706600461599700 0.7521194312561053 0.8917510173705454	0.054024
C	0.1068230674476792 0.8084831235942519 0.8624091103426607	-0.130346
C	0.1767926796179971 0.8077251730650920 0.8598441326040906	-0.124694
C	0.2129193819846869 0.7501809314629512 0.8850570880404398	0.067012
C	0.1767946559136090 0.6934987430092484 0.9132183054067768	-0.119126
C	0.1068624963249075 0.6947157123471318 0.9173315940815749	-0.125959
C	0.7178091054456014 0.8885796139235265 0.8336898516676950	0.105335
C	0.7164293215891738 0.9584779838130247 0.8297558410405236	-0.178074
C	0.7471754706628535 0.9965026081000454 0.8948292768310504	0.105482
C	0.7777079464261543 0.9608858668342998 0.9623139172375083	-0.178190
C	0.7767738994656856 0.8908839174672258 0.9622021680755077	0.106030
C	0.7478805687438947 0.0706600461599700 0.8917510173705454	0.054024
C	0.6915168764057481 0.1068230674476792 0.8624091103426607	-0.130347
C	0.6922747789349112 0.1767926796179971 0.8598441326040906	-0.124694
C	0.7498190685370488 0.2129193819846869 0.8850570880404398	0.067010
C	0.8065012569907516 0.1767946559136090 0.9132183054067768	-0.119126
C	0.8052842406528679 0.1068624963249075 0.9173315940815749	-0.125958
C	0.7821908945543986 0.6114203860764735 0.8336898516676950	0.105330
C	0.7835706784108262 0.5415220161869753 0.8297558410405236	-0.178075
C	0.7528245293371465 0.5034974398999514 0.8948292768310504	0.105482
C	0.7222920535738457 0.5391141811657042 0.9623139172375083	-0.178183
C	0.7232261005343144 0.6091160825327742 0.9622021680755077	0.106028
C	0.7521194312561053 0.4293399898400260 0.8917510173705454	0.054033
C	0.8084831235942519 0.3931769205523196 0.8624091103426607	-0.130346
C	0.8077251730650920 0.3232072963820012 0.8598441326040906	-0.124694
C	0.7501809314629512 0.2870806180153131 0.8850570880404398	0.067011
C	0.6934987430092484 0.3232053200863888 0.9132183054067768	-0.119119
C	0.6947157123471318 0.3931375036750925 0.9173315940815749	-0.125979
C	0.6114203860764735 0.7821908945543986 0.3336898826676939	0.105311
C	0.5415220161869753 0.7835706784108262 0.3297558410405240	-0.178069
C	0.5034974398999514 0.7528245293371465 0.3948292768310505	0.105481
C	0.5391141811657042 0.7222920535738457 0.4623139482375142	-0.178190
C	0.6091160825327742 0.7232261005343144 0.4622021680755074	0.106056
C	0.4293399898400260 0.7521194312561053 0.3917510173705455	0.054033
C	0.3931769205523196 0.8084831235942519 0.3624090793426614	-0.130345
C	0.3232072963820012 0.8077251730650920 0.3598441636040896	-0.124694
C	0.2870806180153131 0.7501809314629512 0.3850569940404391	0.067009
C	0.3232053200863888 0.6934987430092484 0.4132183364067755	-0.119117
C	0.3931375036750925 0.6947157123471318 0.4173315940815754	-0.125978
C	0.8885796139235265 0.7178091054456014 0.3336898826676939	0.105311
C	0.9584779838130247 0.7164293215891738 0.3297558410405240	-0.178066
C	0.9965026081000454 0.7471754706628535 0.3948292768310505	0.105484
C	0.9608858668342998 0.7777079464261543 0.4623139482375142	-0.178198
C	0.8908839174672258 0.7767738994656856 0.4622021680755074	0.106059
C	0.0706600461599700 0.7478805687438947 0.3917510173705455	0.054024
C	0.1068230674476792 0.6915168764057481 0.3624090793426614	-0.130346
C	0.1767926796179971 0.6922747789349112 0.3598441636040896	-0.124696
C	0.2129193819846869 0.7498190685370488 0.3850569940404391	0.067012
C	0.1767946559136090 0.8065012569907516 0.4132183364067755	-0.119127
C	0.1068624963249075 0.8052842406528679 0.4173315940815754	-0.125956
C	0.7178091054456014 0.6114203860764735 0.3336898826676939	0.105310
C	0.7164293215891738 0.5415220161869753 0.3297558410405240	-0.178066
C	0.7471754706628535 0.5034974398999514 0.3948292768310505	0.105482
C	0.7777079464261543 0.5391141811657042 0.4623139482375142	-0.178192
C	0.7767738994656856 0.6091160825327742 0.4622021680755074	0.106055
C	0.7478805687438947 0.4293399898400260 0.3917510173705455	0.054033
C	0.6915168764057481 0.3931769205523196 0.3624090793426614	-0.130345
C	0.6922747789349112 0.3232072963820012 0.3598441636040896	-0.124694
C	0.7498190685370488 0.2870806180153131 0.3850569940404391	0.067011
C	0.8065012569907516 0.3232053200863888 0.4132183364067755	-0.119118
C	0.8052842406528679 0.3931375036750925 0.4173315940815754	-0.125977
C	0.7821908945543986 0.8885796139235265 0.3336898826676939	0.105313
C	0.7835706784108262 0.9584779838130247 0.3297558410405240	-0.178068
C	0.7528245293371465 0.9965026081000454 0.3948292768310505	0.105483
C	0.7222920535738457 0.9608858668342998 0.4623139482375142	-0.178195
C	0.7232261005343144 0.8908839174672258 0.4622021680755074	0.106060
C	0.7521194312561053 0.0706600461599700 0.3917510173705455	0.054024
C	0.8084831235942519 0.1068230674476792 0.3624090793426614	-0.130347
C	0.8077251730650920 0.1767926796179971 0.3598441636040896	-0.124696
C	0.7501809314629512 0.2129193819846869 0.3850569940404391	0.067010
C	0.6934987430092484 0.1767946559136090 0.4132183364067755	-0.119126
C	0.6947157123471318 0.1068624963249075 0.4173315940815754	-0.125958
C	0.3885795899235315 0.2821909665543977 0.1663101333323075	0.105334
C	0.4584779358130279 0.2835707264108233 0.1702441279594771	-0.178075
C	0.4965025601000487 0.2528245773371434 0.1051707231689495	0.105475
C	0.4608859148342970 0.2222920055738417 0.0376860477624924	-0.178188
C	0.3908839414672208 0.2232261485343112 0.0377978239244918	0.106030
C	0.5706600101599743 0.2521194792561017 0.1082489746294539	0.054034
C	0.6068230794476802 0.3084831235942518 0.1375908896573395	-0.130353
C	0.6767926316179931 0.3077251970650867 0.1401558203959091	-0.124695
C	0.7129194299846907 0.2501809314629514 0.1149429829595626	0.067008
C	0.6767946319136072 0.1934987430092482 0.0867816785932220	-0.119107
C	0.6068625203249027 0.1947157233471290 0.0826684209184223	-0.125908
C	0.1114203860764738 0.2178090574456045 0.1663101333323075	0.105330
C	0.0415220041869743 0.2164292975891788 0.1702441279594771	-0.178067
C	0.0034974188999532 0.2471754226628566 0.1051707231689495	0.105474
C	0.0391141121657018 0.2777079944261581 0.0376860477624924	-0.178192
C	0.1091160225327762 0.2767738754656908 0.0377978239244918	0.106030
C	0.9293399418400289 0.2478804967438961 0.1082489746294539	0.054020
C	0.8931769685523167 0.1915169114057475 0.1375908896573395	-0.130230
C	0.8232073683820069 0.1922748149349071 0.1401558203959091	-0.124728
C	0.7870805700153093 0.2498190445370467 0.1149429829595626	0.067013
C	0.8232054150863931 0.3065012569907518 0.0867816785932220	-0.119109
C	0.8931375756750981 0.3052843116528704 0.0826684209184223	-0.126031
C	0.2821909665543977 0.1114203860764738 0.1663101333323075	0.105331
C	0.2835707264108233 0.0415220041869743 0.1702441279594771	-0.178074
C	0.2528245773371434 0.0034974188999532 0.1051707231689495	0.105483
C	0.2222920055738417 0.0391141121657018 0.0376860477624924	-0.178186
C	0.2232261485343112 0.1091160225327762 0.0377978239244918	0.106029
C	0.2521194792561017 0.9293399418400289 0.1082489746294539	0.054025
C	0.3084831235942518 0.8931769685523167 0.1375908896573395	-0.130344
C	0.3077251970650867 0.8232073683820069 0.1401558203959091	-0.124695
C	0.2501809314629514 0.7870805700153093 0.1149429829595626	0.067011
C	0.1934987430092482 0.8232054150863931 0.0867816785932220	-0.119125
C	0.1947157233471290 0.8931375756750981 0.0826684209184223	-0.125956
C	0.2178090574456045 0.3885795899235315 0.1663101333323075	0.105334
C	0.2164292975891788 0.4584779358130279 0.1702441279594771	-0.178068
C	0.2471754226628566 0.4965025601000487 0.1051707231689495	0.105466
C	0.2777079944261581 0.4608859148342970 0.0376860477624924	-0.178193
C	0.2767738754656908 0.3908839414672208 0.0377978239244918	0.106032
C	0.2478804967438961 0.5706600101599743 0.1082489746294539	0.054029
C	0.1915169114057475 0.6068230794476802 0.1375908896573395	-0.130239
C	0.1922748149349071 0.6767926316179931 0.1401558203959091	-0.124728
C	0.2498190445370467 0.7129194299846907 0.1149429829595626	0.067009
C	0.3065012569907518 0.6767946319136072 0.0867816785932220	-0.119091
C	0.3052843116528704 0.6068625203249027 0.0826684209184223	-0.125984
H	0.3580550915134988 0.1956625825694020 0.7173316160812984	0.100508
H	0.4829952217435886 0.1931003417001710 0.7253271945917308	0.115047
H	0.4874413769196568 0.3010816053276917 0.4841762746049575	0.114464
H	0.3620534699761102 0.2992718992240737 0.4854007539824918	0.099208
H	0.5795809123522975 0.1463267992598330 0.6570313652015599	0.100168
H	0.7042051280621922 0.1482625811110070 0.6631779868451922	0.101849
H	0.7041299806351282 0.3510604175129820 0.5653718045244428	0.102354
H	0.5797065207548336 0.3496969526139809 0.5604423286814876	0.103159
H	0.1419448724864984 0.3043374414305999 0.7173316160812984	0.100506
H	0.0170047842564047 0.3068996822998311 0.7253271945917308	0.115050
H	0.0125586120803456 0.1989184066723094 0.4841762746049575	0.114462
H	0.1379465540238919 0.2007280887759252 0.4854007539824918	0.099208
H	0.9204191346477029 0.3536732007401671 0.6570313652015599	0.100189
H	0.7957948719378078 0.3517374068889921 0.6631779868451922	0.101845
H	0.7958700193648718 0.1489395944870190 0.5653718045244428	0.102363
H	0.9202934792451664 0.1503030353860250 0.5604423286814876	0.103208
H	0.3043374414305999 0.3580550915134988 0.7173316160812984	0.100508
H	0.3068996822998311 0.4829952217435886 0.7253271945917308	0.115050
H	0.1989184066723094 0.4874413769196568 0.4841762746049575	0.114463
H	0.2007280887759252 0.3620534699761102 0.4854007539824918	0.099208
H	0.3536732007401671 0.5795809123522975 0.6570313652015599	0.100189
H	0.3517374068889921 0.7042051280621922 0.6631779868451922	0.101845
H	0.1489395944870190 0.7041299806351282 0.5653718045244428	0.102358
H	0.1503030353860250 0.5797065207548336 0.5604423286814876	0.103154
H	0.1956625825694020 0.1419448724864984 0.7173316160812984	0.100507
H	0.1931003417001710 0.0170047842564047 0.7253271945917308	0.115047
H	0.3010816053276917 0.0125586120803456 0.4841762746049575	0.114463
H	0.2992718992240737 0.1379465540238919 0.4854007539824918	0.099208
H	0.1463267992598330 0.9204191346477029 0.6570313652015599	0.100170
H	0.1482625811110070 0.7957948719378078 0.6631779868451922	0.101849
H	0.3510604175129820 0.7958700193648718 0.5653718045244428	0.102359
H	0.3496969526139809 0.9202934792451664 0.5604423286814876	0.103214
H	0.6419448604864973 0.6956625825694019 0.7826683839187016	0.100507
H	0.5170047302564073 0.6931003177001688 0.7746728054082692	0.115047
H	0.5125586230803427 0.8010816053276915 0.0158237103950377	0.114463
H	0.6379465300238901 0.7992718752240719 0.0145992740175105	0.099206
H	0.4204190876477029 0.6463267992598329 0.8429686347984401	0.100190
H	0.2957948959378098 0.6482625931110080 0.8368220131548078	0.101846
H	0.2958700193648718 0.8510604175129822 0.9346281954755572	0.102360
H	0.4202935272451633 0.8496969766139758 0.9395576713185124	0.103217
H	0.8580551875134995 0.8043374654306020 0.7826683839187016	0.100508
H	0.9829951737435919 0.8068996822998312 0.7746728054082692	0.115048
H	0.9874413289196604 0.6989183946723085 0.0158237103950377	0.114464
H	0.8620533739761090 0.7007281247759281 0.0145992740175105	0.099209
H	0.0795809123522972 0.8536732007401671 0.8429686347984401	0.100188
H	0.2042051040621902 0.8517374068889920 0.8368220131548078	0.101843
H	0.2041299806351284 0.6489396304870146 0.9346281954755572	0.102360
H	0.0797065147548331 0.6503030233860242 0.9395576713185124	0.103206
H	0.6956625825694019 0.8580551875134995 0.7826683839187016	0.100507
H	0.6931003177001688 0.9829951737435919 0.7746728054082692	0.115048
H	0.8010816053276915 0.9874413289196604 0.0158237103950377	0.114465
H	0.7992718752240719 0.8620533739761090 0.0145992740175105	0.099209
H	0.6463267992598329 0.0795809123522972 0.8429686347984401	0.100191
H	0.6482625931110080 0.2042051040621902 0.8368220131548078	0.101844
H	0.8510604175129822 0.2041299806351284 0.9346281954755572	0.102360
H	0.8496969766139758 0.0797065147548331 0.9395576713185124	0.103207
H	0.8043374654306020 0.6419448604864973 0.7826683839187016	0.100507
H	0.8068996822998312 0.5170047302564073 0.7746728054082692	0.115048
H	0.6989183946723085 0.5125586230803427 0.0158237103950377	0.114462
H	0.7007281247759281 0.6379465300238901 0.0145992740175105	0.099207
H	0.8536732007401671 0.4204190876477029 0.8429686347984401	0.100188
H	0.8517374068889920 0.2957948959378098 0.8368220131548078	0.101844
H	0.6489396304870146 0.2958700193648718 0.9346281954755572	0.102360
H	0.6503030233860242 0.4202935272451633 0.9395576713185124	0.103218
H	0.6419448604864973 0.8043374654306020 0.2826684159186975	0.100509
H	0.5170047302564073 0.8068996822998312 0.2746728364082685	0.115046
H	0.5125586230803427 0.6989183946723085 0.5158236943950436	0.114459
H	0.6379465300238901 0.7007281247759281 0.5145992460175083	0.099204
H	0.4204190876477029 0.8536732007401671 0.3429686037984412	0.100189
H	0.2957948959378098 0.8517374068889920 0.3368219811548053	0.101845
H	0.2958700193648718 0.6489396304870146 0.4346282264755565	0.102362
H	0.4202935272451633 0.6503030233860242 0.4395577333185107	0.103216
H	0.8580551875134995 0.6956625825694019 0.2826684159186975	0.100510
H	0.9829951737435919 0.6931003177001688 0.2746728364082685	0.115044
H	0.9874413289196604 0.8010816053276915 0.5158236943950436	0.114461
H	0.8620533739761090 0.7992718752240719 0.5145992460175083	0.099204
H	0.0795809123522972 0.6463267992598329 0.3429686037984412	0.100188
H	0.2042051040621902 0.6482625931110080 0.3368219811548053	0.101844
H	0.2041299806351284 0.8510604175129822 0.4346282264755565	0.102358
H	0.0797065147548331 0.8496969766139758 0.4395577333185107	0.103204
H	0.6956625825694019 0.6419448604864973 0.2826684159186975	0.100509
H	0.6931003177001688 0.5170047302564073 0.2746728364082685	0.115044
H	0.8010816053276915 0.5125586230803427 0.5158236943950436	0.114460
H	0.7992718752240719 0.6379465300238901 0.5145992460175083	0.099204
H	0.6463267992598329 0.4204190876477029 0.3429686037984412	0.100190
H	0.6482625931110080 0.2957948959378098 0.3368219811548053	0.101846
H	0.8510604175129822 0.2958700193648718 0.4346282264755565	0.102360
H	0.8496969766139758 0.4202935272451633 0.4395577333185107	0.103214
H	0.8043374654306020 0.8580551875134995 0.2826684159186975	0.100510
H	0.8068996822998312 0.9829951737435919 0.2746728364082685	0.115047
H	0.6989183946723085 0.9874413289196604 0.5158236943950436	0.114460
H	0.7007281247759281 0.8620533739761090 0.5145992460175083	0.099204
H	0.8536732007401671 0.0795809123522972 0.3429686037984412	0.100188
H	0.8517374068889920 0.2042051040621902 0.3368219811548053	0.101843
H	0.6489396304870146 0.2041299806351284 0.4346282264755565	0.102360
H	0.6503030233860242 0.0797065147548331 0.4395577333185107	0.103208
H	0.3580550915134988 0.3043374414305999 0.2173316160812981	0.100507
H	0.4829952217435886 0.3068996822998311 0.2253272095917354	0.115046
H	0.4874413769196568 0.1989184066723094 0.9841763366049625	0.114459
H	0.3620534699761102 0.2007280887759252 0.9854007229824927	0.099209
H	0.5795809123522975 0.3536732007401671 0.1570313802015575	0.100188
H	0.7042051280621922 0.3517374068889921 0.1631780338451924	0.101844
H	0.7041299806351282 0.1489395944870190 0.0653717655244428	0.102358
H	0.5797065207548336 0.1503030353860250 0.0604422896814879	0.103151
H	0.1419448724864984 0.1956625825694020 0.2173316160812981	0.100507
H	0.0170047842564047 0.1931003417001710 0.2253272095917354	0.115043
H	0.0125586120803456 0.3010816053276917 0.9841763366049625	0.114459
H	0.1379465540238919 0.2992718992240737 0.9854007229824927	0.099206
H	0.9204191346477029 0.1463267992598330 0.1570313802015575	0.100169
H	0.7957948719378078 0.1482625811110070 0.1631780338451924	0.101847
H	0.7958700193648718 0.3510604175129820 0.0653717655244428	0.102358
H	0.9202934792451664 0.3496969526139809 0.0604422896814879	0.103215
H	0.3043374414305999 0.1419448724864984 0.2173316160812981	0.100507
H	0.3068996822998311 0.0170047842564047 0.2253272095917354	0.115045
H	0.1989184066723094 0.0125586120803456 0.9841763366049625	0.114457
H	0.2007280887759252 0.1379465540238919 0.9854007229824927	0.099206
H	0.3536732007401671 0.9204191346477029 0.1570313802015575	0.100188
H	0.3517374068889921 0.7957948719378078 0.1631780338451924	0.101844
H	0.1489395944870190 0.7958700193648718 0.0653717655244428	0.102362
H	0.1503030353860250 0.9202934792451664 0.0604422896814879	0.103208
H	0.1956625825694020 0.3580550915134988 0.2173316160812981	0.100507
H	0.1931003417001710 0.4829952217435886 0.2253272095917354	0.115044
H	0.3010816053276917 0.4874413769196568 0.9841763366049625	0.114461
H	0.2992718992240737 0.3620534699761102 0.9854007229824927	0.099208
H	0.1463267992598330 0.5795809123522975 0.1570313802015575	0.100171
H	0.1482625811110070 0.7042051280621922 0.1631780338451924	0.101846
H	0.3510604175129820 0.7041299806351282 0.0653717655244428	0.102354
H	0.3496969526139809 0.5797065207548336 0.0604422896814879	0.103160
Ni	0.2500000000000000 0.2500000000000000 0.6006628524975611	0.785618
Ni	0.7500000000000000 0.7500000000000000 0.8993371475024389	0.785618
Ni	0.7500000000000000 0.7500000000000000 0.3993370855024411	0.785662
Ni	0.2500000000000000 0.2500000000000000 0.1006628754975593	0.785614
Ti	0.2500000000000000 0.2500000000000000 0.3509191930060936	2.339893
Ti	0.7500000000000000 0.7500000000000000 0.1490808219939040	2.339894
Ti	0.7500000000000000 0.7500000000000000 0.6490808999939035	2.339893
Ti	0.2500000000000000 0.2500000000000000 0.8509191000060965	2.339893
	  	
