#======================================================================

# CRYSTAL DATA

#----------------------------------------------------------------------

data_VESTA_phase_1


_pd_phase_name                         TIFSIX_5_Cu_i
_cell_length_a                         19.72754
_cell_length_b                         19.72754
_cell_length_c                         16.10540
_cell_angle_alpha                      90
_cell_angle_beta                       90
_cell_angle_gamma                      90
_symmetry_space_group_name_H-M         P 1
_symmetry_Int_Tables_number            1

loop_
_symmetry_equiv_pos_as_xyz
   x, y, z

loop_
   _atom_site_label
   _atom_site_fract_x
   _atom_site_fract_y
   _atom_site_fract_z
   _atom_site_charge
F	0.3235208446910681 0.1876341590209158 0.3511621815074628	-0.661764
F	0.1764791433089311 0.3123658409790842 0.3511621815074628	-0.661768
F	0.3123658409790842 0.3235208446910681 0.3511621815074628	-0.661767
F	0.1876341590209158 0.1764791433089311 0.3511621815074628	-0.661765
F	0.6764791793089272 0.6876341830209176 0.1488378184925372	-0.661765
F	0.8235208206910728 0.8123658169790824 0.1488378184925372	-0.661766
F	0.6876341830209176 0.8235208206910728 0.1488378184925372	-0.661767
F	0.8123658169790824 0.6764791793089272 0.1488378184925372	-0.661764
F	0.6764791793089272 0.8123658169790824 0.6488378504925398	-0.661768
F	0.8235208206910728 0.6876341830209176 0.6488378504925398	-0.661764
F	0.6876341830209176 0.6764791793089272 0.6488378504925398	-0.661765
F	0.8123658169790824 0.8235208206910728 0.6488378504925398	-0.661766
F	0.3235208446910681 0.3123658409790842 0.8511621495074602	-0.661767
F	0.1764791433089311 0.1876341590209158 0.8511621495074602	-0.661765
F	0.3123658409790842 0.1764791433089311 0.8511621495074602	-0.661765
F	0.1876341590209158 0.3235208446910681 0.8511621495074602	-0.661767
F	0.2500000000000000 0.2500000000000000 0.4691984715428926	-0.649320
F	0.2500000000000000 0.2500000000000000 0.2331812061932431	-0.649695
F	0.7500000000000000 0.7500000000000000 0.0308015554571060	-0.649319
F	0.7500000000000000 0.7500000000000000 0.2668187778067556	-0.649690
F	0.7500000000000000 0.7500000000000000 0.5308015594571058	-0.649317
F	0.7500000000000000 0.7500000000000000 0.7668187778067558	-0.649691
F	0.2500000000000000 0.2500000000000000 0.9691984405428942	-0.649318
F	0.2500000000000000 0.2500000000000000 0.7331812221932442	-0.649696
N	0.3532319531544425 0.2475185787176643 0.6013821191588886	-0.230238
N	0.1467680468455574 0.2524814212823358 0.6013821191588886	-0.230238
N	0.2524814212823358 0.3532319531544425 0.6013821191588886	-0.230239
N	0.2475185787176643 0.1467680468455574 0.6013821191588886	-0.230237
N	0.6467680708455592 0.7475185547176620 0.8986178808411114	-0.230202
N	0.8532319291544408 0.7524814452823380 0.8986178808411114	-0.230203
N	0.7475185547176620 0.8532319291544408 0.8986178808411114	-0.230204
N	0.7524814452823380 0.6467680708455592 0.8986178808411114	-0.230202
N	0.6467680708455592 0.7524814452823380 0.3986179118411106	-0.230201
N	0.8532319291544408 0.7475185547176620 0.3986179118411106	-0.230201
N	0.7475185547176620 0.6467680708455592 0.3986179118411106	-0.230200
N	0.7524814452823380 0.8532319291544408 0.3986179118411106	-0.230202
N	0.3532319531544425 0.2524814212823358 0.1013821191588884	-0.230236
N	0.1467680468455574 0.2475185787176643 0.1013821191588884	-0.230236
N	0.2524814212823358 0.1467680468455574 0.1013821191588884	-0.230235
N	0.2475185787176643 0.3532319531544425 0.1013821191588884	-0.230237
C	0.3864747108766829 0.2186684720564290 0.6652627998073649	0.104604
C	0.4567920299912667 0.2172863293235505 0.6688869133409208	-0.173990
C	0.4950030294923695 0.2471615284560404 0.6051721612447583	0.106671
C	0.4592533266333262 0.2768270497349542 0.5391416220620084	-0.176853
C	0.3888368746103758 0.2758498823759969 0.5390622987316472	0.103948
C	0.5696138193550266 0.2478712612248039 0.6081616496273765	0.054128
C	0.6059160676006802 0.1913961894582134 0.6375454457497015	-0.131082
C	0.6763522151450422 0.1922012959632368 0.6400884168756886	-0.124699
C	0.7127167539336496 0.2497924435189568 0.6146309443479673	0.068519
C	0.6764196891127360 0.3065473455968529 0.5864115792062776	-0.120527
C	0.6060316301622545 0.3054073835105809 0.5824708048906648	-0.124382
C	0.1135252651233222 0.2813315519435727 0.6652627998073649	0.104605
C	0.0432079100087354 0.2827136946764515 0.6688869133409208	-0.173993
C	0.0049969495076323 0.2528384715439596 0.6051721612447583	0.106668
C	0.0407467003666725 0.2231729502650458 0.5391416220620084	-0.176848
C	0.1111630893896213 0.2241501416240051 0.5390622987316472	0.103945
C	0.9303861326449765 0.2521287147751941 0.6081616496273765	0.054129
C	0.8940839803993167 0.3086038455417860 0.6375454457497015	-0.131079
C	0.8236477848549578 0.3077987160367571 0.6400884168756886	-0.124697
C	0.7872832460663504 0.2502075324810411 0.6146309443479673	0.068517
C	0.8235803578872644 0.1934526544031471 0.5864115792062776	-0.120523
C	0.8939684658377464 0.1945926514894188 0.5824708048906648	-0.124382
C	0.2813315519435727 0.3864747108766829 0.6652627998073649	0.104606
C	0.2827136946764515 0.4567920299912667 0.6688869133409208	-0.173993
C	0.2528384715439596 0.4950030294923695 0.6051721612447583	0.106669
C	0.2231729502650458 0.4592533266333262 0.5391416220620084	-0.176850
C	0.2241501416240051 0.3888368746103758 0.5390622987316472	0.103949
C	0.2521287147751941 0.5696138193550266 0.6081616496273765	0.054128
C	0.3086038455417860 0.6059160676006802 0.6375454457497015	-0.131082
C	0.3077987160367571 0.6763522151450422 0.6400884168756886	-0.124699
C	0.2502075324810411 0.7127167539336496 0.6146309443479673	0.068517
C	0.1934526544031471 0.6764196891127360 0.5864115792062776	-0.120526
C	0.1945926514894188 0.6060316301622545 0.5824708048906648	-0.124383
C	0.2186684720564290 0.1135252651233222 0.6652627998073649	0.104604
C	0.2172863293235505 0.0432079100087354 0.6688869133409208	-0.173990
C	0.2471615284560404 0.0049969495076323 0.6051721612447583	0.106670
C	0.2768270497349542 0.0407467003666725 0.5391416220620084	-0.176850
C	0.2758498823759969 0.1111630893896213 0.5390622987316472	0.103946
C	0.2478712612248039 0.9303861326449765 0.6081616496273765	0.054129
C	0.1913961894582134 0.8940839803993167 0.6375454457497015	-0.131079
C	0.1922012959632368 0.8236477848549578 0.6400884168756886	-0.124697
C	0.2497924435189568 0.7872832460663504 0.6146309443479673	0.068519
C	0.3065473455968529 0.8235803578872644 0.5864115792062776	-0.120524
C	0.3054073835105809 0.8939684658377464 0.5824708048906648	-0.124381
C	0.6135252651233224 0.7186685200564261 0.8347372001926351	0.104587
C	0.5432079220087360 0.7172863533235455 0.8311130866590792	-0.173999
C	0.5049969705076307 0.7471615764560371 0.8948278387552417	0.106672
C	0.5407467693666748 0.7768270017349501 0.9608583779379916	-0.176850
C	0.6111631493896189 0.7758499063759917 0.9609377012683528	0.103938
C	0.4303861806449731 0.7478713332248029 0.8918383503726235	0.054129
C	0.3940839323993199 0.6913961544582139 0.8624545542502985	-0.131079
C	0.3236477128549523 0.6922012599632411 0.8599115831243114	-0.124698
C	0.2872832940663544 0.7497924675189587 0.8853690556520327	0.068518
C	0.3235802628872603 0.8065473455968530 0.9135884207937224	-0.120526
C	0.3939683938377402 0.8054073125105784 0.9175291951093352	-0.124380
C	0.8864747348766776 0.7813314799435739 0.8347372001926351	0.104590
C	0.9567920779912640 0.7827136466764545 0.8311130866590792	-0.174004
C	0.9950030774923662 0.7528384235439629 0.8948278387552417	0.106674
C	0.9592532786333292 0.7231729982650499 0.9608583779379916	-0.176847
C	0.8888368506103811 0.7241500936240083 0.9609377012683528	0.103939
C	0.0696138553550227 0.7521286667751971 0.8918383503726235	0.054127
C	0.1059160556006790 0.8086038455417861 0.8624545542502985	-0.131081
C	0.1763522631450460 0.8077986920367620 0.8599115831243114	-0.124699
C	0.2127167059336456 0.7502075324810413 0.8853690556520327	0.068519
C	0.1764197131127378 0.6934526544031470 0.9135884207937224	-0.120526
C	0.1060316061622597 0.6945926404894213 0.9175291951093352	-0.124384
C	0.7186685200564261 0.8864747348766776 0.8347372001926351	0.104592
C	0.7172863533235455 0.9567920779912640 0.8311130866590792	-0.174001
C	0.7471615764560371 0.9950030774923662 0.8948278387552417	0.106673
C	0.7768270017349501 0.9592532786333292 0.9608583779379916	-0.176850
C	0.7758499063759917 0.8888368506103811 0.9609377012683528	0.103940
C	0.7478713332248029 0.0696138553550227 0.8918383503726235	0.054128
C	0.6913961544582139 0.1059160556006790 0.8624545542502985	-0.131082
C	0.6922012599632411 0.1763522631450460 0.8599115831243114	-0.124698
C	0.7497924675189587 0.2127167059336456 0.8853690556520327	0.068518
C	0.8065473455968530 0.1764197131127378 0.9135884207937224	-0.120525
C	0.8054073125105784 0.1060316061622597 0.9175291951093352	-0.124383
C	0.7813314799435739 0.6135252651233224 0.8347372001926351	0.104587
C	0.7827136466764545 0.5432079220087360 0.8311130866590792	-0.174001
C	0.7528384235439629 0.5049969705076307 0.8948278387552417	0.106673
C	0.7231729982650499 0.5407467693666748 0.9608583779379916	-0.176846
C	0.7241500936240083 0.6111631493896189 0.9609377012683528	0.103938
C	0.7521286667751971 0.4303861806449731 0.8918383503726235	0.054129
C	0.8086038455417861 0.3940839323993199 0.8624545542502985	-0.131079
C	0.8077986920367620 0.3236477128549523 0.8599115831243114	-0.124699
C	0.7502075324810413 0.2872832940663544 0.8853690556520327	0.068518
C	0.6934526544031470 0.3235802628872603 0.9135884207937224	-0.120526
C	0.6945926404894213 0.3939683938377402 0.9175291951093352	-0.124381
C	0.6135252651233224 0.7813314799435739 0.3347372311926339	0.104589
C	0.5432079220087360 0.7827136466764545 0.3311130866590789	-0.174002
C	0.5049969705076307 0.7528384235439629 0.3948278387552416	0.106672
C	0.5407467693666748 0.7231729982650499 0.4608584089379976	-0.176846
C	0.6111631493896189 0.7241500936240083 0.4609377012683527	0.103937
C	0.4303861806449731 0.7521286667751971 0.3918383503726232	0.054128
C	0.3940839323993199 0.8086038455417861 0.3624545232502995	-0.131078
C	0.3236477128549523 0.8077986920367620 0.3599116141243107	-0.124699
C	0.2872832940663544 0.7502075324810413 0.3853689616520318	0.068519
C	0.3235802628872603 0.6934526544031470 0.4135884517937210	-0.120524
C	0.3939683938377402 0.6945926404894213 0.4175291951093354	-0.124381
C	0.8864747348766776 0.7186685200564261 0.3347372311926339	0.104589
C	0.9567920779912640 0.7172863533235455 0.3311130866590789	-0.173999
C	0.9950030774923662 0.7471615764560371 0.3948278387552416	0.106675
C	0.9592532786333292 0.7768270017349501 0.4608584089379976	-0.176850
C	0.8888368506103811 0.7758499063759917 0.4609377012683527	0.103940
C	0.0696138553550227 0.7478713332248029 0.3918383503726232	0.054128
C	0.1059160556006790 0.6913961544582139 0.3624545232502995	-0.131081
C	0.1763522631450460 0.6922012599632411 0.3599116141243107	-0.124700
C	0.2127167059336456 0.7497924675189587 0.3853689616520318	0.068519
C	0.1764197131127378 0.8065473455968530 0.4135884517937210	-0.120528
C	0.1060316061622597 0.8054073125105784 0.4175291951093354	-0.124381
C	0.7186685200564261 0.6135252651233224 0.3347372311926339	0.104589
C	0.7172863533235455 0.5432079220087360 0.3311130866590789	-0.173999
C	0.7471615764560371 0.5049969705076307 0.3948278387552416	0.106673
C	0.7768270017349501 0.5407467693666748 0.4608584089379976	-0.176847
C	0.7758499063759917 0.6111631493896189 0.4609377012683527	0.103938
C	0.7478713332248029 0.4303861806449731 0.3918383503726232	0.054129
C	0.6913961544582139 0.3940839323993199 0.3624545232502995	-0.131078
C	0.6922012599632411 0.3236477128549523 0.3599116141243107	-0.124698
C	0.7497924675189587 0.2872832940663544 0.3853689616520318	0.068521
C	0.8065473455968530 0.3235802628872603 0.4135884517937210	-0.120525
C	0.8054073125105784 0.3939683938377402 0.4175291951093354	-0.124380
C	0.7813314799435739 0.8864747348766776 0.3347372311926339	0.104591
C	0.7827136466764545 0.9567920779912640 0.3311130866590789	-0.174002
C	0.7528384235439629 0.9950030774923662 0.3948278387552416	0.106673
C	0.7231729982650499 0.9592532786333292 0.4608584089379976	-0.176848
C	0.7241500936240083 0.8888368506103811 0.4609377012683527	0.103941
C	0.7521286667751971 0.0696138553550227 0.3918383503726232	0.054128
C	0.8086038455417861 0.1059160556006790 0.3624545232502995	-0.131081
C	0.8077986920367620 0.1763522631450460 0.3599116141243107	-0.124700
C	0.7502075324810413 0.2127167059336456 0.3853689616520318	0.068517
C	0.6934526544031470 0.1764197131127378 0.4135884517937210	-0.120526
C	0.6945926404894213 0.1060316061622597 0.4175291951093354	-0.124383
C	0.3864747108766829 0.2813315519435727 0.1652627848073673	0.104606
C	0.4567920299912667 0.2827136946764515 0.1688868823409219	-0.173993
C	0.4950030294923695 0.2528384715439596 0.1051721612447584	0.106671
C	0.4592533266333262 0.2231729502650458 0.0391415870620092	-0.176848
C	0.3888368746103758 0.2241501416240051 0.0390622907316467	0.103948
C	0.5696138193550266 0.2521287147751941 0.1081616416273761	0.054128
C	0.6059160676006802 0.3086038455417860 0.1375454457497014	-0.131080
C	0.6763522151450422 0.3077987160367571 0.1400883698756880	-0.124700
C	0.7127167539336496 0.2502075324810411 0.1146310153479700	0.068520
C	0.6764196891127360 0.1934526544031471 0.0864115632062766	-0.120526
C	0.6060316301622545 0.1945926514894188 0.0824708198906623	-0.124383
C	0.1135252651233222 0.2186684720564290 0.1652627848073673	0.104603
C	0.0432079100087354 0.2172863293235505 0.1688868823409219	-0.173988
C	0.0049969495076323 0.2471615284560404 0.1051721612447584	0.106669
C	0.0407467003666725 0.2768270497349542 0.0391415870620092	-0.176851
C	0.1111630893896213 0.2758498823759969 0.0390622907316467	0.103946
C	0.9303861326449765 0.2478712612248039 0.1081616416273761	0.054129
C	0.8940839803993167 0.1913961894582134 0.1375454457497014	-0.131079
C	0.8236477848549578 0.1922012959632368 0.1400883698756880	-0.124698
C	0.7872832460663504 0.2497924435189568 0.1146310153479700	0.068517
C	0.8235803578872644 0.3065473455968529 0.0864115632062766	-0.120525
C	0.8939684658377464 0.3054073835105809 0.0824708198906623	-0.124380
C	0.2813315519435727 0.1135252651233222 0.1652627848073673	0.104603
C	0.2827136946764515 0.0432079100087354 0.1688868823409219	-0.173991
C	0.2528384715439596 0.0049969495076323 0.1051721612447584	0.106670
C	0.2231729502650458 0.0407467003666725 0.0391415870620092	-0.176847
C	0.2241501416240051 0.1111630893896213 0.0390622907316467	0.103947
C	0.2521287147751941 0.9303861326449765 0.1081616416273761	0.054129
C	0.3086038455417860 0.8940839803993167 0.1375454457497014	-0.131078
C	0.3077987160367571 0.8236477848549578 0.1400883698756880	-0.124700
C	0.2502075324810411 0.7872832460663504 0.1146310153479700	0.068520
C	0.1934526544031471 0.8235803578872644 0.0864115632062766	-0.120526
C	0.1945926514894188 0.8939684658377464 0.0824708198906623	-0.124381
C	0.2186684720564290 0.3864747108766829 0.1652627848073673	0.104608
C	0.2172863293235505 0.4567920299912667 0.1688868823409219	-0.173990
C	0.2471615284560404 0.4950030294923695 0.1051721612447584	0.106670
C	0.2768270497349542 0.4592533266333262 0.0391415870620092	-0.176851
C	0.2758498823759969 0.3888368746103758 0.0390622907316467	0.103949
C	0.2478712612248039 0.5696138193550266 0.1081616416273761	0.054128
C	0.1913961894582134 0.6059160676006802 0.1375454457497014	-0.131081
C	0.1922012959632368 0.6763522151450422 0.1400883698756880	-0.124698
C	0.2497924435189568 0.7127167539336496 0.1146310153479700	0.068518
C	0.3065473455968529 0.6764196891127360 0.0864115632062766	-0.120525
C	0.3054073835105809 0.6060316301622545 0.0824708198906623	-0.124382
H	0.3555049490870557 0.1976272105243424 0.7151483278362544	0.105445
H	0.4815043599134758 0.1947144162197290 0.7227564003079426	0.117504
H	0.4860354833997775 0.2995219192070320 0.4868430083298647	0.117956
H	0.3595974731661081 0.2972960451584112 0.4878513159565520	0.106229
H	0.5783910755095295 0.1461420498679391 0.6570841401366503	0.101372
H	0.7039712897443064 0.1481854501376767 0.6632685109972560	0.102314
H	0.7040920754165277 0.3511296543508428 0.5650300991600524	0.102379
H	0.5786751548040067 0.3499248099346804 0.5603395620152776	0.103685
H	0.1444950149129412 0.3023728134756596 0.7151483278362544	0.105444
H	0.0184956460865176 0.3052856077802731 0.7227564003079426	0.117506
H	0.0139645056002253 0.2004780927929690 0.4868430083298647	0.117953
H	0.1404025508338940 0.2027039428415878 0.4878513159565520	0.106229
H	0.9216089714904708 0.3538579501320610 0.6570841401366503	0.101373
H	0.7960287102556936 0.3518145378623221 0.6632685109972560	0.102313
H	0.7959079245834723 0.1488703576491580 0.5650300991600524	0.102383
H	0.9213248451959933 0.1500751780653256 0.5603395620152776	0.103688
H	0.3023728134756596 0.3555049490870557 0.7151483278362544	0.105445
H	0.3052856077802731 0.4815043599134758 0.7227564003079426	0.117506
H	0.2004780927929690 0.4860354833997775 0.4868430083298647	0.117955
H	0.2027039428415878 0.3595974731661081 0.4878513159565520	0.106229
H	0.3538579501320610 0.5783910755095295 0.6570841401366503	0.101372
H	0.3518145378623221 0.7039712897443064 0.6632685109972560	0.102313
H	0.1488703576491580 0.7040920754165277 0.5650300991600524	0.102381
H	0.1500751780653256 0.5786751548040067 0.5603395620152776	0.103688
H	0.1976272105243424 0.1444950149129412 0.7151483278362544	0.105444
H	0.1947144162197290 0.0184956460865176 0.7227564003079426	0.117504
H	0.2995219192070320 0.0139645056002253 0.4868430083298647	0.117954
H	0.2972960451584112 0.1404025508338940 0.4878513159565520	0.106229
H	0.1461420498679391 0.9216089714904708 0.6570841401366503	0.101374
H	0.1481854501376767 0.7960287102556936 0.6632685109972560	0.102314
H	0.3511296543508428 0.7959079245834723 0.5650300991600524	0.102380
H	0.3499248099346804 0.9213248451959933 0.5603395620152776	0.103685
H	0.6444950029129400 0.6976272105243425 0.7848516721637456	0.105440
H	0.5184955920865203 0.6947143922197272 0.7772435996920574	0.117505
H	0.5139645166002229 0.7995219192070320 0.0131569766701306	0.117954
H	0.6404025268338921 0.7972960211584094 0.0121487120434502	0.106228
H	0.4216089244904704 0.6461420498679391 0.8429158598633497	0.101373
H	0.2960287342556956 0.6481854621376776 0.8367314890027440	0.102314
H	0.2959079245834721 0.8511296543508429 0.9349699008399476	0.102381
H	0.4213248931959901 0.8499248339346757 0.9396604379847224	0.103687
H	0.8555050450870568 0.8023728374756615 0.7848516721637456	0.105441
H	0.9815043119134789 0.8052856077802728 0.7772435996920574	0.117507
H	0.9860354353997802 0.7004780807929680 0.0131569766701306	0.117955
H	0.8595973771661071 0.7027039788415906 0.0121487120434502	0.106231
H	0.0783910755095295 0.8538579501320609 0.8429158598633497	0.101371
H	0.2039712657443045 0.8518145378623224 0.8367314890027440	0.102311
H	0.2040920754165279 0.6488703936491540 0.9349699008399476	0.102381
H	0.0786751488040063 0.6500751660653243 0.9396604379847224	0.103686
H	0.6976272105243425 0.8555050450870568 0.7848516721637456	0.105440
H	0.6947143922197272 0.9815043119134789 0.7772435996920574	0.117506
H	0.7995219192070320 0.9860354353997802 0.0131569766701306	0.117957
H	0.7972960211584094 0.8595973771661071 0.0121487120434502	0.106230
H	0.6461420498679391 0.0783910755095295 0.8429158598633497	0.101374
H	0.6481854621376776 0.2039712657443045 0.8367314890027440	0.102313
H	0.8511296543508429 0.2040920754165279 0.9349699008399476	0.102380
H	0.8499248339346757 0.0786751488040063 0.9396604379847224	0.103686
H	0.8023728374756615 0.6444950029129400 0.7848516721637456	0.105440
H	0.8052856077802728 0.5184955920865203 0.7772435996920574	0.117506
H	0.7004780807929680 0.5139645166002229 0.0131569766701306	0.117953
H	0.7027039788415906 0.6404025268338921 0.0121487120434502	0.106228
H	0.8538579501320609 0.4216089244904704 0.8429158598633497	0.101371
H	0.8518145378623224 0.2960287342556956 0.8367314890027440	0.102313
H	0.6488703936491540 0.2959079245834721 0.9349699008399476	0.102382
H	0.6500751660653243 0.4213248931959901 0.9396604379847224	0.103688
H	0.6444950029129400 0.8023728374756615 0.2848517041637408	0.105439
H	0.5184955920865203 0.8052856077802728 0.2772436306920567	0.117506
H	0.5139645166002229 0.7004780807929680 0.5131569606701362	0.117951
H	0.6404025268338921 0.7027039788415906 0.5121486840434478	0.106229
H	0.4216089244904704 0.8538579501320609 0.3429158288633507	0.101372
H	0.2960287342556956 0.8518145378623224 0.3367314570027414	0.102313
H	0.2959079245834721 0.6488703936491540 0.4349699318399466	0.102384
H	0.4213248931959901 0.6500751660653243 0.4396604999847201	0.103687
H	0.8555050450870568 0.6976272105243425 0.2848517041637408	0.105441
H	0.9815043119134789 0.6947143922197272 0.2772436306920567	0.117503
H	0.9860354353997802 0.7995219192070320 0.5131569606701362	0.117954
H	0.8595973771661071 0.7972960211584094 0.5121486840434478	0.106229
H	0.0783910755095295 0.6461420498679391 0.3429158288633507	0.101372
H	0.2039712657443045 0.6481854621376776 0.3367314570027414	0.102313
H	0.2040920754165279 0.8511296543508429 0.4349699318399466	0.102378
H	0.0786751488040063 0.8499248339346757 0.4396604999847201	0.103684
H	0.6976272105243425 0.6444950029129400 0.2848517041637408	0.105439
H	0.6947143922197272 0.5184955920865203 0.2772436306920567	0.117503
H	0.7995219192070320 0.5139645166002229 0.5131569606701362	0.117952
H	0.7972960211584094 0.6404025268338921 0.5121486840434478	0.106229
H	0.6461420498679391 0.4216089244904704 0.3429158288633507	0.101373
H	0.6481854621376776 0.2960287342556956 0.3367314570027414	0.102314
H	0.8511296543508429 0.2959079245834721 0.4349699318399466	0.102381
H	0.8499248339346757 0.4213248931959901 0.4396604999847201	0.103684
H	0.8023728374756615 0.8555050450870568 0.2848517041637408	0.105441
H	0.8052856077802728 0.9815043119134789 0.2772436306920567	0.117506
H	0.7004780807929680 0.9860354353997802 0.5131569606701362	0.117953
H	0.7027039788415906 0.8595973771661071 0.5121486840434478	0.106229
H	0.8538579501320609 0.0783910755095295 0.3429158288633507	0.101371
H	0.8518145378623224 0.2039712657443045 0.3367314570027414	0.102312
H	0.6488703936491540 0.2040920754165279 0.4349699318399466	0.102380
H	0.6500751660653243 0.0786751488040063 0.4396604999847201	0.103687
H	0.3555049490870557 0.3023728134756596 0.2151483278362547	0.105444
H	0.4815043599134758 0.3052856077802731 0.2227564153079472	0.117504
H	0.4860354833997775 0.2004780927929690 0.9868430703298700	0.117953
H	0.3595974731661081 0.2027039428415878 0.9878512849565532	0.106230
H	0.5783910755095295 0.3538579501320610 0.1570841551366480	0.101371
H	0.7039712897443064 0.3518145378623221 0.1632685579972563	0.102312
H	0.7040920754165277 0.1488703576491580 0.0650300601600526	0.102381
H	0.5786751548040067 0.1500751780653256 0.0603395230152782	0.103685
H	0.1444950149129412 0.1976272105243424 0.2151483278362547	0.105444
H	0.0184956460865176 0.1947144162197290 0.2227564153079472	0.117502
H	0.0139645056002253 0.2995219192070320 0.9868430703298700	0.117952
H	0.1404025508338940 0.2972960451584112 0.9878512849565532	0.106228
H	0.9216089714904708 0.1461420498679391 0.1570841551366480	0.101373
H	0.7960287102556936 0.1481854501376767 0.1632685579972563	0.102313
H	0.7959079245834723 0.3511296543508428 0.0650300601600526	0.102380
H	0.9213248451959933 0.3499248099346804 0.0603395230152782	0.103686
H	0.3023728134756596 0.1444950149129412 0.2151483278362547	0.105444
H	0.3052856077802731 0.0184956460865176 0.2227564153079472	0.117503
H	0.2004780927929690 0.0139645056002253 0.9868430703298700	0.117950
H	0.2027039428415878 0.1404025508338940 0.9878512849565532	0.106228
H	0.3538579501320610 0.9216089714904708 0.1570841551366480	0.101371
H	0.3518145378623221 0.7960287102556936 0.1632685579972563	0.102313
H	0.1488703576491580 0.7959079245834723 0.0650300601600526	0.102382
H	0.1500751780653256 0.9213248451959933 0.0603395230152782	0.103687
H	0.1976272105243424 0.3555049490870557 0.2151483278362547	0.105444
H	0.1947144162197290 0.4815043599134758 0.2227564153079472	0.117503
H	0.2995219192070320 0.4860354833997775 0.9868430703298700	0.117954
H	0.2972960451584112 0.3595974731661081 0.9878512849565532	0.106230
H	0.1461420498679391 0.5783910755095295 0.1570841551366480	0.101374
H	0.1481854501376767 0.7039712897443064 0.1632685579972563	0.102312
H	0.3511296543508428 0.7040920754165277 0.0650300601600526	0.102379
H	0.3499248099346804 0.5786751548040067 0.0603395230152782	0.103685
Cu	0.2500000000000000 0.2500000000000000 0.6007486184287780	0.748587
Cu	0.7500000000000000 0.7500000000000000 0.8992513815712220	0.748566
Cu	0.7500000000000000 0.7500000000000000 0.3992513195712240	0.748562
Cu	0.2500000000000000 0.2500000000000000 0.1007486414287764	0.748583
Ti	0.2500000000000000 0.2500000000000000 0.3512344131286904	2.345542
Ti	0.7500000000000000 0.7500000000000000 0.1487656018713073	2.345541
Ti	0.7500000000000000 0.7500000000000000 0.6487656798713067	2.345541
Ti	0.2500000000000000 0.2500000000000000 0.8512343201286933	2.345542
	  	
