#======================================================================

# CRYSTAL DATA

#----------------------------------------------------------------------

data_VESTA_phase_1


_pd_phase_name                         TIFSIX_18_Cu
_cell_length_a                         13.81870
_cell_length_b                         13.54948
_cell_length_c                         8.47931
_cell_angle_alpha                      90
_cell_angle_beta                       95.38551
_cell_angle_gamma                      90
_symmetry_space_group_name_H-M         P 1
_symmetry_Int_Tables_number            1

loop_
_symmetry_equiv_pos_as_xyz
   x, y, z

loop_
   _atom_site_label
   _atom_site_fract_x
   _atom_site_fract_y
   _atom_site_fract_z
   _atom_site_charge
F	0.4072648089185645 0.3607290332529046 0.5147399185354972	-0.638023
F	0.5229365059120834 0.4700012438754612 0.7260447968472252	-0.639022
F	0.4003007564929189 0.5584809458312691 0.5149344004101108	-0.625416
F	0.9072648429185602 0.8607289642529022 0.5147399185354972	-0.638023
F	0.0229365319120791 0.9700012088754618 0.7260447968472252	-0.639022
F	0.9003007904929214 0.0584809118312741 0.5149344004101108	-0.625416
F	0.5927351540814360 0.3607290332529046 0.4852600814645033	-0.638023
F	0.4770634910879192 0.4700012438754612 0.2739552031527749	-0.639021
F	0.5996992395070810 0.5584809458312691 0.4850656005898925	-0.625416
F	0.0927351750814340 0.8607289642529022 0.4852600814645033	-0.638023
F	0.9770633560879194 0.9700012088754618 0.2739552031527749	-0.639022
F	0.0996992145070821 0.0584809118312741 0.4850656005898925	-0.625416
C	0.6844716754448573 0.1587576269359028 0.6655535607611771	-0.424151
C	0.7587035155642803 0.1534983231949591 0.8044008390243687	0.214000
C	0.7619249577558372 0.1976437870701711 0.9542675876058304	-0.151738
C	0.6895852257049536 0.2628557725583432 0.0131257270843645	-0.143438
C	0.6731044955576210 0.3630672905904015 0.9713594684328484	0.224425
C	0.7296299512866909 0.4252526628572388 0.8680174976410221	-0.432019
C	0.8914861549556404 0.1975871684987444 0.1978776343508953	-0.438753
C	0.8515085539695830 0.1683638641357681 0.0354824261125447	0.219784
C	0.6235249924269928 0.2407291525923178 0.1239829754044164	0.217891
C	0.6050748741581866 0.1491271467590256 0.2133160240299548	-0.426854
C	0.1844717254448543 0.6587576789358992 0.6655535607611771	-0.424151
C	0.2587035495642835 0.6534983061949542 0.8044008390243687	0.214004
C	0.2619249237558342 0.6976437530701678 0.9542675876058304	-0.151739
C	0.1895852257049541 0.7628557895583411 0.0131257270843645	-0.143439
C	0.1731044785576160 0.8630673245904041 0.9713594684328484	0.224426
C	0.2296299672866852 0.9252526278572396 0.8680174976410221	-0.432018
C	0.3914860539556360 0.6975870824987447 0.1978776343508953	-0.438801
C	0.3515086219695814 0.6683638641357684 0.0354824261125446	0.219805
C	0.1235249674269938 0.7407290665923181 0.1239829754044164	0.217891
C	0.1050749581581860 0.6491272157590269 0.2133160240299548	-0.426854
C	0.3155283215551458 0.1587576269359028 0.3344464402388261	-0.424150
C	0.2412964774357155 0.1534983231949591 0.1955990809756322	0.214000
C	0.2380750712441618 0.1976437870701711 0.0457323883941745	-0.151738
C	0.3104147702950456 0.2628557725583432 0.9868742639156378	-0.143438
C	0.3268955704423847 0.3630672905904015 0.0286405825671521	0.224425
C	0.2703700637133139 0.4252526628572388 0.1319825183589793	-0.432018
C	0.1085139280443624 0.1975871684987444 0.8021224136491087	-0.438783
C	0.1484914250304188 0.1683638641357681 0.9645175618874546	0.219789
C	0.3764750385730067 0.2407291525923178 0.8760170485955793	0.217890
C	0.3949250518418150 0.1491271467590256 0.7866838969700493	-0.426852
C	0.8155283215551460 0.6587576789358992 0.3344464402388261	-0.424151
C	0.7412964774357156 0.6534983061949542 0.1955990809756322	0.214004
C	0.7380750372441659 0.6976437530701678 0.0457323883941745	-0.151739
C	0.8104147702950460 0.7628557895583411 0.9868742639156378	-0.143439
C	0.8268955034423825 0.8630673245904041 0.0286405825671521	0.224426
C	0.7703700467133089 0.9252526278572396 0.1319825183589793	-0.432018
C	0.6085138440443630 0.6975870824987447 0.8021224136491087	-0.438774
C	0.6484914420304166 0.6683638641357684 0.9645175618874546	0.219800
C	0.8764750045730034 0.7407290665923181 0.8760170485955793	0.217890
C	0.8949251188418164 0.6491272157590269 0.7866838969700493	-0.426852
H	0.7182880324311356 0.1755573334512994 0.5565469943115371	0.156152
H	0.6311832847778376 0.2167803065440310 0.6822684267115083	0.147486
H	0.6459170873893003 0.0879431692421269 0.6472777526668242	0.133399
H	0.6820735475429421 0.4674224723767285 0.7822319280370459	0.150080
H	0.7774748635250217 0.3788893784143845 0.8031005246792338	0.141427
H	0.7752096330603490 0.4777348632194502 0.9408653802084275	0.128107
H	0.8681923947453328 0.0704227901445019 0.7030376994213029	0.288847
H	0.8912373888170823 0.1365794883359054 0.2830080852296257	0.154196
H	0.8477863066857227 0.2579284684924879 0.2407343340436874	0.138703
H	0.9670224518071443 0.2227483703508297 0.1980864358659238	0.143109
H	0.5804781447173878 0.1676773456798339 0.3290810021546082	0.151185
H	0.6710112955337975 0.1040983460796087 0.2317814066206452	0.152822
H	0.5483442623525301 0.1034391792961155 0.1492182034102230	0.133085
H	0.5235293491999423 0.3401011008876526 0.2200560758903909	0.277191
H	0.2182880834311361 0.6755572304513013 0.5565469943115371	0.156152
H	0.1311833687778374 0.7167802375440289 0.6822684267115083	0.147486
H	0.1459171373892980 0.5879431092421220 0.6472777526668242	0.133399
H	0.1820735645429398 0.9674224043767230 0.7822319280370459	0.150080
H	0.2774748975250246 0.8788894124143873 0.8031005246792338	0.141426
H	0.2752096660603479 0.9777348632194504 0.9408653802084275	0.128106
H	0.3681923607453372 0.5704228331445015 0.7030376994213029	0.288847
H	0.3912374558170835 0.6365794543359030 0.2830080852296257	0.154201
H	0.3477862386857229 0.7579285034924871 0.2407343340436874	0.138714
H	0.4670225188071397 0.7227484213508241 0.1980864358659238	0.143132
H	0.0804781367173869 0.6676773626798319 0.3290810021546082	0.151185
H	0.1710112615337940 0.6040983030796090 0.2317814066206452	0.152822
H	0.0483442983525332 0.6034391272961187 0.1492182034102230	0.133085
H	0.0235293341999449 0.8401011008876529 0.2200560758903909	0.277191
H	0.2817118985688692 0.1755573334512994 0.4434530376884584	0.156152
H	0.3688166142221574 0.2167803065440310 0.3177316382884930	0.147484
H	0.3540828416107040 0.0879431692421269 0.3527222473331753	0.133401
H	0.3179264474570612 0.4674224723767285 0.2177680399629587	0.150080
H	0.2225251314749743 0.3788893784143845 0.1968994433207628	0.141429
H	0.2247903629396581 0.4777348632194502 0.0591345927915736	0.128105
H	0.1318076062546636 0.0704227901445019 0.2969622055786932	0.288847
H	0.1087625341829153 0.1365794883359054 0.7169919467703767	0.154200
H	0.1522137573142765 0.2579284684924879 0.7592656659563121	0.138710
H	0.0329774771928602 0.2227483703508297 0.8019135961340720	0.143129
H	0.4195218852826149 0.1676773456798339 0.6709189978453918	0.151183
H	0.3289887664662079 0.1040983460796087 0.7682185453793509	0.152821
H	0.4516557026474706 0.1034391792961155 0.8507818365897808	0.133080
H	0.4764706118000577 0.3401011008876526 0.7799438771096096	0.277190
H	0.7817119655688642 0.6755572304513013 0.4434530376884584	0.156152
H	0.8688167152221624 0.7167802375440289 0.3177316382884930	0.147484
H	0.8540828416107045 0.5879431092421220 0.3527222473331753	0.133401
H	0.8179264474570610 0.9674224043767230 0.2177680399629587	0.150080
H	0.7225251314749743 0.8788894124143873 0.1968994433207628	0.141428
H	0.7247903629396578 0.9777348632194504 0.0591345927915736	0.128104
H	0.6318075972546665 0.5704228331445015 0.2969622055786932	0.288848
H	0.6087626431829133 0.6365794543359030 0.7169919467703767	0.154198
H	0.6522136903142735 0.7579285034924871 0.7592656659563121	0.138713
H	0.5329775131928565 0.7227484213508241 0.8019135961340720	0.143119
H	0.9195218182826127 0.6676773626798319 0.6709189978453918	0.151183
H	0.8289886994662057 0.6040983030796090 0.7682185453793509	0.152821
H	0.9516557026474706 0.6034391272961187 0.8507818365897808	0.133080
H	0.9764705778000623 0.8401011008876529 0.7799438771096096	0.277190
N	0.8412576064181186 0.1004840689550107 0.8025272825353809	-0.146682
N	0.6001733631836432 0.3986803983224111 0.0498320359792227	-0.239006
N	0.8987851658019168 0.1090444929589173 0.9407286675851075	-0.244633
N	0.5720409473165297 0.3237534033983640 0.1403843644081178	-0.143647
N	0.3412576064181185 0.6004839919550150 0.8025272825353809	-0.146692
N	0.1001734301836455 0.8986803983224113 0.0498320359792227	-0.239008
N	0.3987851998019199 0.6090445439589178 0.9407286675851075	-0.244627
N	0.0720409393165289 0.8237533683983647 0.1403843644081178	-0.143646
N	0.1587423755818800 0.1004840689550107 0.1974727654646161	-0.146682
N	0.3998265308163545 0.3986803983224111 0.9501679400207750	-0.239005
N	0.1012148041980805 0.1090444929589173 0.0592713124148912	-0.244633
N	0.4279590496834738 0.3237534033983640 0.8596156515918837	-0.143646
N	0.6587423925818777 0.6004839919550150 0.1974727654646161	-0.146692
N	0.8998266318163599 0.8986803983224113 0.9501679400207750	-0.239007
N	0.6012148291980863 0.6090445439589178 0.0592713124148912	-0.244625
N	0.9279590836834695 0.8237533683983647 0.8596156515918837	-0.143645
Ti	0.4999999979999998 0.4609890922701217 0.5000000000000000	2.302481
Ti	0.0000000000000000 0.9609890922701222 0.5000000000000000	2.302481
Cu	0.5000000000000000 0.5069730921255499 -0.0000000000000000	0.740480
Cu	0.0000000000000000 0.0069730991255537 -0.0000000000000000	0.740505
	  	
