#======================================================================

# CRYSTAL DATA

#----------------------------------------------------------------------

data_VESTA_phase_1


_pd_phase_name                         TIFSIX_16_Cd_i
_cell_length_a                         25.49911
_cell_length_b                         25.49911
_cell_length_c                         8.18660
_cell_angle_alpha                      90
_cell_angle_beta                       90
_cell_angle_gamma                      90
_symmetry_space_group_name_H-M         P 1
_symmetry_Int_Tables_number            1

loop_
_symmetry_equiv_pos_as_xyz
   x, y, z

loop_
   _atom_site_label
   _atom_site_fract_x
   _atom_site_fract_y
   _atom_site_fract_z
   _atom_site_charge
C	0.4796295852148328 0.3816882348765763 0.3729048702931415	0.100642
C	0.4785071989597456 0.3272107456880314 0.3686542403412097	-0.169428
C	0.9558458145696790 0.6114068606538471 0.9443127127028716	-0.124911
C	0.9559556519571090 0.5569529179455813 0.9451134358189562	-0.124555
C	0.5203704527851629 0.6183118031234200 0.3729048702931415	0.100643
C	0.5214928010402544 0.6727892923119640 0.3686542403412097	-0.169423
C	0.0441541094303216 0.3885931003461534 0.9443127127028716	-0.124911
C	0.0440443670428891 0.4430471200544215 0.9451134358189562	-0.124555
C	0.6183118031234200 0.4796295852148328 0.3729048702931415	0.100643
C	0.6727892923119640 0.4785071989597456 0.3686542403412097	-0.169423
C	0.3885931003461534 0.9558458145696790 0.9443127127028716	-0.124911
C	0.4430471200544215 0.9559556519571090 0.9451134358189562	-0.124555
C	0.3816882348765763 0.5203704527851629 0.3729048702931415	0.100642
C	0.3272107456880314 0.5214928010402544 0.3686542403412097	-0.169428
C	0.6114068606538471 0.0441541094303216 0.9443127127028716	-0.124912
C	0.5569529179455813 0.0440443670428891 0.9451134358189562	-0.124555
C	0.5203704527851629 0.3816882348765763 0.6270951297068585	0.100643
C	0.5214928010402544 0.3272107456880314 0.6313457276587874	-0.169427
C	0.0441541094303216 0.6114068606538471 0.0556872992971296	-0.124912
C	0.0440443670428891 0.5569529179455813 0.0548865401810416	-0.124555
C	0.4796295852148328 0.6183118031234200 0.6270951297068585	0.100643
C	0.4785071989597456 0.6727892923119640 0.6313457276587874	-0.169423
C	0.9558458145696790 0.3885931003461534 0.0556872992971296	-0.124911
C	0.9559556519571090 0.4430471200544215 0.0548865401810416	-0.124555
C	0.3816882348765763 0.4796295852148328 0.6270951297068585	0.100643
C	0.3272107456880314 0.4785071989597456 0.6313457276587874	-0.169427
C	0.6114068606538471 0.9558458145696790 0.0556872992971296	-0.124911
C	0.5569529179455813 0.9559556519571090 0.0548865401810416	-0.124555
C	0.6183118031234200 0.5203704527851629 0.6270951297068585	0.100643
C	0.6727892923119640 0.5214928010402544 0.6313457276587874	-0.169423
C	0.3885931003461534 0.0441541094303216 0.0556872992971296	-0.124911
C	0.4430471200544215 0.0440443670428891 0.0548865401810416	-0.124555
C	0.5441541474303250 0.8885930623461572 0.5556873192971239	-0.124911
C	0.5440443480428910 0.9430471200544218 0.5548865321810411	-0.124554
C	0.0203704067851664 0.1183117461234257 0.1270951297068585	0.100642
C	0.0214927990402543 0.1727892543119683 0.1313457436587888	-0.169428
C	0.4558458905696786 0.1114069086538440 0.5556873192971239	-0.124911
C	0.4559556139571129 0.0569528649455808 0.5548865321810411	-0.124555
C	0.9796295472148371 0.8816881968765800 0.1270951297068585	0.100642
C	0.9785071989597456 0.8272107456880320 0.1313457436587888	-0.169428
C	0.1114069086538440 0.5441541474303250 0.5556873192971239	-0.124911
C	0.0569528649455808 0.5440443480428910 0.5548865321810411	-0.124555
C	0.8816881968765800 0.0203704067851664 0.1270951297068585	0.100643
C	0.8272107456880320 0.0214927990402543 0.1313457436587888	-0.169428
C	0.8885930623461572 0.4558458905696786 0.5556873192971239	-0.124911
C	0.9430471200544218 0.4559556139571129 0.5548865321810411	-0.124554
C	0.1183117461234257 0.9796295472148371 0.1270951297068585	0.100642
C	0.1727892543119683 0.9785071989597456 0.1313457436587888	-0.169428
C	0.4558458905696786 0.8885930623461572 0.4443127127028714	-0.124916
C	0.4559556139571129 0.9430471200544218 0.4451134678189591	-0.124541
C	0.9796295472148371 0.1183117461234257 0.8729049022931370	0.100643
C	0.9785071989597456 0.1727892543119683 0.8686542403412100	-0.169427
C	0.5441541474303250 0.1114069086538440 0.4443127127028714	-0.124917
C	0.5440443480428910 0.0569528649455808 0.4451134678189591	-0.124542
C	0.0203704067851664 0.8816881968765800 0.8729049022931370	0.100643
C	0.0214927990402543 0.8272107456880320 0.8686542403412100	-0.169427
C	0.8885930623461572 0.5441541474303250 0.4443127127028714	-0.124916
C	0.9430471200544218 0.5440443480428910 0.4451134678189591	-0.124541
C	0.1183117461234257 0.0203704067851664 0.8729049022931370	0.100643
C	0.1727892543119683 0.0214927990402543 0.8686542403412100	-0.169427
C	0.1114069086538440 0.4558458905696786 0.4443127127028714	-0.124917
C	0.0569528649455808 0.4559556139571129 0.4451134678189591	-0.124542
C	0.8816881968765800 0.9796295472148371 0.8729049022931370	0.100643
C	0.8272107456880320 0.9785071989597456 0.8686542403412100	-0.169427
C	0.5000000000000000 0.2987319249037786 0.5000000000000000	0.174629
C	0.5000000000000000 0.2430875212085150 0.5000000000000000	-0.115062
C	0.5000000000000000 0.1952479893460187 0.5000000000000000	-0.094316
C	0.5000000000000000 0.1395961659821636 0.5000000000000000	0.124304
C	0.5000000000000000 0.0288598860582669 0.5000000000000000	0.066032
C	0.0000000000000000 0.7987319059037736 -0.0000000000000000	0.174629
C	0.0000000000000000 0.7430875012085135 -0.0000000000000000	-0.115061
C	0.0000000000000000 0.6952479513460221 -0.0000000000000000	-0.094316
C	0.0000000000000000 0.6395961279821606 -0.0000000000000000	0.124304
C	0.0000000000000000 0.5288599000582681 -0.0000000000000000	0.066036
C	0.5000000000000000 0.7012680560962232 0.5000000000000000	0.174592
C	0.5000000000000000 0.7569125367914825 0.5000000000000000	-0.115088
C	0.5000000000000000 0.8047520106539818 0.5000000000000000	-0.094242
C	0.5000000000000000 0.8604038340178363 0.5000000000000000	0.124282
C	0.5000000000000000 0.9711400999417319 0.5000000000000000	0.066032
C	0.0000000000000000 0.2012680750962213 -0.0000000000000000	0.174629
C	0.0000000000000000 0.2569124787914848 -0.0000000000000000	-0.115062
C	0.0000000000000000 0.3047519906539798 -0.0000000000000000	-0.094316
C	0.0000000000000000 0.3604038340178363 -0.0000000000000000	0.124304
C	0.0000000000000000 0.4711401379417348 -0.0000000000000000	0.066036
C	0.7012680560962232 0.5000000000000000 0.5000000000000000	0.174592
C	0.7569125367914825 0.5000000000000000 0.5000000000000000	-0.115088
C	0.8047520106539818 0.5000000000000000 0.5000000000000000	-0.094242
C	0.8604038340178363 0.5000000000000000 0.5000000000000000	0.124282
C	0.9711400999417319 0.5000000000000000 0.5000000000000000	0.066032
C	0.2012680750962213 0.0000000000000000 -0.0000000000000000	0.174629
C	0.2569124787914848 0.0000000000000000 -0.0000000000000000	-0.115062
C	0.3047519906539798 0.0000000000000000 -0.0000000000000000	-0.094316
C	0.3604038340178363 0.0000000000000000 -0.0000000000000000	0.124304
C	0.4711401379417348 0.0000000000000000 -0.0000000000000000	0.066036
C	0.2987319249037786 0.5000000000000000 0.5000000000000000	0.174629
C	0.2430875212085150 0.5000000000000000 0.5000000000000000	-0.115062
C	0.1952479893460187 0.5000000000000000 0.5000000000000000	-0.094316
C	0.1395961659821636 0.5000000000000000 0.5000000000000000	0.124304
C	0.0288598860582669 0.5000000000000000 0.5000000000000000	0.066032
C	0.7987319059037736 0.0000000000000000 -0.0000000000000000	0.174629
C	0.7430875012085135 0.0000000000000000 -0.0000000000000000	-0.115061
C	0.6952479513460221 0.0000000000000000 -0.0000000000000000	-0.094316
C	0.6395961279821606 0.0000000000000000 -0.0000000000000000	0.124304
C	0.5288599000582681 0.0000000000000000 -0.0000000000000000	0.066036
H	0.4643040394453931 0.4049673782719341 0.2714026779521564	0.105821
H	0.4613690689432542 0.3070108689733653 0.2643692502567185	0.127364
H	0.9218097071433068 0.6328961376441409 0.8996867834546693	0.111982
H	0.9220031375697325 0.5355299641561534 0.8987204902311609	0.106098
H	0.5356959605546066 0.5950326217280661 0.2714026779521564	0.105821
H	0.5386309690567489 0.6929892070266336 0.2643692502567185	0.127363
H	0.0781902738566950 0.3671038623558590 0.8996867834546693	0.111982
H	0.0779968914302661 0.4644700748438462 0.8987204902311609	0.106098
H	0.5950326217280661 0.4643040394453931 0.2714026779521564	0.105821
H	0.6929892070266336 0.4613690689432542 0.2643692502567185	0.127363
H	0.3671038623558590 0.9218097071433068 0.8996867834546693	0.111981
H	0.4644700748438462 0.9220031375697325 0.8987204902311609	0.106098
H	0.4049673782719341 0.5356959605546066 0.2714026779521564	0.105821
H	0.3070108689733653 0.5386309690567489 0.2643692502567185	0.127364
H	0.6328961376441409 0.0781902738566950 0.8996867834546693	0.111982
H	0.5355299641561534 0.0779968914302661 0.8987204902311609	0.106098
H	0.5356959605546066 0.4049673782719341 0.7285973060478418	0.105821
H	0.5386309690567489 0.3070108689733653 0.7356307497432811	0.127363
H	0.0781902738566950 0.6328961376441409 0.1003131925453287	0.111981
H	0.0779968914302661 0.5355299641561534 0.1012795097688392	0.106098
H	0.4643040394453931 0.5950326217280661 0.7285973060478418	0.105821
H	0.4613690689432542 0.6929892070266336 0.7356307497432811	0.127363
H	0.9218097071433068 0.3671038623558590 0.1003131925453287	0.111981
H	0.9220031375697325 0.4644700748438462 0.1012795097688392	0.106098
H	0.4049673782719341 0.4643040394453931 0.7285973060478418	0.105821
H	0.3070108689733653 0.4613690689432542 0.7356307497432811	0.127363
H	0.6328961376441409 0.9218097071433068 0.1003131925453287	0.111981
H	0.5355299641561534 0.9220031375697325 0.1012795097688392	0.106098
H	0.5950326217280661 0.5356959605546066 0.7285973060478418	0.105821
H	0.6929892070266336 0.5386309690567489 0.7356307497432811	0.127363
H	0.3671038623558590 0.0781902738566950 0.1003131925453287	0.111981
H	0.4644700748438462 0.0779968914302661 0.1012795097688392	0.106097
H	0.5781902928566932 0.8671038623558591 0.6003131845453280	0.111981
H	0.5779968624302675 0.9644700748438463 0.6012795417688418	0.106098
H	0.0356959705546075 0.0950325927280669 0.2285973220478435	0.105821
H	0.0386309740567458 0.1929891500266327 0.2356307817432769	0.127364
H	0.4218097451433099 0.1328961666441399 0.6003131845453280	0.111981
H	0.4220030985697331 0.0355299491561487 0.6012795417688418	0.106098
H	0.9643040394453934 0.9049674552719296 0.2285973220478435	0.105821
H	0.9613690309432511 0.8070109069733687 0.2356307817432769	0.127364
H	0.1328961666441399 0.5781902928566932 0.6003131845453280	0.111981
H	0.0355299491561487 0.5779968624302675 0.6012795417688418	0.106098
H	0.9049674552719296 0.0356959705546075 0.2285973220478435	0.105821
H	0.8070109069733687 0.0386309740567458 0.2356307817432769	0.127364
H	0.8671038623558591 0.4218097451433099 0.6003131845453280	0.111981
H	0.9644700748438463 0.4220030985697331 0.6012795417688418	0.106098
H	0.0950325927280669 0.9643040394453934 0.2285973220478435	0.105821
H	0.1929891500266327 0.9613690309432511 0.2356307817432769	0.127364
H	0.4218097451433099 0.8671038623558591 0.3996867834546691	0.111981
H	0.4220030985697331 0.9644700748438463 0.3987205222311565	0.106093
H	0.9643040394453934 0.0950325927280669 0.7714026619521556	0.105821
H	0.9613690309432511 0.1929891500266327 0.7643692182567233	0.127363
H	0.5781902928566932 0.1328961666441399 0.3996867834546691	0.111981
H	0.5779968624302675 0.0355299491561487 0.3987205222311565	0.106093
H	0.0356959705546075 0.9049674552719296 0.7714026619521556	0.105821
H	0.0386309740567458 0.8070109069733687 0.7643692182567233	0.127363
H	0.8671038623558591 0.5781902928566932 0.3996867834546691	0.111981
H	0.9644700748438463 0.5779968624302675 0.3987205222311565	0.106093
H	0.0950325927280669 0.0356959705546075 0.7714026619521556	0.105821
H	0.1929891500266327 0.0386309740567458 0.7643692182567233	0.127363
H	0.1328961666441399 0.4218097451433099 0.3996867834546691	0.111981
H	0.0355299491561487 0.4220030985697331 0.3987205222311565	0.106093
H	0.9049674552719296 0.9643040394453934 0.7714026619521556	0.105821
H	0.8070109069733687 0.9613690309432511 0.7643692182567233	0.127363
Cd	0.5000000000000000 0.5000000000000000 0.5000000000000000	0.856032
Cd	0.0000000000000000 0.0000000000000000 -0.0000000000000000	0.856033
Ti	0.5000000000000000 0.5000000000000000 -0.0000000000000000	2.348715
Ti	0.0000000000000000 0.0000000000000000 0.5000000000000000	2.348715
F	0.5000000000000000 0.5000000000000000 0.2333085820716363	-0.625153
F	0.0000000000000000 0.0000000000000000 0.7333085500716405	-0.625153
F	0.5000000000000000 0.5000000000000000 0.7666913539283657	-0.625153
F	0.0000000000000000 0.0000000000000000 0.2666914179283638	-0.625153
F	0.5526180711455949 0.5526180711455949 -0.0000000000000000	-0.666891
F	0.0526180241455946 0.0526180241455946 0.5000000000000000	-0.666891
F	0.4473820048544113 0.4473820048544113 -0.0000000000000000	-0.666891
F	0.9473819668544082 0.9473819668544082 0.5000000000000000	-0.666891
F	0.4473820048544113 0.5526180711455949 -0.0000000000000000	-0.666891
F	0.9473819668544082 0.0526180241455946 0.5000000000000000	-0.666891
F	0.5526180711455949 0.4473820048544113 -0.0000000000000000	-0.666891
F	0.0526180241455946 0.9473819668544082 0.5000000000000000	-0.666891
N	0.5000000000000000 0.4083339181429681 0.5000000000000000	-0.243335
N	0.0000000000000000 0.9083339561429713 -0.0000000000000000	-0.243335
N	0.5000000000000000 0.5916660818570318 0.5000000000000000	-0.243335
N	0.0000000000000000 0.0916660908570289 -0.0000000000000000	-0.243335
N	0.5916660818570318 0.5000000000000000 0.5000000000000000	-0.243335
N	0.0916660908570289 0.0000000000000000 -0.0000000000000000	-0.243335
N	0.4083339181429681 0.5000000000000000 0.5000000000000000	-0.243335
N	0.9083339561429713 0.0000000000000000 -0.0000000000000000	-0.243335
	  	
