#======================================================================

# CRYSTAL DATA

#----------------------------------------------------------------------

data_VESTA_phase_1


_pd_phase_name                         TIFSIX_14_Fe_i
_cell_length_a                         13.40928
_cell_length_b                         13.39729
_cell_length_c                         7.97090
_cell_angle_alpha                      87.48195
_cell_angle_beta                       87.47602
_cell_angle_gamma                      89.37967
_symmetry_space_group_name_H-M         P 1
_symmetry_Int_Tables_number            1

loop_
_symmetry_equiv_pos_as_xyz
   x, y, z

loop_
   _atom_site_label
   _atom_site_fract_x
   _atom_site_fract_y
   _atom_site_fract_z
   _atom_site_charge
C	0.5706831162582592 0.2690548222176806 0.3641724902242933	-0.176033
C	0.4671706752883922 0.2727123516900597 0.3688438312237791	0.103510
C	0.9352722098007995 0.2890432224876591 0.4171120717494490	-0.171479
C	0.0385545451627726 0.2823315184706965 0.4020396364276748	0.106643
C	0.2676175267861761 0.5704990618462454 0.3661844466409168	-0.178881
C	0.2710895619898204 0.4668675741920426 0.3715256231913384	0.106311
C	0.2964545745342734 0.9351061774918589 0.4121095310745983	-0.170117
C	0.2888486531199419 0.0384422544924645 0.3979517126866968	0.105206
C	0.9295881778715203 0.2333444391144467 0.1339028373360511	-0.176303
C	0.0331254950864798 0.2300505587327095 0.1286996053517535	0.104565
C	0.5650283160723458 0.2063784751761384 0.0855213477102798	-0.168929
C	0.4617400689748045 0.2136912462327860 0.0997827492606570	0.105544
C	0.2075950082924090 0.5645713782862191 0.0858101004690245	-0.173081
C	0.2149247352152950 0.4612551062969281 0.1006802172678070	0.105094
C	0.2299895618522707 0.9292685614107399 0.1361744519996549	-0.177896
C	0.2264173575156886 0.0328829755972835 0.1313069966338443	0.105228
C	0.4297368447387523 0.7358679416006733 0.6331247348181169	-0.177850
C	0.5332199984720521 0.7329236293043928 0.6278770696260263	0.111129
C	0.0649162455846553 0.7260824389882365 0.5745884122203246	-0.168713
C	0.9616035496316766 0.7302292286773830 0.5910265584821056	0.109868
C	0.7358057846891171 0.4297737967595160 0.6330272666666553	-0.177014
C	0.7334895698306276 0.5333673719859859 0.6277158228789331	0.111799
C	0.7139263979096485 0.0647674046486030 0.5798667186862235	-0.167051
C	0.7194726989560176 0.9613517062197894 0.5950503204380625	0.107187
C	0.0702193127337683 0.7618749166411301 0.8682514789217193	-0.178336
C	0.9667043048525612 0.7640324164850816 0.8737247432569221	0.111843
C	0.4352758215541665 0.7798032702992808 0.9230752734630994	-0.166770
C	0.5385924058778573 0.7748809789091131 0.9069518279332723	0.107903
C	0.7804012830600342 0.4350262712894479 0.9226622304931179	-0.169853
C	0.7756756836488369 0.5384280059238390 0.9066980998919674	0.109422
C	0.7666159119595735 0.0699740730137558 0.8651098567577158	-0.177348
C	0.7695982260103914 0.9664019849811936 0.8698046352315684	0.111063
C	0.6212626930670021 0.2358444175551634 0.2185340584941965	0.182181
C	0.8790268412681336 0.2627290218078071 0.2820714229462327	0.184507
C	0.2358122664330579 0.6209243519376836 0.2195643878405482	0.185976
C	0.2651755836977380 0.8788103611050385 0.2803860801107833	0.183137
C	0.3791269304537447 0.7592875810580346 0.7848876109912891	0.186998
C	0.1209632617436231 0.7428650241420752 0.7145904253179005	0.188139
C	0.7592505016801953 0.3789636152555371 0.7845762238756734	0.187960
C	0.7387267314133528 0.1208006169190538 0.7160316879190913	0.187203
H	0.6114934209063110 0.2873547819024759 0.4735706311451461	0.108575
H	0.4258359414080338 0.2963994685981585 0.4813845006017061	0.097433
H	0.8987286037114283 0.3139989146232738 0.5325200548115562	0.123327
H	0.0838482247829346 0.3019132404880073 0.5057525715721832	0.098170
H	0.2848478633670157 0.6117192106727075 0.4757064042749795	0.110238
H	0.2934946061215063 0.4255653079566939 0.4848722933113003	0.096563
H	0.3258510784996189 0.8985997826200379 0.5242598994764186	0.122459
H	0.3117089825451702 0.0839145468694483 0.4994506356326969	0.098254
H	0.8886702596741152 0.2177102418886433 0.0232379357303771	0.108019
H	0.0744532390663206 0.2091597015354748 0.0144643244823525	0.097009
H	0.6016487643356654 0.1783802751371190 0.9723860281345368	0.123081
H	0.4164564549015423 0.1918139398056690 0.9974578233252646	0.098398
H	0.1809186680826257 0.6009474786954183 0.9714398055161946	0.122805
H	0.1942586163772710 0.4157868094262607 0.9977389467693656	0.098382
H	0.2101153610544387 0.8882288056874122 0.0279374549795438	0.110649
H	0.2014737696869635 0.0742843265780559 0.0197184260201726	0.097089
H	0.3892557556506159 0.7231289745486857 0.5206372855802425	0.106044
H	0.5747131656045753 0.7154597241592547 0.5120739335952010	0.097400
H	0.1016124197130668 0.7103598055080769 0.4542427006111385	0.124313
H	0.9166989173469936 0.7173981896842074 0.4838080013484333	0.094883
H	0.7232202893763754 0.3891843838615184 0.5205932202479271	0.106827
H	0.7163459483331324 0.5750379598786963 0.5118965589504199	0.097238
H	0.6906306113525290 0.1015699938528995 0.4636405373659381	0.124354
H	0.7006396637516481 0.9163161794367475 0.4907102674479037	0.096584
H	0.1106533636933874 0.7717878354070734 0.9818707084941690	0.105614
H	0.9251234571778383 0.7778811345386594 0.9910183216111916	0.096182
H	0.3986296973754954 0.7991395139533594 0.0417265508149252	0.124255
H	0.5836114659017919 0.7907173572879709 0.0127958768398953	0.096712
H	0.8000441103796455 0.3982450542276305 0.0410580649345340	0.124750
H	0.7917362006266156 0.5834754732853441 0.0124538285248216	0.095776
H	0.7821809566325942 0.1103629047862396 0.9764430143437819	0.108335
H	0.7901231122754425 0.9247311591248197 0.9838372263699106	0.097960
N	0.7744935762008726 0.2736501968175779 0.3009830757742426	-0.101336
N	0.2773914438221284 0.7741953157689473 0.2971263955967829	-0.103172
N	0.7258269188041100 0.2244301948157894 0.2000105552349741	-0.101745
N	0.2238880755949947 0.7255127984272456 0.2024779726017260	-0.102770
N	0.2255209949146085 0.7357813450020063 0.6899899855935203	-0.103256
N	0.7296771689645174 0.2254865821366889 0.6936695651656511	-0.105557
N	0.2745342932560589 0.7668716413258906 0.8094539828813674	-0.103433
N	0.7677372944853470 0.2743097447950306 0.8073240680910624	-0.103252
N	0.4128989934468696 0.2465469256101168 0.2388814657141561	-0.211608
N	0.0874446448513364 0.2530523624856456 0.2604615890875067	-0.213511
N	0.2462900893358158 0.4124692164131843 0.2409575584306771	-0.215447
N	0.2542598219586466 0.0871949667149868 0.2600526962251820	-0.214985
N	0.5875316898682714 0.7516098052169979 0.7620644014039837	-0.232224
N	0.9124557779572678 0.7488969018406557 0.7379529713039176	-0.232671
N	0.7525428034285315 0.5875700148593929 0.7618450496063727	-0.232589
N	0.7470040010812433 0.9122686459945134 0.7373964757572709	-0.231239
F	0.3487741563738559 0.1472230775881071 0.7516726576428560	-0.629221
F	0.1528752877110431 0.3508094032619746 0.7487003064042125	-0.629546
F	0.3513492176205106 0.3459558991430233 0.7276192264373378	-0.630369
F	0.1499751283502892 0.1522906587027026 0.7728832439492868	-0.630399
F	0.6485020745474802 0.8490936707256708 0.2494402303513097	-0.625650
F	0.8512234601386534 0.6527376074965631 0.2482046812530344	-0.626699
F	0.6525299640847573 0.6505359697631664 0.2699659473436569	-0.628949
F	0.8467321969565833 0.8512411484484883 0.2308157305714657	-0.627960
F	0.2498802222273470 0.2473275499977898 0.5038791378100450	-0.588068
F	0.2512257423290052 0.2509922719167041 -0.0038500060553844	-0.587550
F	0.7499166385987489 0.7510787708609381 0.4958463648679705	-0.594736
F	0.7491303974363034 0.7502629493395714 0.0032965199846920	-0.594972
Ti	0.2508476537310331 0.2489431476125115 0.7500371771953699	2.309790
Ti	0.7497048209400810 0.7508436188370171 0.2496011513132786	2.306275
Fe	0.2501857574803843 0.2497790250742723 0.2499201063881512	0.727880
Fe	0.7499285977027624 0.7499561927370125 0.7496009067007354	0.818528
	  	
