#======================================================================

# CRYSTAL DATA

#----------------------------------------------------------------------

data_VESTA_phase_1


_pd_phase_name                         TIFSIX_2_Ni
_cell_length_a                         13.83505
_cell_length_b                         13.83505
_cell_length_c                         7.93042
_cell_angle_alpha                      90
_cell_angle_beta                       90
_cell_angle_gamma                      90
_symmetry_space_group_name_H-M         P 1
_symmetry_Int_Tables_number            1

loop_
_symmetry_equiv_pos_as_xyz
   x, y, z

loop_
   _atom_site_label
   _atom_site_fract_x
   _atom_site_fract_y
   _atom_site_fract_z
   _atom_site_charge
C	0.5315854125469623 0.7005023637406832 0.1353969774088263	0.102175
C	0.5323102141686974 0.8008135560526315 0.1409364346147304	-0.166064
C	0.4684146574530368 0.2994976362593171 0.1353969774088263	0.102173
C	0.4676897508313034 0.1991864259473668 0.1409364346147304	-0.166061
C	0.2994976362593171 0.5315854125469623 0.1353969774088263	0.102176
C	0.1991864259473668 0.5323102141686974 0.1409364346147304	-0.166064
C	0.7005023637406832 0.4684146574530368 0.1353969774088263	0.102173
C	0.8008135560526315 0.4676897508313034 0.1409364346147304	-0.166061
C	0.4684146574530368 0.7005023637406832 0.8646030225911735	0.102176
C	0.4676897508313034 0.8008135560526315 0.8590635353852671	-0.166062
C	0.5315854125469623 0.2994976362593171 0.8646030225911735	0.102174
C	0.5323102141686974 0.1991864259473668 0.8590635353852671	-0.166060
C	0.7005023637406832 0.5315854125469623 0.8646030225911735	0.102174
C	0.8008135560526315 0.5323102141686974 0.8590635353852671	-0.166060
C	0.2994976362593171 0.4684146574530368 0.8646030225911735	0.102177
C	0.1991864259473668 0.4676897508313034 0.8590635353852671	-0.166062
C	0.5000000000000000 0.1464264931450699 -0.0000000000000000	0.171807
C	0.5000000000000000 0.0440597044658827 -0.0000000000000000	-0.093999
C	0.5000000000000000 0.8535735068549303 -0.0000000000000000	0.171776
C	0.5000000000000000 0.9559402385341235 -0.0000000000000000	-0.093747
C	0.8535735068549303 0.5000000000000000 -0.0000000000000000	0.171807
C	0.9559402385341235 0.5000000000000000 -0.0000000000000000	-0.093999
C	0.1464264931450699 0.5000000000000000 -0.0000000000000000	0.171776
C	0.0440597044658827 0.5000000000000000 -0.0000000000000000	-0.093747
H	0.5564455407662782 0.6581893504605592 0.2429696358397025	0.100313
H	0.5581489859743725 0.8374388356196947 0.2535811309303391	0.129282
H	0.4435544592337219 0.3418105795394422 0.2429696358397025	0.100313
H	0.4418510490256268 0.1625610943803062 0.2535811309303391	0.129283
H	0.3418105795394422 0.5564455407662782 0.2429696358397025	0.100313
H	0.1625610943803062 0.5581489859743725 0.2535811309303391	0.129282
H	0.6581893504605592 0.4435544592337219 0.2429696358397025	0.100313
H	0.8374388356196947 0.4418510490256268 0.2535811309303391	0.129283
H	0.4435544592337219 0.6581893504605592 0.7570303641602977	0.100313
H	0.4418510490256268 0.8374388356196947 0.7464188990696633	0.129281
H	0.5564455407662782 0.3418105795394422 0.7570303641602977	0.100312
H	0.5581489859743725 0.1625610943803062 0.7464188990696633	0.129281
H	0.6581893504605592 0.5564455407662782 0.7570303641602977	0.100312
H	0.8374388356196947 0.5581489859743725 0.7464188990696633	0.129282
H	0.3418105795394422 0.4435544592337219 0.7570303641602977	0.100313
H	0.1625610943803062 0.4418510490256268 0.7464188990696633	0.129280
Ni	0.5000000000000000 0.5000000000000000 -0.0000000000000000	0.783016
Ti	0.5000000000000000 0.5000000000000000 0.5000000000000000	2.322684
F	0.5000000000000000 0.5000000000000000 0.7444112428866806	-0.619486
F	0.5000000000000000 0.5000000000000000 0.2555887871133148	-0.619486
F	0.5966282378807946 0.5966282378807946 0.5000000000000000	-0.638560
F	0.4033717971192046 0.5966282378807946 0.5000000000000000	-0.638559
F	0.4033717971192046 0.4033717971192046 0.5000000000000000	-0.638560
F	0.5966282378807946 0.4033717971192046 0.5000000000000000	-0.638560
N	0.5000000000000000 0.3493068194928067 -0.0000000000000000	-0.237456
N	0.5000000000000000 0.6506931455071938 -0.0000000000000000	-0.237456
N	0.6506931455071938 0.5000000000000000 -0.0000000000000000	-0.237456
N	0.3493068194928067 0.5000000000000000 -0.0000000000000000	-0.237456
	  	
