#======================================================================

# CRYSTAL DATA

#----------------------------------------------------------------------

data_VESTA_phase_1


_pd_phase_name                         TIFSIX_4_Ni_i
_cell_length_a                         23.56640
_cell_length_b                         20.57684
_cell_length_c                         9.35347
_cell_angle_alpha                      90
_cell_angle_beta                       90
_cell_angle_gamma                      90
_symmetry_space_group_name_H-M         P 1
_symmetry_Int_Tables_number            1

loop_
_symmetry_equiv_pos_as_xyz
   x, y, z

loop_
   _atom_site_label
   _atom_site_fract_x
   _atom_site_fract_y
   _atom_site_fract_z
   _atom_site_charge
C	0.4163848123603907 0.5967679488552033 0.6277542383869104	0.097774
C	0.3728432385627652 0.5514040618762053 0.6255366374562407	-0.171144
C	0.2769630404449179 0.4488124723540777 0.6246103357673958	-0.116397
C	0.2311608601077134 0.4063870995074596 0.6233781403756393	-0.112485
C	0.1304112653158206 0.3197105495794946 0.6221686051314568	-0.166892
C	0.0840872107578775 0.2781118161482220 0.6257646936623718	0.091054
C	0.9163848953603870 0.0967679598552084 0.6277542383869104	0.097773
C	0.8728431965627691 0.0514040038762078 0.6255366374562407	-0.171143
C	0.7769630614449236 0.9488125193540785 0.6246103357673958	-0.116395
C	0.7311608401077119 0.9063871455074567 0.6233781403756393	-0.112539
C	0.6304112653158207 0.8197105965794949 0.6221686051314568	-0.166891
C	0.5840871957578727 0.7781119091482197 0.6257646936623718	0.091042
C	0.5836151876396092 0.4032320051447922 0.1277542463869108	0.097774
C	0.6271568034372309 0.4485959841237985 0.1255366524562383	-0.171144
C	0.7230369385550764 0.5511874806459215 0.1246103437673969	-0.116394
C	0.7688391598922881 0.5936129004925400 0.1233781483756397	-0.112517
C	0.8695887346841793 0.6802894504205055 0.1221686121314611	-0.166866
C	0.9159128042421273 0.7218881378517806 0.1257647086623701	0.091036
C	0.0836151986396135 0.9032320981447970 0.1277542463869108	0.097774
C	0.1271567614372349 0.9485958921237980 0.1255366524562383	-0.171145
C	0.2230369805550803 0.0511875276459223 0.1246103437673969	-0.116397
C	0.2688391188922882 0.0936128774925421 0.1233781483756397	-0.112485
C	0.3695887766841830 0.1802894614205026 0.1221686121314611	-0.166891
C	0.4159128042421273 0.2218882078517796 0.1257647086623701	0.091054
C	0.5836151876396092 0.5967679488552033 0.8722457306130906	0.097774
C	0.6271568034372309 0.5514040618762053 0.8744633315437603	-0.171144
C	0.7230369385550764 0.4488124723540777 0.8753896952326032	-0.116397
C	0.7688391598922881 0.4063870995074596 0.8766218906243597	-0.112463
C	0.8695887346841793 0.3197105495794946 0.8778314258685422	-0.166868
C	0.9159128042421273 0.2781118161482220 0.8742353373376273	0.091049
C	0.0836151986396135 0.0967679598552084 0.8722457306130906	0.097773
C	0.1271567614372349 0.0514040038762078 0.8744633315437603	-0.171144
C	0.2230369805550803 0.9488125193540785 0.8753896952326032	-0.116396
C	0.2688391188922882 0.9063871455074567 0.8766218906243597	-0.112540
C	0.3695887766841830 0.8197105965794949 0.8778314258685422	-0.166892
C	0.4159128042421273 0.7781119091482197 0.8742353373376273	0.091042
C	0.4163848123603907 0.4032320051447922 0.3722457616130900	0.097774
C	0.3728432385627652 0.4485959841237985 0.3744633315437604	-0.171144
C	0.2769630404449179 0.5511874806459215 0.3753896642326037	-0.116395
C	0.2311608601077134 0.5936129004925400 0.3766218286243622	-0.112540
C	0.1304112653158206 0.6802894504205055 0.3778313638685369	-0.166892
C	0.0840872107578775 0.7218881378517806 0.3742352753376286	0.091042
C	0.9163848953603870 0.9032320981447970 0.3722457616130900	0.097774
C	0.8728431965627691 0.9485958921237980 0.3744633315437604	-0.171145
C	0.7769630614449236 0.0511875276459223 0.3753896642326037	-0.116396
C	0.7311608401077119 0.0936128774925421 0.3766218286243622	-0.112485
C	0.6304112653158207 0.1802894614205025 0.3778313638685369	-0.166892
C	0.5840871957578727 0.2218882078517796 0.3742352753376286	0.091054
C	0.5836151876396092 0.4032320051447922 0.3722457616130900	0.097774
C	0.6271568034372309 0.4485959841237985 0.3744633315437604	-0.171144
C	0.7230369385550764 0.5511874806459215 0.3753896642326037	-0.116394
C	0.7688391598922881 0.5936129004925400 0.3766218286243622	-0.112517
C	0.8695887346841793 0.6802894504205055 0.3778313638685369	-0.166867
C	0.9159128042421273 0.7218881378517806 0.3742352753376286	0.091035
C	0.0836151986396135 0.9032320981447970 0.3722457616130900	0.097774
C	0.1271567614372349 0.9485958921237980 0.3744633315437604	-0.171145
C	0.2230369805550803 0.0511875276459223 0.3753896642326037	-0.116396
C	0.2688391188922882 0.0936128774925421 0.3766218286243622	-0.112485
C	0.3695887766841830 0.1802894614205025 0.3778313638685369	-0.166893
C	0.4159128042421273 0.2218882078517796 0.3742352753376286	0.091053
C	0.4163848123603907 0.5967679488552033 0.8722457306130906	0.097774
C	0.3728432385627652 0.5514040618762053 0.8744633315437603	-0.171144
C	0.2769630404449179 0.4488124723540777 0.8753896952326032	-0.116397
C	0.2311608601077134 0.4063870995074596 0.8766218906243597	-0.112485
C	0.1304112653158206 0.3197105495794946 0.8778314258685422	-0.166893
C	0.0840872107578775 0.2781118161482220 0.8742353373376273	0.091053
C	0.9163848953603870 0.0967679598552084 0.8722457306130906	0.097773
C	0.8728431965627691 0.0514040038762078 0.8744633315437603	-0.171143
C	0.7769630614449236 0.9488125193540785 0.8753896952326032	-0.116395
C	0.7311608401077119 0.9063871455074567 0.8766218906243597	-0.112539
C	0.6304112653158207 0.8197105965794949 0.8778314258685422	-0.166893
C	0.5840871957578727 0.7781119091482197 0.8742353373376273	0.091041
C	0.4163848123603907 0.4032320051447922 0.1277542463869108	0.097774
C	0.3728432385627652 0.4485959841237985 0.1255366524562383	-0.171144
C	0.2769630404449179 0.5511874806459215 0.1246103437673969	-0.116394
C	0.2311608601077134 0.5936129004925400 0.1233781483756397	-0.112540
C	0.1304112653158206 0.6802894504205055 0.1221686121314611	-0.166893
C	0.0840872107578775 0.7218881378517806 0.1257647086623701	0.091041
C	0.9163848953603870 0.9032320981447970 0.1277542463869108	0.097774
C	0.8728431965627691 0.9485958921237980 0.1255366524562383	-0.171145
C	0.7769630614449236 0.0511875276459223 0.1246103437673969	-0.116396
C	0.7311608401077119 0.0936128774925421 0.1233781483756397	-0.112485
C	0.6304112653158207 0.1802894614205026 0.1221686121314611	-0.166894
C	0.5840871957578727 0.2218882078517796 0.1257647086623701	0.091053
C	0.5836151876396092 0.5967679488552033 0.6277542383869104	0.097774
C	0.6271568034372309 0.5514040618762053 0.6255366374562407	-0.171144
C	0.7230369385550764 0.4488124723540777 0.6246103357673958	-0.116397
C	0.7688391598922881 0.4063870995074596 0.6233781403756393	-0.112463
C	0.8695887346841793 0.3197105495794946 0.6221686051314568	-0.166869
C	0.9159128042421273 0.2781118161482220 0.6257646936623718	0.091048
C	0.0836151986396135 0.0967679598552084 0.6277542383869104	0.097774
C	0.1271567614372349 0.0514040038762078 0.6255366374562407	-0.171144
C	0.2230369805550803 0.9488125193540785 0.6246103357673958	-0.116395
C	0.2688391188922882 0.9063871455074567 0.6233781403756393	-0.112539
C	0.3695887766841830 0.8197105965794949 0.6221686051314568	-0.166894
C	0.4159128042421273 0.7781119091482197 0.6257646936623718	0.091041
C	0.3485109391373445 0.5245284935630383 0.7500000149999977	0.118861
C	0.3015651979622130 0.4746292333370684 0.7500000149999977	0.070809
C	0.2055559804084153 0.3846483845054470 0.7500000149999977	0.067007
C	0.1555595048258683 0.3413500419960958 0.7500000149999977	0.102309
C	0.8485108971373483 0.0245284765630402 0.7500000149999977	0.118857
C	0.8015652599622107 0.9746291863370681 0.7500000149999977	0.070852
C	0.7055559804084153 0.8846484075054454 0.7500000149999977	0.067031
C	0.6555595048258684 0.8413499729960938 0.7500000149999977	0.102308
C	0.6514890608626553 0.4754715524369587 0.2500000000000000	0.118858
C	0.6984347400377893 0.5253707666629316 0.2500000000000000	0.070852
C	0.7944440195915847 0.6153516394945550 0.2500000000000000	0.066948
C	0.8444405361741385 0.6586499350039057 0.2500000000000000	0.102317
C	0.1514890718626529 0.9754715994369587 0.2500000000000000	0.118861
C	0.1984348230377855 0.0253707696629283 0.2500000000000000	0.070809
C	0.2944440195915848 0.1153515924945548 0.2500000000000000	0.067008
C	0.3444404951741317 0.1586499690039087 0.2500000000000000	0.102309
C	0.6514890608626553 0.5245284935630383 0.7500000149999977	0.118861
C	0.6984347400377893 0.4746292333370684 0.7500000149999977	0.070809
C	0.7944440195915847 0.3846483845054470 0.7500000149999977	0.066923
C	0.8444405361741385 0.3413500419960958 0.7500000149999977	0.102319
C	0.1514890718626529 0.0245284765630402 0.7500000149999977	0.118858
C	0.1984348230377855 0.9746291863370681 0.7500000149999977	0.070852
C	0.2944440195915848 0.8846484075054454 0.7500000149999977	0.067032
C	0.3444404951741317 0.8413499729960938 0.7500000149999977	0.102308
C	0.3485109391373445 0.4754715524369587 0.2500000000000000	0.118858
C	0.3015651979622130 0.5253707666629316 0.2500000000000000	0.070852
C	0.2055559804084153 0.6153516394945550 0.2500000000000000	0.067032
C	0.1555595048258683 0.6586499350039057 0.2500000000000000	0.102308
C	0.8485108971373483 0.9754715994369587 0.2500000000000000	0.118861
C	0.8015652599622107 0.0253707696629283 0.2500000000000000	0.070809
C	0.7055559804084153 0.1153515924945548 0.2500000000000000	0.067007
C	0.6555595048258684 0.1586499690039087 0.2500000000000000	0.102309
H	0.4340240965610195 0.6154978434909165 0.5279319488825297	0.115939
H	0.3599101939174008 0.5391046676818998 0.5190176199884081	0.108610
H	0.2928267771375964 0.4604329578407475 0.5200811314245872	0.087202
H	0.2156887665995099 0.3904129657119729 0.5194355708405749	0.104696
H	0.1463873975103824 0.3341070007318206 0.5177417143778537	0.123212
H	0.0644057683103594 0.2601635050577957 0.5274623483311638	0.117009
H	0.9340240545610158 0.1154978784909161 0.5279319488825297	0.115938
H	0.8599101529174006 0.0391046036818945 0.5190176199884081	0.108611
H	0.7928267561375982 0.9604329578407477 0.5200811314245872	0.087209
H	0.7156887245995063 0.8904128967119781 0.5194355708405749	0.104705
H	0.6463873875103815 0.8341070007318208 0.5177417143778537	0.123213
H	0.5644057993103579 0.7601634820577977 0.5274623483311638	0.117015
H	0.5659759034389807 0.3845021565090833 0.0279320108825278	0.115938
H	0.6400898060825996 0.4608953793181007 0.0190176199884081	0.108611
H	0.7071732438624018 0.5395669961592485 0.0200811934245851	0.087208
H	0.7843112754004937 0.6095870112880214 0.0194355098405736	0.104705
H	0.8536126124896185 0.6658929532681754 0.0177417143778535	0.123207
H	0.9355941596896422 0.7398365179422023 0.0274623173311646	0.117016
H	0.0659759094389810 0.8845021565090835 0.0279320108825278	0.115939
H	0.1400898470825990 0.9608953793181005 0.0190176199884081	0.108611
H	0.2071732438624017 0.0395670391592485 0.0200811934245851	0.087202
H	0.2843112334004901 0.1095870452880243 0.0194355098405736	0.104696
H	0.3536126124896185 0.1658929762681739 0.0177417143778535	0.123212
H	0.4355942006896414 0.2398364949422043 0.0274623173311646	0.117009
H	0.5659759034389807 0.6154978434909165 -0.0279319678825278	0.115938
H	0.6400898060825996 0.5391046676818998 -0.0190176469884139	0.108610
H	0.7071732438624018 0.4604329578407475 -0.0200811494245814	0.087202
H	0.7843112754004937 0.3904129657119729 -0.0194355638405708	0.104695
H	0.8536126124896185 0.3341070007318206 -0.0177417143778538	0.123207
H	0.9355941596896422 0.2601635050577957 -0.0274623553311677	0.117009
H	0.0659759094389810 0.1154978784909161 -0.0279319678825278	0.115938
H	0.1400898470825990 0.0391046036818945 -0.0190176469884139	0.108611
H	0.2071732438624017 0.9604329578407477 -0.0200811494245814	0.087209
H	0.2843112334004901 0.8904128967119781 -0.0194355638405708	0.104705
H	0.3536126124896185 0.8341070007318208 -0.0177417143778538	0.123213
H	0.4355942006896414 0.7601634820577977 -0.0274623553311677	0.117015
H	0.4340240965610195 0.3845021565090833 0.4720680201174713	0.115938
H	0.3599101939174008 0.4608953793181007 0.4809824110115911	0.108611
H	0.2928267771375964 0.5395669961592485 0.4799188375754140	0.087208
H	0.2156887665995099 0.6095870112880214 0.4805643981594259	0.104705
H	0.1463873975103824 0.6658929532681754 0.4822582546221472	0.123212
H	0.0644057683103594 0.7398365179422023 0.4725376516688365	0.117015
H	0.9340240545610158 0.8845021565090835 0.4720680201174713	0.115938
H	0.8599101529174006 0.9608953793181005 0.4809824110115911	0.108610
H	0.7928267561375982 0.0395670391592485 0.4799188375754140	0.087202
H	0.7156887245995063 0.1095870452880243 0.4805643981594259	0.104696
H	0.6463873875103815 0.1658929762681739 0.4822582546221472	0.123212
H	0.5644057993103579 0.2398364949422043 0.4725376516688365	0.117009
H	0.5659759034389807 0.3845021565090833 0.4720680201174713	0.115938
H	0.6400898060825996 0.4608953793181007 0.4809824110115911	0.108611
H	0.7071732438624018 0.5395669961592485 0.4799188375754140	0.087208
H	0.7843112754004937 0.6095870112880214 0.4805643981594259	0.104705
H	0.8536126124896185 0.6658929532681754 0.4822582546221472	0.123207
H	0.9355941596896422 0.7398365179422023 0.4725376516688365	0.117016
H	0.0659759094389810 0.8845021565090835 0.4720680201174713	0.115939
H	0.1400898470825990 0.9608953793181005 0.4809824110115911	0.108610
H	0.2071732438624017 0.0395670391592485 0.4799188375754140	0.087202
H	0.2843112334004901 0.1095870452880243 0.4805643981594259	0.104696
H	0.3536126124896185 0.1658929762681739 0.4822582546221472	0.123212
H	0.4355942006896414 0.2398364949422043 0.4725376516688365	0.117009
H	0.4340240965610195 0.6154978434909165 -0.0279319678825278	0.115938
H	0.3599101939174008 0.5391046676818998 -0.0190176469884139	0.108610
H	0.2928267771375964 0.4604329578407475 -0.0200811494245814	0.087202
H	0.2156887665995099 0.3904129657119729 -0.0194355638405708	0.104696
H	0.1463873975103824 0.3341070007318206 -0.0177417143778538	0.123212
H	0.0644057683103594 0.2601635050577957 -0.0274623553311677	0.117009
H	0.9340240545610158 0.1154978784909160 -0.0279319678825278	0.115938
H	0.8599101529174006 0.0391046036818945 -0.0190176469884139	0.108611
H	0.7928267561375982 0.9604329578407477 -0.0200811494245814	0.087208
H	0.7156887245995063 0.8904128967119781 -0.0194355638405708	0.104705
H	0.6463873875103815 0.8341070007318208 -0.0177417143778538	0.123212
H	0.5644057993103579 0.7601634820577977 -0.0274623553311677	0.117015
H	0.4340240965610195 0.3845021565090833 0.0279320108825278	0.115938
H	0.3599101939174008 0.4608953793181007 0.0190176199884081	0.108611
H	0.2928267771375964 0.5395669961592485 0.0200811934245851	0.087209
H	0.2156887665995099 0.6095870112880214 0.0194355098405736	0.104706
H	0.1463873975103824 0.6658929532681754 0.0177417143778535	0.123212
H	0.0644057683103594 0.7398365179422023 0.0274623173311646	0.117015
H	0.9340240545610158 0.8845021565090835 0.0279320108825278	0.115939
H	0.8599101529174006 0.9608953793181005 0.0190176199884081	0.108611
H	0.7928267561375982 0.0395670391592485 0.0200811934245851	0.087202
H	0.7156887245995063 0.1095870452880243 0.0194355098405736	0.104697
H	0.6463873875103815 0.1658929762681739 0.0177417143778535	0.123212
H	0.5644057993103579 0.2398364949422043 0.0274623173311646	0.117009
H	0.5659759034389807 0.6154978434909165 0.5279319488825297	0.115939
H	0.6400898060825996 0.5391046676818998 0.5190176199884081	0.108610
H	0.7071732438624018 0.4604329578407475 0.5200811314245872	0.087202
H	0.7843112754004937 0.3904129657119729 0.5194355708405749	0.104696
H	0.8536126124896185 0.3341070007318206 0.5177417143778537	0.123207
H	0.9355941596896422 0.2601635050577957 0.5274623483311638	0.117010
H	0.0659759094389810 0.1154978784909160 0.5279319488825297	0.115938
H	0.1400898470825990 0.0391046036818945 0.5190176199884081	0.108611
H	0.2071732438624017 0.9604329578407477 0.5200811314245872	0.087209
H	0.2843112334004901 0.8904128967119781 0.5194355708405749	0.104706
H	0.3536126124896185 0.8341070007318208 0.5177417143778537	0.123213
H	0.4355942006896414 0.7601634820577977 0.5274623483311638	0.117015
Ni	0.5000000000000000 0.6884695802343781 0.7500000149999977	0.467669
Ni	0.0000000000000000 0.1884696382343758 0.7500000149999977	0.467669
Ni	0.5000000000000000 0.3115303497656232 0.2500000000000000	0.467669
Ni	0.0000000000000000 0.8115304197656219 0.2500000000000000	0.467669
F	0.5000000000000000 0.6864291442579954 0.4657242250205939	-0.661786
F	0.0000000000000000 0.1864291792579949 0.4657242250205939	-0.661791
F	0.5000000000000000 0.3135708327419990 0.9657242250205940	-0.661791
F	0.0000000000000000 0.8135708557420046 0.9657242250205940	-0.661787
F	0.5000000000000000 0.6864291442579954 0.0342757609794050	-0.661786
F	0.0000000000000000 0.1864291792579949 0.0342757609794050	-0.661791
F	0.5000000000000000 0.3135708327419990 0.5342757449794036	-0.661791
F	0.0000000000000000 0.8135708557420046 0.5342757449794036	-0.661786
F	0.4431205606788502 0.7498259430872275 0.2500000000000000	-0.668333
F	0.5565466245287715 0.6201228227442050 0.2500000000000000	-0.662689
F	0.9431205606788500 0.2498259430872276 0.2500000000000000	-0.668335
F	0.0565466455287765 0.1201228227442048 0.2500000000000000	-0.662688
F	0.5568793983211502 0.2501740339127742 0.7500000149999977	-0.668335
F	0.4434533754712288 0.3798771772557953 0.7500000149999977	-0.662688
F	0.0568794503211544 0.7501740569127725 0.7500000149999977	-0.668332
F	0.9434533754712285 0.8798771772557950 0.7500000149999977	-0.662689
F	0.5568793983211502 0.7498259430872275 0.2500000000000000	-0.668333
F	0.4434533754712288 0.6201228227442050 0.2500000000000000	-0.662689
F	0.0568794503211544 0.2498259430872276 0.2500000000000000	-0.668335
F	0.9434533754712285 0.1201228227442048 0.2500000000000000	-0.662688
F	0.4431205606788502 0.2501740339127742 0.7500000149999977	-0.668335
F	0.5565466245287715 0.3798771772557953 0.7500000149999977	-0.662688
F	0.9431205606788500 0.7501740569127725 0.7500000149999977	-0.668333
F	0.0565466455287765 0.8798771772557950 0.7500000149999977	-0.662689
N	0.4387048051855642 0.6195325616051208 0.7500000149999977	-0.158463
N	0.5615638366743582 0.7571138560441393 0.7500000149999977	-0.166928
N	0.9387047641855577 0.1195325496051194 0.7500000149999977	-0.158463
N	0.0615638106743560 0.2571138330441339 0.7500000149999977	-0.166933
N	0.5612951948144353 0.3804674383948797 0.2500000000000000	-0.158463
N	0.4384361633256417 0.2428861669558661 0.2500000000000000	-0.166932
N	0.0612951948144356 0.8804674383948792 0.2500000000000000	-0.158462
N	0.9384362043256417 0.7428861439558607 0.2500000000000000	-0.166926
N	0.5612951948144353 0.6195325616051208 0.7500000149999977	-0.158463
N	0.4384361633256417 0.7571138560441393 0.7500000149999977	-0.166929
N	0.0612951948144356 0.1195325496051194 0.7500000149999977	-0.158463
N	0.9384362043256417 0.2571138330441339 0.7500000149999977	-0.166931
N	0.4387048051855642 0.3804674383948797 0.2500000000000000	-0.158463
N	0.5615638366743582 0.2428861669558661 0.2500000000000000	-0.166933
N	0.9387047641855577 0.8804674383948792 0.2500000000000000	-0.158463
N	0.0615638106743560 0.7428861439558607 0.2500000000000000	-0.166928
Ti	0.5000000000000000 0.6852470015084277 0.2500000000000000	2.336479
Ti	0.0000000000000000 0.1852470255084298 0.2500000000000000	2.336481
Ti	0.5000000000000000 0.3147529514915716 0.7500000149999977	2.336481
Ti	0.0000000000000000 0.8147529984915723 0.7500000149999977	2.336479
	  	
