#======================================================================

# CRYSTAL DATA

#----------------------------------------------------------------------

data_VESTA_phase_1


_pd_phase_name                         TIFSIX_3_Ni
_cell_length_a                         14.02765
_cell_length_b                         14.02765
_cell_length_c                         7.89061
_cell_angle_alpha                      90
_cell_angle_beta                       90
_cell_angle_gamma                      90
_symmetry_space_group_name_H-M         P 1
_symmetry_Int_Tables_number            1

loop_
_symmetry_equiv_pos_as_xyz
   x, y, z

loop_
   _atom_site_label
   _atom_site_fract_x
   _atom_site_fract_y
   _atom_site_fract_z
   _atom_site_charge
C	0.2706952154398605 0.4503349519392321 0.6409699147541651	0.068757
C	0.2293047845601396 0.0496650520607683 0.6409699147541651	0.068757
C	0.2293047845601396 0.4503349519392321 0.3590300532458321	0.068775
C	0.2706952154398605 0.0496650520607683 0.3590300532458321	0.068775
C	0.0496650520607684 0.2706952154398605 0.3590300532458321	0.068795
C	0.4503349519392321 0.2293047845601396 0.3590300532458321	0.068794
C	0.4503349519392321 0.2706952154398605 0.6409699147541651	0.068811
C	0.0496650520607683 0.2293047845601396 0.6409699147541651	0.068812
C	0.9503348839392335 0.2293047845601396 0.6409699147541651	0.068868
C	0.5496651160607665 0.2706952154398605 0.6409699147541651	0.068869
C	0.5496651160607665 0.2293047845601396 0.3590300532458321	0.068884
C	0.9503348839392335 0.2706952154398605 0.3590300532458321	0.068883
C	0.7293048015601372 0.0496650520607683 0.3590300532458321	0.068794
C	0.7706951984398628 0.4503349519392321 0.3590300532458321	0.068794
C	0.7706951984398628 0.0496650520607683 0.6409699147541651	0.068811
C	0.7293048015601372 0.4503349519392321 0.6409699147541651	0.068811
C	0.4503349519392321 0.7293048015601372 0.6409699147541651	0.068762
C	0.0496650520607683 0.7706951984398628 0.6409699147541652	0.068763
C	0.0496650520607683 0.7293048015601372 0.3590300532458321	0.068780
C	0.4503349519392321 0.7706951984398628 0.3590300532458321	0.068779
C	0.2293047845601396 0.5496651160607665 0.3590300532458321	0.068902
C	0.2706952154398605 0.9503348839392335 0.3590300532458321	0.068902
C	0.2706952154398605 0.5496651160607665 0.6409699147541651	0.068917
C	0.2293047845601396 0.9503348839392335 0.6409699147541651	0.068916
C	0.7706951984398628 0.9503348839392335 0.6409699147541651	0.068868
C	0.7293048015601372 0.5496651160607665 0.6409699147541651	0.068869
C	0.7293048015601372 0.9503348839392335 0.3590300532458321	0.068883
C	0.7706951984398628 0.5496651160607665 0.3590300532458321	0.068884
C	0.5496651160607665 0.7706951984398628 0.3590300532458321	0.068902
C	0.9503348839392335 0.7293048015601372 0.3590300532458321	0.068901
C	0.9503348839392335 0.7706951984398628 0.6409699147541651	0.068916
C	0.5496651160607665 0.7293048015601372 0.6409699147541651	0.068916
H	0.2876753994477888 0.4113069948996415 0.7564152042209519	0.110620
H	0.2123245665522084 0.0886930051003585 0.7564152042209519	0.110621
H	0.2123245665522084 0.4113069948996415 0.2435847647790492	0.110620
H	0.2876753994477888 0.0886930051003585 0.2435847647790492	0.110620
H	0.0886930051003585 0.2876753994477888 0.2435847647790492	0.110617
H	0.4113069948996415 0.2123245665522084 0.2435847647790492	0.110618
H	0.4113069948996415 0.2876753994477888 0.7564152042209519	0.110616
H	0.0886930051003585 0.2123245665522084 0.7564152042209519	0.110616
H	0.9113070628996475 0.2123245665522084 0.7564152042209519	0.110606
H	0.5886929371003525 0.2876753994477888 0.7564152042209519	0.110606
H	0.5886929371003525 0.2123245665522084 0.2435847647790492	0.110606
H	0.9113070628996475 0.2876753994477888 0.2435847647790492	0.110606
H	0.7123245325522127 0.0886930051003585 0.2435847647790492	0.110618
H	0.7876754674477873 0.4113069948996415 0.2435847647790492	0.110617
H	0.7876754674477873 0.0886930051003585 0.7564152042209519	0.110616
H	0.7123245325522127 0.4113069948996415 0.7564152042209519	0.110616
H	0.4113069948996415 0.7123245325522127 0.7564152042209519	0.110620
H	0.0886930051003585 0.7876754674477873 0.7564152042209519	0.110620
H	0.0886930051003585 0.7123245325522127 0.2435847647790492	0.110620
H	0.4113069948996415 0.7876754674477873 0.2435847647790492	0.110619
H	0.2123245665522084 0.5886929371003525 0.2435847647790492	0.110604
H	0.2876753994477888 0.9113070628996475 0.2435847647790492	0.110603
H	0.2876753994477888 0.5886929371003525 0.7564152042209519	0.110602
H	0.2123245665522084 0.9113070628996475 0.7564152042209519	0.110602
H	0.7876754674477873 0.9113070628996475 0.7564152042209519	0.110606
H	0.7123245325522127 0.5886929371003525 0.7564152042209519	0.110606
H	0.7123245325522127 0.9113070628996475 0.2435847647790492	0.110606
H	0.7876754674477873 0.5886929371003525 0.2435847647790492	0.110606
H	0.5886929371003525 0.7876754674477873 0.2435847647790492	0.110603
H	0.9113070628996475 0.7123245325522127 0.2435847647790492	0.110604
H	0.9113070628996475 0.7876754674477873 0.7564152042209519	0.110602
H	0.5886929371003525 0.7123245325522127 0.7564152042209519	0.110602
Ni	0.2500000000000000 0.2500000000000000 0.5000000000000000	0.784646
Ni	0.7500000340000028 0.2500000000000000 0.5000000000000000	0.784652
Ni	0.2500000000000000 0.7500000340000028 0.5000000000000000	0.784652
Ni	0.7500000340000028 0.7500000340000028 0.5000000000000000	0.784657
Ti	0.2500000000000000 0.2500000000000000 -0.0000000000000000	2.305989
Ti	0.7500000340000028 0.2500000000000000 -0.0000000000000000	2.305988
Ti	0.2500000000000000 0.7500000340000028 -0.0000000000000000	2.305988
Ti	0.7500000340000028 0.7500000340000028 -0.0000000000000000	2.305987
F	0.2500000000000000 0.2500000000000000 0.7527598392537893	-0.626812
F	0.2500000000000000 0.2500000000000000 0.2472401607462109	-0.626813
F	0.3446985606619986 0.3446985606619986 -0.0109917674979636	-0.617264
F	0.1553014393380016 0.1553014393380016 -0.0109917674979636	-0.617263
F	0.1553014393380016 0.3446985606619986 0.0109917884979617	-0.617263
F	0.3446985606619986 0.1553014393380016 0.0109917884979617	-0.617263
F	0.7500000340000028 0.2500000000000000 0.7527598392537893	-0.626812
F	0.7500000340000028 0.2500000000000000 0.2472401607462109	-0.626813
F	0.8446985946620013 0.3446985606619986 0.0109917884979617	-0.617267
F	0.6553014053379987 0.1553014393380015 0.0109917884979617	-0.617265
F	0.6553014053379987 0.3446985606619986 -0.0109917674979636	-0.617267
F	0.8446985946620013 0.1553014393380016 -0.0109917674979636	-0.617267
F	0.2500000000000000 0.7500000340000028 0.7527598392537893	-0.626812
F	0.2500000000000000 0.7500000340000028 0.2472401607462109	-0.626813
F	0.3446985606619986 0.8446985946620013 0.0109917884979617	-0.617267
F	0.1553014393380016 0.6553014053379987 0.0109917884979617	-0.617265
F	0.1553014393380016 0.8446985946620013 -0.0109917674979636	-0.617267
F	0.3446985606619986 0.6553014053379987 -0.0109917674979636	-0.617267
F	0.7500000340000028 0.7500000340000028 0.7527598392537893	-0.626812
F	0.7500000340000028 0.7500000340000028 0.2472401607462110	-0.626813
F	0.8446985946620013 0.8446985946620013 -0.0109917674979636	-0.617271
F	0.6553014053379987 0.6553014053379987 -0.0109917674979636	-0.617269
F	0.6553014053379987 0.8446985946620013 0.0109917884979617	-0.617270
F	0.8446985946620013 0.6553014053379987 0.0109917884979617	-0.617270
N	0.4005515923482567 0.2500000000000000 0.5000000000000000	-0.200882
N	0.0994484076517432 0.2500000000000000 0.5000000000000000	-0.200881
N	0.2500000000000000 0.4005515923482567 0.5000000000000000	-0.200870
N	0.2500000000000000 0.0994484076517432 0.5000000000000000	-0.200869
N	0.9005515923482568 0.2500000000000000 0.5000000000000000	-0.200899
N	0.5994484076517432 0.2500000000000000 0.5000000000000000	-0.200898
N	0.7500000340000028 0.4005515923482567 0.5000000000000000	-0.200878
N	0.7500000340000028 0.0994484076517432 0.5000000000000000	-0.200877
N	0.4005515923482567 0.7500000340000028 0.5000000000000000	-0.200874
N	0.0994484076517432 0.7500000340000028 0.5000000000000000	-0.200874
N	0.2500000000000000 0.9005515923482568 0.5000000000000000	-0.200903
N	0.2500000000000000 0.5994484076517432 0.5000000000000000	-0.200902
N	0.9005515923482568 0.7500000340000028 0.5000000000000000	-0.200906
N	0.5994484076517432 0.7500000340000028 0.5000000000000000	-0.200906
N	0.7500000340000028 0.9005515923482568 0.5000000000000000	-0.200895
N	0.7500000340000028 0.5994484076517432 0.5000000000000000	-0.200894
	  	
