#======================================================================

# CRYSTAL DATA

#----------------------------------------------------------------------

data_VESTA_phase_1


_pd_phase_name                         TIFSIX_2_Fe_i
_cell_length_a                         14.04379
_cell_length_b                         14.04379
_cell_length_c                         8.03285
_cell_angle_alpha                      90
_cell_angle_beta                       90
_cell_angle_gamma                      90
_symmetry_space_group_name_H-M         P 1
_symmetry_Int_Tables_number            1

loop_
_symmetry_equiv_pos_as_xyz
   x, y, z

loop_
   _atom_site_label
   _atom_site_fract_x
   _atom_site_fract_y
   _atom_site_fract_z
   _atom_site_charge
C	-0.0000000000000000 0.3045408332828222 0.3498660501087766	-0.159873
C	-0.0000000000000000 0.2058522722594025 0.3556764319606470	0.104572
C	0.5000000000000000 0.8045408332828218 0.8498660791087754	-0.159873
C	0.5000000000000000 0.7058522902594037 0.8556764319606470	0.104572
C	-0.0000000000000000 0.6954591667171782 0.3498660501087766	-0.159875
C	-0.0000000000000000 0.7941477097405962 0.3556764319606470	0.104574
C	0.5000000000000000 0.1954591837171759 0.8498660791087754	-0.159875
C	0.5000000000000000 0.2941477097405958 0.8556764319606470	0.104574
C	0.6954591667171782 0.0000000000000000 0.3498660501087766	-0.159873
C	0.7941477097405963 0.0000000000000000 0.3556764319606470	0.104572
C	0.1954591837171759 0.5000000000000000 0.8498660791087754	-0.159873
C	0.2941477097405958 0.5000000000000000 0.8556764319606470	0.104572
C	0.3045408332828222 0.0000000000000000 0.3498660501087766	-0.159875
C	0.2058522722594025 0.0000000000000000 0.3556764319606470	0.104575
C	0.8045408332828218 0.5000000000000000 0.8498660791087754	-0.159875
C	0.7058522902594038 0.5000000000000000 0.8556764319606470	0.104575
C	-0.0000000000000000 0.3045408332828222 0.6501339208912246	-0.159871
C	-0.0000000000000000 0.2058522722594025 0.6443235680393530	0.104572
C	0.5000000000000000 0.8045408332828218 0.1501339498912233	-0.159871
C	0.5000000000000000 0.7058522902594037 0.1443235530393553	0.104572
C	-0.0000000000000000 0.6954591667171782 0.6501339208912246	-0.159874
C	-0.0000000000000000 0.7941477097405963 0.6443235680393530	0.104574
C	0.5000000000000000 0.1954591837171759 0.1501339498912233	-0.159874
C	0.5000000000000000 0.2941477097405958 0.1443235530393553	0.104574
C	0.3045408332828222 0.0000000000000000 0.6501339208912246	-0.159874
C	0.2058522722594025 0.0000000000000000 0.6443235680393530	0.104575
C	0.8045408332828218 0.5000000000000000 0.1501339498912233	-0.159874
C	0.7058522902594037 0.5000000000000000 0.1443235530393554	0.104575
C	0.6954591667171782 0.0000000000000000 0.6501339208912246	-0.159871
C	0.7941477097405962 0.0000000000000000 0.6443235680393530	0.104572
C	0.1954591837171759 0.5000000000000000 0.1501339498912233	-0.159871
C	0.2941477097405958 0.5000000000000000 0.1443235530393553	0.104572
C	-0.0000000000000000 0.4565842126734979 0.5000000000000000	-0.096039
C	-0.0000000000000000 0.3561452879891185 0.5000000000000000	0.158195
C	0.5000000000000000 0.9565842466735009 -0.0000000000000000	-0.096038
C	0.5000000000000000 0.8561452529891189 -0.0000000000000000	0.158195
C	-0.0000000000000000 0.5434157873265019 0.5000000000000000	-0.095785
C	-0.0000000000000000 0.6438547470108811 0.5000000000000000	0.158165
C	0.5000000000000000 0.0434157663264966 -0.0000000000000000	-0.095785
C	0.5000000000000000 0.1438547470108809 -0.0000000000000000	0.158165
C	0.5434157873265019 0.0000000000000000 0.5000000000000000	-0.096038
C	0.6438547470108811 0.0000000000000000 0.5000000000000000	0.158195
C	0.0434157663264966 0.5000000000000000 -0.0000000000000000	-0.096038
C	0.1438547470108809 0.5000000000000000 -0.0000000000000000	0.158195
C	0.4565842126734979 0.0000000000000000 0.5000000000000000	-0.095785
C	0.3561452879891185 0.0000000000000000 0.5000000000000000	0.158165
C	0.9565842466735009 0.5000000000000000 -0.0000000000000000	-0.095785
C	0.8561452529891189 0.5000000000000000 -0.0000000000000000	0.158165
H	-0.0000000000000000 0.3413638862965783 0.2307343347946345	0.121215
H	-0.0000000000000000 0.1643433454490798 0.2412760406870073	0.096910
H	0.5000000000000000 0.8413638862965784 0.7307343347946347	0.121215
H	0.5000000000000000 0.6643432924490791 0.7412760706870100	0.096910
H	-0.0000000000000000 0.6586361137034216 0.2307343347946345	0.121214
H	-0.0000000000000000 0.8356567075509209 0.2412760406870073	0.096910
H	0.5000000000000000 0.1586361137034216 0.7307343347946347	0.121214
H	0.5000000000000000 0.3356566725509148 0.7412760706870100	0.096910
H	0.6586361137034216 0.0000000000000000 0.2307343347946345	0.121215
H	0.8356567075509209 0.0000000000000000 0.2412760406870073	0.096910
H	0.1586361137034216 0.5000000000000000 0.7307343347946347	0.121215
H	0.3356566725509148 0.5000000000000000 0.7412760706870100	0.096910
H	0.3413638862965783 0.0000000000000000 0.2307343347946345	0.121214
H	0.1643433454490798 0.0000000000000000 0.2412760406870073	0.096910
H	0.8413638862965784 0.5000000000000000 0.7307343347946347	0.121214
H	0.6643432924490791 0.5000000000000000 0.7412760706870100	0.096910
H	-0.0000000000000000 0.3413638862965783 0.7692656652053653	0.121216
H	-0.0000000000000000 0.1643433454490798 0.7587238713129923	0.096910
H	0.5000000000000000 0.8413638862965784 0.2692656652053657	0.121216
H	0.5000000000000000 0.6643432924490791 0.2587239593129926	0.096910
H	-0.0000000000000000 0.6586361137034216 0.7692656652053653	0.121215
H	-0.0000000000000000 0.8356567075509209 0.7587238713129923	0.096910
H	0.5000000000000000 0.1586361137034216 0.2692656652053657	0.121215
H	0.5000000000000000 0.3356566725509148 0.2587239593129926	0.096910
H	0.3413638862965783 0.0000000000000000 0.7692656652053653	0.121215
H	0.1643433454490798 0.0000000000000000 0.7587238713129923	0.096910
H	0.8413638862965784 0.5000000000000000 0.2692656652053657	0.121215
H	0.6643432924490791 0.5000000000000000 0.2587239593129926	0.096910
H	0.6586361137034216 0.0000000000000000 0.7692656652053653	0.121216
H	0.8356567075509209 0.0000000000000000 0.7587238713129923	0.096910
H	0.1586361137034216 0.5000000000000000 0.2692656652053657	0.121216
H	0.3356566725509148 0.5000000000000000 0.2587239593129926	0.096910
Fe	-0.0000000000000000 0.0000000000000000 0.5000000000000000	0.562569
Fe	0.5000000000000000 0.5000000000000000 -0.0000000000000000	0.562569
Ti	-0.0000000000000000 0.0000000000000000 -0.0000000000000000	2.309142
Ti	0.5000000000000000 0.5000000000000000 0.5000000000000000	2.309142
N	-0.0000000000000000 0.1564833992441939 0.5000000000000000	-0.185550
N	0.5000000000000000 0.6564833812441925 -0.0000000000000000	-0.185550
N	-0.0000000000000000 0.8435166187558075 0.5000000000000000	-0.185549
N	0.5000000000000000 0.3435166187558073 -0.0000000000000000	-0.185549
N	0.8435166187558075 0.0000000000000000 0.5000000000000000	-0.185550
N	0.3435166187558073 0.5000000000000000 -0.0000000000000000	-0.185550
N	0.1564833992441939 0.0000000000000000 0.5000000000000000	-0.185550
N	0.6564833812441925 0.5000000000000000 -0.0000000000000000	-0.185550
F	-0.0000000000000000 0.0000000000000000 0.7546647216665801	-0.573692
F	0.5000000000000000 0.5000000000000000 0.2546648106665835	-0.573692
F	-0.0000000000000000 0.0000000000000000 0.2453352043334213	-0.573692
F	0.5000000000000000 0.5000000000000000 0.7453352783334199	-0.573692
F	0.5945550506823946 0.5945550506823946 0.5000000000000000	-0.633451
F	0.5945550506823946 0.4054449493176054 0.5000000000000000	-0.633451
F	0.4054449493176054 0.5945550506823946 0.5000000000000000	-0.633451
F	0.4054449493176054 0.4054449493176054 0.5000000000000000	-0.633451
F	0.0945550676823924 0.0945550676823924 -0.0000000000000000	-0.633451
F	0.9054449493176054 0.9054449493176054 -0.0000000000000000	-0.633451
F	0.9054449493176054 0.0945550676823924 -0.0000000000000000	-0.633451
F	0.0945550676823924 0.9054449493176054 -0.0000000000000000	-0.633451
	  	
