#======================================================================

# CRYSTAL DATA

#----------------------------------------------------------------------

data_VESTA_phase_1


_pd_phase_name                         TIFSIX_4_Cd_i
_cell_length_a                         24.40428
_cell_length_b                         21.23846
_cell_length_c                         9.28703
_cell_angle_alpha                      90
_cell_angle_beta                       90
_cell_angle_gamma                      90
_symmetry_space_group_name_H-M         P 1
_symmetry_Int_Tables_number            1

loop_
_symmetry_equiv_pos_as_xyz
   x, y, z

loop_
   _atom_site_label
   _atom_site_fract_x
   _atom_site_fract_y
   _atom_site_fract_z
   _atom_site_charge
C	0.4100369501881429 0.5942903473207799 0.6268042657110573	0.103351
C	0.3679439589256289 0.5503181038000949 0.6245418420237123	-0.171844
C	0.2754862111480829 0.4500367383733056 0.6239898785358273	-0.116747
C	0.2316760852843872 0.4083496756805056 0.6227611975144079	-0.114357
C	0.1346657695227169 0.3239807479163541 0.6211053639596240	-0.167152
C	0.0893520690362540 0.2844136824224905 0.6248617786582237	0.097394
C	0.9100370331881388 0.0942903583207841 0.6268042657110573	0.103387
C	0.8679439169256320 0.0503180458000975 0.6245418420237123	-0.171842
C	0.7754862321480882 0.9500367853733060 0.6239898785358273	-0.116725
C	0.7316760652843860 0.9083497216805020 0.6227611975144079	-0.114361
C	0.6346657695227171 0.8239807949163548 0.6211053639596240	-0.167152
C	0.5893520540362495 0.7844137754224869 0.6248617786582237	0.097394
C	0.5899630498118574 0.4057096066792164 0.1268042737110580	0.103351
C	0.6320560830743680 0.4496819421999086 0.1245418570237100	-0.171845
C	0.7245137678519118 0.5499632146266940 0.1239898865358283	-0.116746
C	0.7683239347156140 0.5916503243194947 0.1227612055144086	-0.114357
C	0.8653342304772829 0.6760192520836455 0.1211053709596284	-0.167135
C	0.9106479459637505 0.7155862715775134 0.1248617936582214	0.097383
C	0.0899630608118619 0.9057096996792204 0.1268042737110579	0.103351
C	0.1320560410743712 0.9496818501999084 0.1245418570237100	-0.171845
C	0.2245138098519153 0.0499632616266945 0.1239898865358283	-0.116746
C	0.2683238937156145 0.0916503013194962 0.1227612055144086	-0.114357
C	0.3653342724772864 0.1760192630836433 0.1211053709596284	-0.167135
C	0.4106479459637509 0.2155863415775116 0.1248617936582214	0.097383
C	0.5899630498118574 0.5942903473207799 0.8731957032889437	0.103351
C	0.6320560830743680 0.5503181038000949 0.8754581269762887	-0.171844
C	0.7245137678519118 0.4500367383733056 0.8760101524641717	-0.116747
C	0.7683239347156140 0.4083496756805056 0.8772388334855911	-0.114357
C	0.8653342304772829 0.3239807479163541 0.8788946670403750	-0.167152
C	0.9106479459637505 0.2844136824224905 0.8751382523417753	0.097394
C	0.0899630608118619 0.0942903583207841 0.8731957032889437	0.103351
C	0.1320560410743712 0.0503180458000975 0.8754581269762887	-0.171838
C	0.2245138098519153 0.9500367853733060 0.8760101524641717	-0.116725
C	0.2683238937156145 0.9083497216805020 0.8772388334855911	-0.114361
C	0.3653342724772864 0.8239807949163548 0.8788946670403750	-0.167152
C	0.4106479459637509 0.7844137754224869 0.8751382523417753	0.097393
C	0.4100369501881429 0.4057096066792164 0.3731957342889425	0.103352
C	0.3679439589256289 0.4496819421999086 0.3754581269762886	-0.171845
C	0.2754862111480829 0.5499632146266940 0.3760101214641725	-0.116746
C	0.2316760852843872 0.5916503243194947 0.3772387714855929	-0.114357
C	0.1346657695227169 0.6760192520836455 0.3788946050403695	-0.167135
C	0.0893520690362540 0.7155862715775134 0.3751381903417769	0.097383
C	0.9100370331881388 0.9057096996792204 0.3731957342889425	0.103388
C	0.8679439169256320 0.9496818501999084 0.3754581269762886	-0.171849
C	0.7754862321480882 0.0499632616266945 0.3760101214641725	-0.116746
C	0.7316760652843860 0.0916503013194962 0.3772387714855929	-0.114357
C	0.6346657695227171 0.1760192630836433 0.3788946050403695	-0.167135
C	0.5893520540362495 0.2155863415775116 0.3751381903417769	0.097383
C	0.5899630498118574 0.4057096066792164 0.3731957342889425	0.103353
C	0.6320560830743680 0.4496819421999086 0.3754581269762886	-0.171845
C	0.7245137678519118 0.5499632146266940 0.3760101214641725	-0.116746
C	0.7683239347156140 0.5916503243194947 0.3772387714855929	-0.114357
C	0.8653342304772829 0.6760192520836455 0.3788946050403695	-0.167136
C	0.9106479459637505 0.7155862715775134 0.3751381903417769	0.097385
C	0.0899630608118619 0.9057096996792204 0.3731957342889425	0.103352
C	0.1320560410743712 0.9496818501999084 0.3754581269762886	-0.171845
C	0.2245138098519153 0.0499632616266945 0.3760101214641725	-0.116746
C	0.2683238937156145 0.0916503013194962 0.3772387714855929	-0.114357
C	0.3653342724772864 0.1760192630836433 0.3788946050403695	-0.167135
C	0.4106479459637509 0.2155863415775116 0.3751381903417769	0.097385
C	0.4100369501881429 0.5942903473207799 0.8731957032889437	0.103352
C	0.3679439589256289 0.5503181038000949 0.8754581269762887	-0.171844
C	0.2754862111480829 0.4500367383733056 0.8760101524641717	-0.116747
C	0.2316760852843872 0.4083496756805056 0.8772388334855911	-0.114357
C	0.1346657695227169 0.3239807479163541 0.8788946670403750	-0.167152
C	0.0893520690362540 0.2844136824224905 0.8751382523417753	0.097396
C	0.9100370331881388 0.0942903583207841 0.8731957032889437	0.103388
C	0.8679439169256320 0.0503180458000975 0.8754581269762887	-0.171842
C	0.7754862321480882 0.9500367853733060 0.8760101524641717	-0.116725
C	0.7316760652843860 0.9083497216805020 0.8772388334855911	-0.114361
C	0.6346657695227171 0.8239807949163547 0.8788946670403750	-0.167152
C	0.5893520540362495 0.7844137754224869 0.8751382523417753	0.097395
C	0.4100369501881429 0.4057096066792164 0.1268042737110579	0.103353
C	0.3679439589256289 0.4496819421999086 0.1245418570237100	-0.171845
C	0.2754862111480829 0.5499632146266940 0.1239898865358283	-0.116746
C	0.2316760852843872 0.5916503243194947 0.1227612055144086	-0.114357
C	0.1346657695227169 0.6760192520836455 0.1211053709596284	-0.167136
C	0.0893520690362540 0.7155862715775134 0.1248617936582214	0.097385
C	0.9100370331881388 0.9057096996792204 0.1268042737110579	0.103389
C	0.8679439169256320 0.9496818501999084 0.1245418570237100	-0.171849
C	0.7754862321480882 0.0499632616266945 0.1239898865358283	-0.116746
C	0.7316760652843860 0.0916503013194962 0.1227612055144086	-0.114357
C	0.6346657695227171 0.1760192630836433 0.1211053709596284	-0.167136
C	0.5893520540362495 0.2155863415775116 0.1248617936582214	0.097385
C	0.5899630498118574 0.5942903473207799 0.6268042657110573	0.103353
C	0.6320560830743680 0.5503181038000949 0.6245418420237123	-0.171844
C	0.7245137678519118 0.4500367383733056 0.6239898785358273	-0.116747
C	0.7683239347156140 0.4083496756805056 0.6227611975144079	-0.114357
C	0.8653342304772829 0.3239807479163541 0.6211053639596240	-0.167152
C	0.9106479459637505 0.2844136824224905 0.6248617786582237	0.097396
C	0.0899630608118619 0.0942903583207841 0.6268042657110573	0.103352
C	0.1320560410743712 0.0503180458000975 0.6245418420237123	-0.171839
C	0.2245138098519153 0.9500367853733060 0.6239898785358273	-0.116725
C	0.2683238937156145 0.9083497216805020 0.6227611975144079	-0.114361
C	0.3653342724772864 0.8239807949163548 0.6211053639596240	-0.167152
C	0.4106479459637509 0.7844137754224869 0.6248617786582237	0.097395
C	0.3444190568666927 0.5242319765872940 0.7500000149999977	0.115205
C	0.2991913697604605 0.4753905046545266 0.7500000149999977	0.066511
C	0.2071116704014105 0.3870048179855420 0.7500000149999977	0.066323
C	0.1589414197036648 0.3448683939722632 0.7500000149999977	0.103289
C	0.8444190148666968 0.0242319595872962 0.7500000149999977	0.115181
C	0.7991914317604586 0.9753904576545261 0.7500000149999977	0.066493
C	0.7071116704014111 0.8870048409855399 0.7500000149999977	0.066324
C	0.6589414197036645 0.8448683249722612 0.7500000149999977	0.103289
C	0.6555809431333068 0.4757680694127027 0.2500000000000000	0.115204
C	0.7008085682395414 0.5246094953454735 0.2500000000000000	0.066510
C	0.7928883295985889 0.6129952060144604 0.2500000000000000	0.066325
C	0.8410586212963425 0.6551315830277383 0.2500000000000000	0.103272
C	0.1555809541333044 0.9757681164127030 0.2500000000000000	0.115205
C	0.2008086512395376 0.0246094983454701 0.2500000000000000	0.066511
C	0.2928883295985894 0.1129951590144596 0.2500000000000000	0.066325
C	0.3410585802963352 0.1551316170277413 0.2500000000000000	0.103272
C	0.6555809431333068 0.5242319765872940 0.7500000149999977	0.115204
C	0.7008085682395414 0.4753905046545266 0.7500000149999977	0.066511
C	0.7928883295985889 0.3870048179855420 0.7500000149999977	0.066323
C	0.8410586212963425 0.3448683939722632 0.7500000149999977	0.103289
C	0.1555809541333044 0.0242319595872962 0.7500000149999977	0.115179
C	0.2008086512395376 0.9753904576545261 0.7500000149999977	0.066494
C	0.2928883295985894 0.8870048409855399 0.7500000149999977	0.066324
C	0.3410585802963352 0.8448683249722612 0.7500000149999977	0.103289
C	0.3444190568666927 0.4757680694127027 0.2500000000000000	0.115205
C	0.2991913697604605 0.5246094953454735 0.2500000000000000	0.066511
C	0.2071116704014105 0.6129952060144604 0.2500000000000000	0.066325
C	0.1589414197036648 0.6551315830277383 0.2500000000000000	0.103272
C	0.8444190148666968 0.9757681164127030 0.2500000000000000	0.115206
C	0.7991914317604586 0.0246094983454701 0.2500000000000000	0.066510
C	0.7071116704014111 0.1129951590144596 0.2500000000000000	0.066325
C	0.6589414197036644 0.1551316170277413 0.2500000000000000	0.103272
H	0.4271909476989965 0.6123030757140117 0.5260117545600972	0.110433
H	0.3555814125837835 0.5381459782611691 0.5172774668465044	0.106333
H	0.2904185817447021 0.4615619193027289 0.5187155788211643	0.087459
H	0.2169237908988866 0.3927837677685672 0.5180623707335096	0.103899
H	0.1505011975061416 0.3377204877025423 0.5162905549849394	0.118489
H	0.0702922015744011 0.2672571876008271 0.5257323995687989	0.109877
H	0.9271909056989932 0.1123031107140107 0.5260117545600972	0.110425
H	0.8555813715837836 0.0381459142611637 0.5172774668465044	0.106332
H	0.7904185607447037 0.9615619193027294 0.5187155788211643	0.087456
H	0.7169237488988830 0.8927836987685716 0.5180623707335096	0.103899
H	0.6505011875061404 0.8377204877025419 0.5162905549849394	0.118489
H	0.5702922325744004 0.7672571646008285 0.5257323995687989	0.109877
H	0.5728090523010033 0.3876969242859890 0.0260118165600951	0.110433
H	0.6444185874162166 0.4618540687388313 0.0172774668465045	0.106333
H	0.7095814392552963 0.5384380346972668 0.0187156408211624	0.087459
H	0.7830762511011170 0.6072162092314279 0.0180623097335086	0.103899
H	0.8494988124938596 0.6622794662974543 0.0162905549849391	0.118488
H	0.9297077264255997 0.7327428353991715 0.0257323685688005	0.109878
H	0.0728090583010038 0.8876969242859883 0.0260118165600951	0.110434
H	0.1444186284162164 0.9618540687388313 0.0172774668465045	0.106334
H	0.2095814392552962 0.0384380776972675 0.0187156408211624	0.087459
H	0.2830762091011134 0.1072162432314302 0.0180623097335086	0.103899
H	0.3494988124938593 0.1622794892974523 0.0162905549849393	0.118488
H	0.4297077674255997 0.2327428123991729 0.0257323685688002	0.109877
H	0.5728090523010033 0.6123030757140117 -0.0260117735600952	0.110433
H	0.6444185874162166 0.5381459782611691 -0.0172774938465102	0.106333
H	0.7095814392552963 0.4615619193027289 -0.0187155968211587	0.087459
H	0.7830762511011170 0.3927837677685672 -0.0180623637335060	0.103899
H	0.8494988124938596 0.3377204877025423 -0.0162905549849393	0.118489
H	0.9297077264255997 0.2672571876008271 -0.0257324065688035	0.109877
H	0.0728090583010038 0.1123031107140107 -0.0260117735600952	0.110433
H	0.1444186284162164 0.0381459142611637 -0.0172774938465102	0.106333
H	0.2095814392552962 0.9615619193027294 -0.0187155968211587	0.087456
H	0.2830762091011134 0.8927836987685716 -0.0180623637335060	0.103899
H	0.3494988124938593 0.8377204877025419 -0.0162905549849393	0.118489
H	0.4297077674255997 0.7672571646008285 -0.0257324065688035	0.109876
H	0.4271909476989965 0.3876969242859890 0.4739882144399040	0.110433
H	0.3555814125837835 0.4618540687388313 0.4827225641534947	0.106333
H	0.2904185817447021 0.5384380346972668 0.4812843901788367	0.087459
H	0.2169237908988866 0.6072162092314279 0.4819375982664909	0.103899
H	0.1505011975061416 0.6622794662974543 0.4837094140150618	0.118488
H	0.0702922015744011 0.7327428353991715 0.4742676004312005	0.109877
H	0.9271909056989932 0.8876969242859883 0.4739882144399040	0.110425
H	0.8555813715837836 0.9618540687388313 0.4827225641534947	0.106333
H	0.7904185607447037 0.0384380776972675 0.4812843901788367	0.087458
H	0.7169237488988830 0.1072162432314302 0.4819375982664909	0.103899
H	0.6505011875061404 0.1622794892974523 0.4837094140150618	0.118488
H	0.5702922325744004 0.2327428123991729 0.4742676004312005	0.109877
H	0.5728090523010033 0.3876969242859890 0.4739882144399040	0.110433
H	0.6444185874162166 0.4618540687388313 0.4827225641534947	0.106333
H	0.7095814392552963 0.5384380346972668 0.4812843901788367	0.087459
H	0.7830762511011170 0.6072162092314279 0.4819375982664909	0.103899
H	0.8494988124938596 0.6622794662974543 0.4837094140150618	0.118488
H	0.9297077264255997 0.7327428353991715 0.4742676004312005	0.109878
H	0.0728090583010038 0.8876969242859883 0.4739882144399040	0.110434
H	0.1444186284162164 0.9618540687388313 0.4827225641534947	0.106334
H	0.2095814392552962 0.0384380776972675 0.4812843901788367	0.087459
H	0.2830762091011134 0.1072162432314302 0.4819375982664909	0.103899
H	0.3494988124938593 0.1622794892974523 0.4837094140150618	0.118488
H	0.4297077674255997 0.2327428123991729 0.4742676004312005	0.109877
H	0.4271909476989965 0.6123030757140117 -0.0260117735600952	0.110433
H	0.3555814125837835 0.5381459782611691 -0.0172774938465102	0.106333
H	0.2904185817447021 0.4615619193027289 -0.0187155968211587	0.087459
H	0.2169237908988866 0.3927837677685672 -0.0180623637335060	0.103899
H	0.1505011975061416 0.3377204877025423 -0.0162905549849393	0.118489
H	0.0702922015744011 0.2672571876008271 -0.0257324065688035	0.109877
H	0.9271909056989932 0.1123031107140107 -0.0260117735600952	0.110425
H	0.8555813715837836 0.0381459142611637 -0.0172774938465102	0.106332
H	0.7904185607447037 0.9615619193027294 -0.0187155968211587	0.087456
H	0.7169237488988830 0.8927836987685716 -0.0180623637335060	0.103899
H	0.6505011875061404 0.8377204877025419 -0.0162905549849393	0.118489
H	0.5702922325744004 0.7672571646008285 -0.0257324065688035	0.109877
H	0.4271909476989965 0.3876969242859890 0.0260118165600951	0.110433
H	0.3555814125837835 0.4618540687388313 0.0172774668465045	0.106333
H	0.2904185817447021 0.5384380346972668 0.0187156408211624	0.087459
H	0.2169237908988866 0.6072162092314279 0.0180623097335086	0.103899
H	0.1505011975061416 0.6622794662974543 0.0162905549849391	0.118488
H	0.0702922015744011 0.7327428353991715 0.0257323685688005	0.109878
H	0.9271909056989932 0.8876969242859883 0.0260118165600951	0.110425
H	0.8555813715837836 0.9618540687388313 0.0172774668465045	0.106333
H	0.7904185607447037 0.0384380776972675 0.0187156408211624	0.087459
H	0.7169237488988830 0.1072162432314302 0.0180623097335086	0.103899
H	0.6505011875061404 0.1622794892974523 0.0162905549849391	0.118488
H	0.5702922325744004 0.2327428123991729 0.0257323685688005	0.109878
H	0.5728090523010033 0.6123030757140117 0.5260117545600972	0.110433
H	0.6444185874162166 0.5381459782611691 0.5172774668465044	0.106333
H	0.7095814392552963 0.4615619193027289 0.5187155788211643	0.087459
H	0.7830762511011170 0.3927837677685672 0.5180623707335096	0.103899
H	0.8494988124938596 0.3377204877025423 0.5162905549849394	0.118490
H	0.9297077264255997 0.2672571876008271 0.5257323995687989	0.109877
H	0.0728090583010038 0.1123031107140107 0.5260117545600972	0.110433
H	0.1444186284162164 0.0381459142611637 0.5172774668465044	0.106333
H	0.2095814392552962 0.9615619193027294 0.5187155788211643	0.087456
H	0.2830762091011134 0.8927836987685716 0.5180623707335097	0.103899
H	0.3494988124938593 0.8377204877025419 0.5162905549849394	0.118490
H	0.4297077674255997 0.7672571646008285 0.5257323995687989	0.109877
Cd	0.5000000000000000 0.6892033738373302 0.7500000149999977	0.833360
Cd	0.0000000000000000 0.1892034318373282 0.7500000149999977	0.833339
Cd	0.5000000000000000 0.3107965561626712 0.2500000000000000	0.833372
Cd	0.0000000000000000 0.8107966261626698 0.2500000000000000	0.833351
F	0.5000000000000000 0.6845746698283819 0.4666934767933054	-0.669538
F	0.0000000000000000 0.1845747048283809 0.4666934767933054	-0.669535
F	0.5000000000000000 0.3154253071716128 0.9666934767933050	-0.669537
F	0.0000000000000000 0.8154253301716181 0.9666934767933050	-0.669535
F	0.5000000000000000 0.6845746698283819 0.0333065092066936	-0.669538
F	0.0000000000000000 0.1845747048283809 0.0333065092066936	-0.669535
F	0.5000000000000000 0.3154253071716128 0.5333064932066925	-0.669537
F	0.0000000000000000 0.8154253301716181 0.5333064932066925	-0.669535
F	0.4450048207274278 0.7459712255243719 0.2500000000000000	-0.669664
F	0.5547099724873275 0.6201889165679988 0.2500000000000000	-0.662426
F	0.9450048207274282 0.2459712255243723 0.2500000000000000	-0.669664
F	0.0547099934873330 0.1201889165679987 0.2500000000000000	-0.662426
F	0.5549951382725720 0.2540287514756293 0.7500000149999977	-0.669663
F	0.4452900275126721 0.3798110834320014 0.7500000149999977	-0.662427
F	0.0549951902725768 0.7540287744756281 0.7500000149999977	-0.669663
F	0.9452900275126725 0.8798110834320012 0.7500000149999977	-0.662426
F	0.5549951382725720 0.7459712255243719 0.2500000000000000	-0.669664
F	0.4452900275126721 0.6201889165679988 0.2500000000000000	-0.662426
F	0.0549951902725768 0.2459712255243723 0.2500000000000000	-0.669664
F	0.9452900275126725 0.1201889165679987 0.2500000000000000	-0.662426
F	0.4450048207274278 0.2540287514756293 0.7500000149999977	-0.669663
F	0.5547099724873275 0.3798110834320014 0.7500000149999977	-0.662427
F	0.9450048207274282 0.7540287744756281 0.7500000149999977	-0.669663
F	0.0547099934873330 0.8798110834320012 0.7500000149999977	-0.662427
N	0.4315825019446010 0.6160687931401044 0.7500000149999977	-0.231953
N	0.5671992629200231 0.7649049138257774 0.7500000149999977	-0.245669
N	0.9315824609445936 0.1160687811401035 0.7500000149999977	-0.231994
N	0.0671992369200213 0.2649048908257718 0.7500000149999977	-0.245666
N	0.5684174980553994 0.3839312068598955 0.2500000000000000	-0.231954
N	0.4328007370799767 0.2350951091742280 0.2500000000000000	-0.245668
N	0.0684174980553989 0.8839312068598956 0.2500000000000000	-0.231951
N	0.9328007780799767 0.7350950861742226 0.2500000000000000	-0.245664
N	0.5684174980553994 0.6160687931401044 0.7500000149999977	-0.231952
N	0.4328007370799767 0.7649049138257774 0.7500000149999977	-0.245669
N	0.0684174980553989 0.1160687811401035 0.7500000149999977	-0.231949
N	0.9328007780799767 0.2649048908257718 0.7500000149999977	-0.245665
N	0.4315825019446010 0.3839312068598955 0.2500000000000000	-0.231954
N	0.5671992629200231 0.2350951091742280 0.2500000000000000	-0.245668
N	0.9315824609445936 0.8839312068598956 0.2500000000000000	-0.231995
N	0.0671992369200213 0.7350950861742226 0.2500000000000000	-0.245664
Ti	0.5000000000000000 0.6833362419771998 0.2500000000000000	2.353938
Ti	0.0000000000000000 0.1833362659772014 0.2500000000000000	2.353938
Ti	0.5000000000000000 0.3166637110228003 0.7500000149999977	2.353932
Ti	0.0000000000000000 0.8166637580228002 0.7500000149999977	2.353931
	  	
