#======================================================================

# CRYSTAL DATA

#----------------------------------------------------------------------

data_VESTA_phase_1


_pd_phase_name                         TIFSIX_5_Fe_i
_cell_length_a                         19.93147
_cell_length_b                         19.93147
_cell_length_c                         15.59889
_cell_angle_alpha                      90
_cell_angle_beta                       90
_cell_angle_gamma                      90
_symmetry_space_group_name_H-M         P 1
_symmetry_Int_Tables_number            1

loop_
_symmetry_equiv_pos_as_xyz
   x, y, z

loop_
   _atom_site_label
   _atom_site_fract_x
   _atom_site_fract_y
   _atom_site_fract_z
   _atom_site_charge
F	0.3241307232028490 0.1906976430612630 0.3507651717316804	-0.650268
F	0.1758692647971500 0.3093023569387370 0.3507651717316804	-0.650271
F	0.3093023569387370 0.3241307232028490 0.3507651717316804	-0.650270
F	0.1906976430612630 0.1758692647971500 0.3507651717316804	-0.650269
F	0.6758693007971459 0.6906976670612650 0.1492348282683196	-0.650269
F	0.8241306992028541 0.8093023329387350 0.1492348282683196	-0.650271
F	0.6906976670612650 0.8241306992028541 0.1492348282683196	-0.650271
F	0.8093023329387350 0.6758693007971459 0.1492348282683196	-0.650269
F	0.6758693007971459 0.8093023329387350 0.6492348602683222	-0.650272
F	0.8241306992028541 0.6906976670612650 0.6492348602683222	-0.650268
F	0.6906976670612650 0.6758693007971459 0.6492348602683222	-0.650269
F	0.8093023329387350 0.8241306992028541 0.6492348602683222	-0.650271
F	0.3241307232028490 0.3093023569387370 0.8507651397316778	-0.650271
F	0.1758692647971500 0.1906976430612630 0.8507651397316778	-0.650269
F	0.3093023569387370 0.1758692647971500 0.8507651397316778	-0.650268
F	0.1906976430612630 0.3241307232028490 0.8507651397316778	-0.650271
F	0.2500000000000000 0.2500000000000000 0.4732799408879487	-0.566018
F	0.2500000000000000 0.2500000000000000 0.2284032657628714	-0.567251
F	0.7500000000000000 0.7500000000000000 0.0267200861120500	-0.566019
F	0.7500000000000000 0.7500000000000000 0.2715967182371273	-0.567251
F	0.7500000000000000 0.7500000000000000 0.5267200901120503	-0.566017
F	0.7500000000000000 0.7500000000000000 0.7715967182371273	-0.567252
F	0.2500000000000000 0.2500000000000000 0.9732799098879497	-0.566017
F	0.2500000000000000 0.2500000000000000 0.7284032817628727	-0.567252
N	0.3569420245294879 0.2476786021156059 0.6013005482362246	-0.190155
N	0.1430579754705121 0.2523213978843870 0.6013005482362246	-0.190155
N	0.2523213978843870 0.3569420245294879 0.6013005482362246	-0.190155
N	0.2476786021156059 0.1430579754705121 0.6013005482362246	-0.190155
N	0.6430579994705141 0.7476785781156039 0.8986994517637754	-0.190155
N	0.8569420005294859 0.7523214218843961 0.8986994517637754	-0.190155
N	0.7476785781156039 0.8569420005294859 0.8986994517637754	-0.190155
N	0.7523214218843961 0.6430579994705141 0.8986994517637754	-0.190154
N	0.6430579994705141 0.7523214218843961 0.3986994827637744	-0.190159
N	0.8569420005294859 0.7476785781156039 0.3986994827637744	-0.190158
N	0.7476785781156039 0.6430579994705141 0.3986994827637744	-0.190158
N	0.7523214218843961 0.8569420005294859 0.3986994827637744	-0.190159
N	0.3569420245294879 0.2523213978843870 0.1013005482362246	-0.190156
N	0.1430579754705121 0.2476786021156059 0.1013005482362246	-0.190158
N	0.2523213978843870 0.1430579754705121 0.1013005482362246	-0.190156
N	0.2476786021156059 0.3569420245294879 0.1013005482362246	-0.190158
C	0.3902717632142014 0.2179893387456247 0.6663254716123603	0.098715
C	0.4598228406116149 0.2163819285406703 0.6698776318451536	-0.177800
C	0.4977271112247124 0.2471145924642002 0.6050833599327063	0.103559
C	0.4622434767651384 0.2776923231158861 0.5379175050553258	-0.179362
C	0.3925974105310885 0.2767035068198425 0.5378146951980511	0.098390
C	0.5714909755866202 0.2478028232214484 0.6082066800460666	0.055480
C	0.6075108967095062 0.1917207553749876 0.6376608891325191	-0.131244
C	0.6771798885764966 0.1925056503640974 0.6401116747190301	-0.123101
C	0.7131589419499633 0.2498021474425656 0.6150425421981325	0.066754
C	0.6771557064807112 0.3062127167085151 0.5869791551278922	-0.117273
C	0.6075472654117604 0.3049558783801487 0.5826101577884018	-0.128348
C	0.1097282127858037 0.2820106852543773 0.6663254716123603	0.098721
C	0.0401770993883872 0.2836180954593317 0.6698776318451536	-0.177814
C	0.0022728677752895 0.2528854075357998 0.6050833599327063	0.103555
C	0.0377565502348602 0.2223076768841139 0.5379175050553258	-0.179345
C	0.1074025534689085 0.2232965171801595 0.5378146951980511	0.098391
C	0.9285089764133829 0.2521971527785496 0.6082066800460666	0.055480
C	0.8924891512904907 0.3082792796250118 0.6376608891325191	-0.131241
C	0.8228201114235034 0.3074943616358965 0.6401116747190301	-0.123100
C	0.7868410580500367 0.2501978285574324 0.6150425421981325	0.066751
C	0.8228443405192891 0.1937872832914849 0.5869791551278922	-0.117269
C	0.8924528305882404 0.1950441566198506 0.5826101577884018	-0.128348
C	0.2820106852543773 0.3902717632142014 0.6663254716123603	0.098722
C	0.2836180954593317 0.4598228406116149 0.6698776318451536	-0.177815
C	0.2528854075357998 0.4977271112247124 0.6050833599327063	0.103556
C	0.2223076768841139 0.4622434767651384 0.5379175050553258	-0.179347
C	0.2232965171801595 0.3925974105310885 0.5378146951980511	0.098394
C	0.2521971527785496 0.5714909755866202 0.6082066800460666	0.055479
C	0.3082792796250118 0.6075108967095062 0.6376608891325191	-0.131244
C	0.3074943616358965 0.6771798885764966 0.6401116747190301	-0.123102
C	0.2501978285574324 0.7131589419499633 0.6150425421981325	0.066752
C	0.1937872832914849 0.6771557064807112 0.5869791551278922	-0.117272
C	0.1950441566198506 0.6075472654117604 0.5826101577884018	-0.128350
C	0.2179893387456247 0.1097282127858037 0.6663254716123603	0.098714
C	0.2163819285406703 0.0401770993883872 0.6698776318451536	-0.177800
C	0.2471145924642002 0.0022728677752895 0.6050833599327063	0.103558
C	0.2776923231158861 0.0377565502348602 0.5379175050553258	-0.179359
C	0.2767035068198425 0.1074025534689085 0.5378146951980511	0.098387
C	0.2478028232214484 0.9285089764133829 0.6082066800460666	0.055481
C	0.1917207553749876 0.8924891512904907 0.6376608891325191	-0.131241
C	0.1925056503640974 0.8228201114235034 0.6401116747190301	-0.123099
C	0.2498021474425656 0.7868410580500367 0.6150425421981325	0.066753
C	0.3062127167085151 0.8228443405192891 0.5869791551278922	-0.117270
C	0.3049558783801487 0.8924528305882404 0.5826101577884018	-0.128347
C	0.6097282127858037 0.7179893867456215 0.8336745283876397	0.098719
C	0.5401771113883882 0.7163819525406652 0.8301223681548464	-0.177811
C	0.5022728887752876 0.7471146404641971 0.8949166400672937	0.103554
C	0.5377566192348624 0.7776922751158821 0.9620824949446742	-0.179334
C	0.6074026134689063 0.7767035308198373 0.9621853048019489	0.098380
C	0.4285090244133798 0.7478028952214473 0.8917933199539334	0.055481
C	0.3924891032904938 0.6917207203749811 0.8623391108674809	-0.131242
C	0.3228200394234975 0.6925056143641015 0.8598883252809699	-0.123100
C	0.2868411060500407 0.7498021714425676 0.8849574578018675	0.066753
C	0.3228442455192848 0.8062127167085151 0.9130208448721078	-0.117271
C	0.3924527585882345 0.8049558073801464 0.9173898422115982	-0.128344
C	0.8902717872141963 0.7820106132543785 0.8336745283876397	0.098722
C	0.9598228886116118 0.7836180474593348 0.8301223681548464	-0.177816
C	0.9977271592247092 0.7528853595358029 0.8949166400672937	0.103556
C	0.9622434287651416 0.7223077248841179 0.9620824949446742	-0.179331
C	0.8925973865310937 0.7232964691801627 0.9621853048019489	0.098381
C	0.0714910115866161 0.7521971047785527 0.8917933199539334	0.055480
C	0.1075108847095052 0.8082792796250189 0.8623391108674809	-0.131243
C	0.1771799365765006 0.8074943376359016 0.8598883252809699	-0.123101
C	0.2131588939499593 0.7501978285574324 0.8849574578018675	0.066752
C	0.1771557304807132 0.6937872832914849 0.9130208448721078	-0.117271
C	0.1075472414117655 0.6950441456198533 0.9173898422115982	-0.128348
C	0.7179893867456215 0.8902717872141963 0.8336745283876397	0.098722
C	0.7163819525406652 0.9598228886116118 0.8301223681548464	-0.177813
C	0.7471146404641971 0.9977271592247092 0.8949166400672937	0.103555
C	0.7776922751158821 0.9622434287651416 0.9620824949446742	-0.179334
C	0.7767035308198373 0.8925973865310937 0.9621853048019489	0.098381
C	0.7478028952214473 0.0714910115866161 0.8917933199539334	0.055480
C	0.6917207203749811 0.1075108847095052 0.8623391108674809	-0.131244
C	0.6925056143641015 0.1771799365765006 0.8598883252809699	-0.123100
C	0.7498021714425676 0.2131588939499593 0.8849574578018675	0.066753
C	0.8062127167085151 0.1771557304807132 0.9130208448721078	-0.117270
C	0.8049558073801464 0.1075472414117655 0.9173898422115982	-0.128347
C	0.7820106132543785 0.6097282127858037 0.8336745283876397	0.098717
C	0.7836180474593348 0.5401771113883882 0.8301223681548464	-0.177814
C	0.7528853595358029 0.5022728887752876 0.8949166400672937	0.103555
C	0.7223077248841179 0.5377566192348624 0.9620824949446742	-0.179331
C	0.7232964691801627 0.6074026134689063 0.9621853048019489	0.098380
C	0.7521971047785527 0.4285090244133798 0.8917933199539334	0.055481
C	0.8082792796250189 0.3924891032904938 0.8623391108674809	-0.131241
C	0.8074943376359016 0.3228200394234975 0.8598883252809699	-0.123101
C	0.7501978285574324 0.2868411060500407 0.8849574578018675	0.066752
C	0.6937872832914849 0.3228442455192848 0.9130208448721078	-0.117271
C	0.6950441456198533 0.3924527585882345 0.9173898422115982	-0.128345
C	0.6097282127858037 0.7820106132543785 0.3336745593876387	0.098719
C	0.5401771113883882 0.7836180474593348 0.3301223681548464	-0.177807
C	0.5022728887752876 0.7528853595358029 0.3949166400672937	0.103522
C	0.5377566192348624 0.7223077248841179 0.4620825259446804	-0.179316
C	0.6074026134689063 0.7232964691801627 0.4621853048019489	0.098388
C	0.4285090244133798 0.7521971047785527 0.3917933199539334	0.055489
C	0.3924891032904938 0.8082792796250189 0.3623390798674819	-0.131241
C	0.3228200394234975 0.8074943376359016 0.3598883562809689	-0.123102
C	0.2868411060500407 0.7501978285574324 0.3849573638018668	0.066753
C	0.3228442455192848 0.6937872832914849 0.4130208758721068	-0.117269
C	0.3924527585882345 0.6950441456198533 0.4173898422115982	-0.128347
C	0.8902717872141963 0.7179893867456215 0.3336745593876387	0.098718
C	0.9598228886116118 0.7163819525406652 0.3301223681548464	-0.177806
C	0.9977271592247092 0.7471146404641971 0.3949166400672937	0.103525
C	0.9622434287651416 0.7776922751158821 0.4620825259446804	-0.179321
C	0.8925973865310937 0.7767035308198373 0.4621853048019489	0.098390
C	0.0714910115866161 0.7478028952214473 0.3917933199539334	0.055489
C	0.1075108847095052 0.6917207203749811 0.3623390798674819	-0.131244
C	0.1771799365765006 0.6925056143641015 0.3598883562809689	-0.123102
C	0.2131588939499593 0.7498021714425676 0.3849573638018668	0.066753
C	0.1771557304807132 0.8062127167085151 0.4130208758721068	-0.117273
C	0.1075472414117655 0.8049558073801464 0.4173898422115982	-0.128348
C	0.7179893867456215 0.6097282127858037 0.3336745593876387	0.098717
C	0.7163819525406652 0.5401771113883882 0.3301223681548464	-0.177805
C	0.7471146404641971 0.5022728887752876 0.3949166400672937	0.103524
C	0.7776922751158821 0.5377566192348624 0.4620825259446804	-0.179318
C	0.7767035308198373 0.6074026134689063 0.4621853048019489	0.098387
C	0.7478028952214473 0.4285090244133798 0.3917933199539334	0.055489
C	0.6917207203749811 0.3924891032904938 0.3623390798674819	-0.131241
C	0.6925056143641015 0.3228200394234975 0.3598883562809689	-0.123101
C	0.7498021714425676 0.2868411060500407 0.3849573638018668	0.066755
C	0.8062127167085151 0.3228442455192848 0.4130208758721068	-0.117270
C	0.8049558073801464 0.3924527585882345 0.4173898422115982	-0.128346
C	0.7820106132543785 0.8902717872141963 0.3336745593876387	0.098719
C	0.7836180474593348 0.9598228886116118 0.3301223681548464	-0.177808
C	0.7528853595358029 0.9977271592247092 0.3949166400672937	0.103523
C	0.7223077248841179 0.9622434287651416 0.4620825259446804	-0.179318
C	0.7232964691801627 0.8925973865310937 0.4621853048019489	0.098390
C	0.7521971047785527 0.0714910115866161 0.3917933199539334	0.055488
C	0.8082792796250189 0.1075108847095052 0.3623390798674819	-0.131245
C	0.8074943376359016 0.1771799365765006 0.3598883562809689	-0.123103
C	0.7501978285574324 0.2131588939499593 0.3849573638018668	0.066751
C	0.6937872832914849 0.1771557304807132 0.4130208758721068	-0.117272
C	0.6950441456198533 0.1075472414117655 0.4173898422115982	-0.128349
C	0.3902717632142014 0.2820106852543773 0.1663254566123626	0.098721
C	0.4598228406116149 0.2836180954593317 0.1698776008451546	-0.177808
C	0.4977271112247124 0.2528854075357998 0.1050833599327063	0.103519
C	0.4622434767651384 0.2223076768841139 0.0379174700553264	-0.179305
C	0.3925974105310885 0.2232965171801595 0.0378146871980505	0.098393
C	0.5714909755866202 0.2521971527785496 0.1082066720460659	0.055489
C	0.6075108967095062 0.3082792796250118 0.1376608891325191	-0.131244
C	0.6771798885764966 0.3074943616358965 0.1401116277190297	-0.123102
C	0.7131589419499633 0.2501978285574324 0.1150426131981348	0.066755
C	0.6771557064807112 0.1937872832914849 0.0869791391278909	-0.117271
C	0.6075472654117604 0.1950441566198506 0.0826101727883994	-0.128348
C	0.1097282127858037 0.2179893387456247 0.1663254566123626	0.098712
C	0.0401770993883872 0.2163819285406703 0.1698776008451546	-0.177791
C	0.0022728677752895 0.2471145924642002 0.1050833599327063	0.103519
C	0.0377565502348602 0.2776923231158861 0.0379174700553264	-0.179319
C	0.1074025534689085 0.2767035068198425 0.0378146871980505	0.098388
C	0.9285089764133829 0.2478028232214484 0.1082066720460659	0.055490
C	0.8924891512904907 0.1917207553749876 0.1376608891325191	-0.131243
C	0.8228201114235034 0.1925056503640974 0.1401116277190297	-0.123100
C	0.7868410580500367 0.2498021474425656 0.1150426131981348	0.066752
C	0.8228443405192891 0.3062127167085151 0.0869791391278909	-0.117270
C	0.8924528305882404 0.3049558783801487 0.0826101727883994	-0.128345
C	0.2820106852543773 0.1097282127858037 0.1663254566123626	0.098717
C	0.2836180954593317 0.0401770993883872 0.1698776008451546	-0.177806
C	0.2528854075357998 0.0022728677752895 0.1050833599327063	0.103519
C	0.2223076768841139 0.0377565502348602 0.0379174700553264	-0.179304
C	0.2232965171801595 0.1074025534689085 0.0378146871980505	0.098391
C	0.2521971527785496 0.9285089764133829 0.1082066720460659	0.055490
C	0.3082792796250118 0.8924891512904907 0.1376608891325191	-0.131243
C	0.3074943616358965 0.8228201114235034 0.1401116277190297	-0.123102
C	0.2501978285574324 0.7868410580500367 0.1150426131981348	0.066755
C	0.1937872832914849 0.8228443405192891 0.0869791391278909	-0.117270
C	0.1950441566198506 0.8924528305882404 0.0826101727883994	-0.128346
C	0.2179893387456247 0.3902717632142014 0.1663254566123626	0.098716
C	0.2163819285406703 0.4598228406116149 0.1698776008451546	-0.177793
C	0.2471145924642002 0.4977271112247124 0.1050833599327063	0.103519
C	0.2776923231158861 0.4622434767651384 0.0379174700553264	-0.179320
C	0.2767035068198425 0.3925974105310885 0.0378146871980505	0.098389
C	0.2478028232214484 0.5714909755866202 0.1082066720460659	0.055490
C	0.1917207553749876 0.6075108967095062 0.1376608891325191	-0.131246
C	0.1925056503640974 0.6771798885764966 0.1401116277190297	-0.123100
C	0.2498021474425656 0.7131589419499633 0.1150426131981348	0.066752
C	0.3062127167085151 0.6771557064807112 0.0869791391278909	-0.117270
C	0.3049558783801487 0.6075472654117604 0.0826101727883994	-0.128347
H	0.3600327850150720 0.1961621906888666 0.7174741278908101	0.103469
H	0.4841290427636409 0.1928645184285145 0.7247502352614958	0.115011
H	0.4885683249225750 0.3011965659072970 0.4845684951410476	0.115330
H	0.3640651789877580 0.2989933024572053 0.4853764718652371	0.103481
H	0.5803548177634639 0.1467223426553730 0.6572997419493163	0.099154
H	0.7043598660801109 0.1485708854612895 0.6629573847361740	0.101248
H	0.7042301620603837 0.3507245919289801 0.5657780016109584	0.101622
H	0.5804875600152997 0.3491567975883214 0.5601470323643696	0.103426
H	0.1399671789849251 0.3038378333111353 0.7174741278908101	0.103466
H	0.0158709632363525 0.3071355055714875 0.7247502352614958	0.115021
H	0.0114316640774277 0.1988034460927040 0.4845684951410476	0.115321
H	0.1359348450122440 0.2010066855427937 0.4853764718652371	0.103473
H	0.9196452292365365 0.3532776573446270 0.6572997419493163	0.099155
H	0.7956401339198891 0.3514291025387095 0.6629573847361740	0.101248
H	0.7957698379396163 0.1492754200710209 0.5657780016109584	0.101627
H	0.9195124399847003 0.1508431904116918 0.5601470323643696	0.103429
H	0.3038378333111353 0.3600327850150720 0.7174741278908101	0.103468
H	0.3071355055714875 0.4841290427636409 0.7247502352614958	0.115021
H	0.1988034460927040 0.4885683249225750 0.4845684951410476	0.115323
H	0.2010066855427937 0.3640651789877580 0.4853764718652371	0.103473
H	0.3532776573446270 0.5803548177634639 0.6572997419493163	0.099154
H	0.3514291025387095 0.7043598660801109 0.6629573847361740	0.101247
H	0.1492754200710209 0.7042301620603837 0.5657780016109584	0.101624
H	0.1508431904116918 0.5804875600152997 0.5601470323643696	0.103430
H	0.1961621906888666 0.1399671789849251 0.7174741278908101	0.103468
H	0.1928645184285145 0.0158709632363525 0.7247502352614958	0.115011
H	0.3011965659072970 0.0114316640774277 0.4845684951410476	0.115328
H	0.2989933024572053 0.1359348450122440 0.4853764718652371	0.103481
H	0.1467223426553730 0.9196452292365365 0.6572997419493163	0.099156
H	0.1485708854612895 0.7956401339198891 0.6629573847361740	0.101249
H	0.3507245919289801 0.7957698379396163 0.5657780016109584	0.101624
H	0.3491567975883214 0.9195124399847003 0.5601470323643696	0.103427
H	0.6399671669849241 0.6961621906888666 0.7825258721091899	0.103467
H	0.5158709092363551 0.6928644944285125 0.7752497647385042	0.115019
H	0.5114316750774250 0.8011965659072970 0.0154314898589476	0.115311
H	0.6359348210122420 0.7989932784572034 0.0146235561347652	0.103481
H	0.4196451822365361 0.6467223426553730 0.8427002580506837	0.099157
H	0.2956401579198911 0.6485708974612905 0.8370426152638260	0.101249
H	0.2957698379396163 0.8507245919289801 0.9342219983890416	0.101624
H	0.4195124879846972 0.8491568215883163 0.9398529676356304	0.103429
H	0.8600328810150728 0.8038378573111373 0.7825258721091899	0.103468
H	0.9841289947636440 0.8071355055714875 0.7752497647385042	0.115020
H	0.9885682769225781 0.6988034340927030 0.0154314898589476	0.115313
H	0.8640650829877572 0.7010067215427966 0.0146235561347652	0.103483
H	0.0803548177634639 0.8532776573446270 0.8427002580506837	0.099155
H	0.2043598420801089 0.8514291025387095 0.8370426152638260	0.101247
H	0.2042301620603837 0.6492754560710168 0.9342219983890416	0.101625
H	0.0804875540152992 0.6508431784116837 0.9398529676356304	0.103428
H	0.6961621906888666 0.8600328810150728 0.7825258721091899	0.103468
H	0.6928644944285125 0.9841289947636440 0.7752497647385042	0.115020
H	0.8011965659072970 0.9885682769225781 0.0154314898589476	0.115314
H	0.7989932784572034 0.8640650829877572 0.0146235561347652	0.103483
H	0.6467223426553730 0.0803548177634639 0.8427002580506837	0.099158
H	0.6485708974612905 0.2043598420801089 0.8370426152638260	0.101248
H	0.8507245919289801 0.2042301620603837 0.9342219983890416	0.101623
H	0.8491568215883163 0.0804875540152992 0.9398529676356304	0.103429
H	0.8038378573111373 0.6399671669849241 0.7825258721091899	0.103468
H	0.8071355055714875 0.5158709092363551 0.7752497647385042	0.115020
H	0.6988034340927030 0.5114316750774250 0.0154314898589476	0.115310
H	0.7010067215427966 0.6359348210122420 0.0146235561347652	0.103481
H	0.8532776573446270 0.4196451822365361 0.8427002580506837	0.099155
H	0.8514291025387095 0.2956401579198911 0.8370426152638260	0.101248
H	0.6492754560710168 0.2957698379396163 0.9342219983890416	0.101626
H	0.6508431784116837 0.4195124879846972 0.9398529676356304	0.103430
H	0.6399671669849241 0.8038378573111373 0.2825259041091854	0.103467
H	0.5158709092363551 0.8071355055714875 0.2752497957385032	0.115017
H	0.5114316750774250 0.6988034340927030 0.5154314738589534	0.115313
H	0.6359348210122420 0.7010067215427966 0.5146235281347629	0.103480
H	0.4196451822365361 0.8532776573446270 0.3427002270506847	0.099156
H	0.2956401579198911 0.8514291025387095 0.3370425832638233	0.101248
H	0.2957698379396163 0.6492754560710168 0.4342220293890406	0.101626
H	0.4195124879846972 0.6508431784116837 0.4398530296356284	0.103429
H	0.8600328810150728 0.6961621906888666 0.2825259041091854	0.103469
H	0.9841289947636440 0.6928644944285125 0.2752497957385032	0.115014
H	0.9885682769225781 0.8011965659072970 0.5154314738589534	0.115316
H	0.8640650829877572 0.7989932784572034 0.5146235281347629	0.103480
H	0.0803548177634639 0.6467223426553730 0.3427002270506847	0.099155
H	0.2043598420801089 0.6485708974612905 0.3370425832638233	0.101248
H	0.2042301620603837 0.8507245919289801 0.4342220293890406	0.101622
H	0.0804875540152992 0.8491568215883163 0.4398530296356284	0.103427
H	0.6961621906888666 0.6399671669849241 0.2825259041091854	0.103467
H	0.6928644944285125 0.5158709092363551 0.2752497957385032	0.115014
H	0.8011965659072970 0.5114316750774250 0.5154314738589534	0.115314
H	0.7989932784572034 0.6359348210122420 0.5146235281347629	0.103480
H	0.6467223426553730 0.4196451822365361 0.3427002270506847	0.099157
H	0.6485708974612905 0.2956401579198911 0.3370425832638233	0.101249
H	0.8507245919289801 0.2957698379396163 0.4342220293890406	0.101624
H	0.8491568215883163 0.4195124879846972 0.4398530296356284	0.103427
H	0.8038378573111373 0.8600328810150728 0.2825259041091854	0.103468
H	0.8071355055714875 0.9841289947636440 0.2752497957385032	0.115017
H	0.6988034340927030 0.9885682769225781 0.5154314738589534	0.115315
H	0.7010067215427966 0.8640650829877572 0.5146235281347629	0.103480
H	0.8532776573446270 0.0803548177634639 0.3427002270506847	0.099155
H	0.8514291025387095 0.2043598420801089 0.3370425832638233	0.101247
H	0.6492754560710168 0.2042301620603837 0.4342220293890406	0.101624
H	0.6508431784116837 0.0804875540152992 0.4398530296356284	0.103430
H	0.3600327850150720 0.3038378333111353 0.2174741278908101	0.103468
H	0.4841290427636409 0.3071355055714875 0.2247502502615006	0.115017
H	0.4885683249225750 0.1988034460927040 0.9845685571410527	0.115309
H	0.3640651789877580 0.2010066855427937 0.9853764408652381	0.103474
H	0.5803548177634639 0.3532776573446270 0.1572997569493140	0.099156
H	0.7043598660801109 0.3514291025387095 0.1629574317361744	0.101247
H	0.7042301620603837 0.1492754200710209 0.0657779626109587	0.101624
H	0.5804875600152997 0.1508431904116918 0.0601469933643699	0.103427
H	0.1399671789849251 0.1961621906888666 0.2174741278908101	0.103468
H	0.0158709632363525 0.1928645184285145 0.2247502502615006	0.115009
H	0.0114316640774277 0.3011965659072970 0.9845685571410527	0.115314
H	0.1359348450122440 0.2989933024572053 0.9853764408652381	0.103479
H	0.9196452292365365 0.1467223426553730 0.1572997569493140	0.099157
H	0.7956401339198891 0.1485708854612895 0.1629574317361744	0.101249
H	0.7957698379396163 0.3507245919289801 0.0657779626109587	0.101624
H	0.9195124399847003 0.3491567975883214 0.0601469933643699	0.103429
H	0.3038378333111353 0.1399671789849251 0.2174741278908101	0.103468
H	0.3071355055714875 0.0158709632363525 0.2247502502615006	0.115016
H	0.1988034460927040 0.0114316640774277 0.9845685571410527	0.115306
H	0.2010066855427937 0.1359348450122440 0.9853764408652381	0.103472
H	0.3532776573446270 0.9196452292365365 0.1572997569493140	0.099156
H	0.3514291025387095 0.7956401339198891 0.1629574317361744	0.101248
H	0.1492754200710209 0.7957698379396163 0.0657779626109587	0.101625
H	0.1508431904116918 0.9195124399847003 0.0601469933643699	0.103430
H	0.1961621906888666 0.3600327850150720 0.2174741278908101	0.103468
H	0.1928645184285145 0.4841290427636409 0.2247502502615006	0.115009
H	0.3011965659072970 0.4885683249225750 0.9845685571410527	0.115316
H	0.2989933024572053 0.3640651789877580 0.9853764408652381	0.103481
H	0.1467223426553730 0.5803548177634639 0.1572997569493140	0.099159
H	0.1485708854612895 0.7043598660801109 0.1629574317361744	0.101248
H	0.3507245919289801 0.7042301620603837 0.0657779626109587	0.101623
H	0.3491567975883214 0.5804875600152997 0.0601469933643699	0.103428
Fe	0.2500000000000000 0.2500000000000000 0.6006086566091895	0.532681
Fe	0.7500000000000000 0.7500000000000000 0.8993913433908105	0.532682
Fe	0.7500000000000000 0.7500000000000000 0.3993912813908125	0.532682
Fe	0.2500000000000000 0.2500000000000000 0.1006086796091878	0.532681
Ti	0.2500000000000000 0.2500000000000000 0.3508655526064217	2.328216
Ti	0.7500000000000000 0.7500000000000000 0.1491344623935760	2.328216
Ti	0.7500000000000000 0.7500000000000000 0.6491345403935753	2.328215
Ti	0.2500000000000000 0.2500000000000000 0.8508654596064247	2.328215
	  	
