#======================================================================

# CRYSTAL DATA

#----------------------------------------------------------------------

data_VESTA_phase_1


_pd_phase_name                         TIFSIX_6_Cu_i
_cell_length_a                         17.84233
_cell_length_b                         17.84233
_cell_length_c                         15.23425
_cell_angle_alpha                      90
_cell_angle_beta                       90
_cell_angle_gamma                      90
_symmetry_space_group_name_H-M         P 1
_symmetry_Int_Tables_number            1

loop_
_symmetry_equiv_pos_as_xyz
   x, y, z

loop_
   _atom_site_label
   _atom_site_fract_x
   _atom_site_fract_y
   _atom_site_fract_z
   _atom_site_charge
N	0.2439831788938398 0.1287782750725082 0.1281721611812268	-0.242481
N	0.2560168211061603 0.3712217389274929 0.1281721611812268	-0.242492
N	0.3712217389274929 0.2439831788938398 0.1281721611812268	-0.242492
N	0.1287782750725082 0.2560168211061603 0.1281721611812268	-0.242481
N	0.7560167941061614 0.6287782880725127 0.3718278238187756	-0.242493
N	0.7439832058938386 0.8712217119274873 0.3718278238187756	-0.242492
N	0.6287782880725127 0.7439832058938386 0.3718278238187756	-0.242492
N	0.8712217119274873 0.7560167941061614 0.3718278238187756	-0.242493
N	0.7560167941061614 0.8712217119274873 0.8718278238187755	-0.242493
N	0.7439832058938386 0.6287782880725127 0.8718278238187755	-0.242494
N	0.6287782880725127 0.7560167941061614 0.8718278238187755	-0.242493
N	0.8712217119274873 0.7439832058938386 0.8718278238187755	-0.242493
N	0.2439831788938398 0.3712217389274929 0.6281721761812245	-0.242492
N	0.2560168211061603 0.1287782750725082 0.6281721761812245	-0.242483
N	0.3712217389274929 0.2560168211061603 0.6281721761812245	-0.242494
N	0.1287782750725082 0.2439831788938398 0.6281721761812245	-0.242481
C	0.2000375689344826 0.0930063381455058 0.1862432735075014	0.107326
C	0.1918304122061417 0.0155890311801468 0.1858433632657127	-0.179913
C	0.2325451718749182 0.9727034829288560 0.1250811563933821	0.110577
C	0.2792213756177991 0.0108984990983384 0.0659451241610887	-0.177742
C	0.2824470303864415 0.0886527903859074 0.0687194987038693	0.107974
C	0.2267921179409616 0.8903657038640483 0.1238206278042543	0.059469
C	0.2908359503948288 0.8465040155812876 0.1209325039220680	-0.172952
C	0.2862578698531588 0.7674204854540455 0.1220297350942869	0.086294
C	0.1488524847447237 0.7785659744426390 0.1245928222493494	-0.123912
C	0.1551799642287365 0.8553395976596631 0.1267466816990051	-0.135604
C	0.2999623910655211 0.4069936748544917 0.1862432735075014	0.107328
C	0.3081695477938551 0.4844109498198553 0.1858433632657127	-0.179908
C	0.2674548281250818 0.5272965170711440 0.1250811563933821	0.110570
C	0.2207786373821983 0.4891014979016579 0.0659451241610887	-0.177785
C	0.2175529836135596 0.4113472166140966 0.0687194987038693	0.108040
C	0.2732078820590383 0.6096342961359517 0.1238206278042543	0.059467
C	0.2091640906051710 0.6534959844187124 0.1209325039220680	-0.172951
C	0.2137421031468425 0.7325795145459545 0.1220297350942869	0.086299
C	0.3511475012552751 0.7214340255573610 0.1245928222493494	-0.123908
C	0.3448200357712636 0.6446604023403369 0.1267466816990051	-0.135610
C	0.4069936748544917 0.2000375689344826 0.1862432735075014	0.107328
C	0.4844109498198553 0.1918304122061417 0.1858433632657127	-0.179909
C	0.5272965170711440 0.2325451718749182 0.1250811563933821	0.110569
C	0.4891014979016579 0.2792213756177991 0.0659451241610887	-0.177784
C	0.4113472166140966 0.2824470303864415 0.0687194987038693	0.108041
C	0.6096342961359517 0.2267921179409616 0.1238206278042543	0.059469
C	0.6534959844187124 0.2908359503948288 0.1209325039220680	-0.172951
C	0.7325795145459545 0.2862578698531588 0.1220297350942869	0.086294
C	0.7214340255573610 0.1488524847447237 0.1245928222493494	-0.123912
C	0.6446604023403369 0.1551799642287365 0.1267466816990051	-0.135603
C	0.0930063381455058 0.2999623910655211 0.1862432735075014	0.107324
C	0.0155890311801468 0.3081695477938551 0.1858433632657127	-0.179912
C	0.9727034829288560 0.2674548281250818 0.1250811563933821	0.110578
C	0.0108984990983384 0.2207786373821983 0.0659451241610887	-0.177743
C	0.0886527903859074 0.2175529836135596 0.0687194987038693	0.107973
C	0.8903657038640483 0.2732078820590383 0.1238206278042543	0.059468
C	0.8465040155812876 0.2091640906051710 0.1209325039220680	-0.172952
C	0.7674204854540455 0.2137421031468425 0.1220297350942869	0.086299
C	0.7785659744426390 0.3511475012552751 0.1245928222493494	-0.123908
C	0.8553395976596631 0.3448200357712636 0.1267466816990051	-0.135611
C	0.7999624440655150 0.5930063251455081 0.3137567424925000	0.107330
C	0.8081696007938559 0.5155889961801405 0.3141566057342882	-0.179908
C	0.7674548281250819 0.4727034829288558 0.3749188116066153	0.110569
C	0.7207785973822021 0.5108985560983396 0.4340548798389116	-0.177785
C	0.7175529436135564 0.5886528373859076 0.4312805412961268	0.108041
C	0.7732079620590379 0.3903657568640496 0.3761793641957450	0.059468
C	0.7091640766051700 0.3465039625812865 0.3790674880779313	-0.172951
C	0.7137421301468410 0.2674204054540459 0.3779702649057131	0.086294
C	0.8511475282552811 0.2785659474426404 0.3754071617506494	-0.123912
C	0.8448199827712626 0.3553395716596610 0.3732533503009975	-0.135604
C	0.7000375559344850 0.9069936748544919 0.3137567424925000	0.107327
C	0.6918303992061441 0.9844109498198550 0.3141566057342882	-0.179908
C	0.7325451718749181 0.0272965230711446 0.3749188116066153	0.110570
C	0.7792214026177979 0.9891014979016578 0.4340548798389116	-0.177784
C	0.7824470563864436 0.9113472696140977 0.4312805412961268	0.108040
C	0.7267920379409621 0.1096342701359491 0.3761793641957450	0.059468
C	0.7908359233948300 0.1534960244187089 0.3790674880779313	-0.172952
C	0.7862578698531590 0.2325795675459554 0.3779702649057131	0.086299
C	0.6488524717447189 0.2214340395573620 0.3754071617506494	-0.123909
C	0.6551800172287374 0.1446604023403369 0.3732533503009975	-0.135603
C	0.5930063251455081 0.7000375559344850 0.3137567424925000	0.107329
C	0.5155889961801405 0.6918303992061441 0.3141566057342882	-0.179909
C	0.4727034829288558 0.7325451718749181 0.3749188116066153	0.110570
C	0.5108985560983396 0.7792214026177979 0.4340548798389116	-0.177784
C	0.5886528373859076 0.7824470563864436 0.4312805412961268	0.108040
C	0.3903657568640496 0.7267920379409621 0.3761793641957450	0.059467
C	0.3465039625812865 0.7908359233948300 0.3790674880779313	-0.172951
C	0.2674204054540459 0.7862578698531590 0.3779702649057131	0.086293
C	0.2785659474426404 0.6488524717447189 0.3754071617506494	-0.123912
C	0.3553395716596610 0.6551800172287374 0.3732533503009975	-0.135604
C	0.9069936748544919 0.7999624440655150 0.3137567424925000	0.107327
C	0.9844109498198550 0.8081696007938559 0.3141566057342882	-0.179907
C	0.0272965230711446 0.7674548281250819 0.3749188116066153	0.110569
C	0.9891014979016578 0.7207785973822021 0.4340548798389116	-0.177785
C	0.9113472696140977 0.7175529436135564 0.4312805412961268	0.108041
C	0.1096342701359491 0.7732079620590379 0.3761793641957450	0.059469
C	0.1534960244187089 0.7091640766051700 0.3790674880779313	-0.172951
C	0.2325795675459554 0.7137421301468410 0.3779702649057131	0.086299
C	0.2214340395573620 0.8511475282552811 0.3754071617506494	-0.123909
C	0.1446604023403369 0.8448199827712626 0.3732533503009975	-0.135603
C	0.7999624440655150 0.9069936748544919 0.8137567104924972	0.107328
C	0.8081696007938559 0.9844109498198550 0.8141566687342902	-0.179908
C	0.7674548281250819 0.0272965230711446 0.8749188756066135	0.110571
C	0.7207785973822021 0.9891014979016578 0.9340548488389127	-0.177784
C	0.7175529436135564 0.9113472696140977 0.9312805092961246	0.108040
C	0.7732079620590379 0.1096342701359491 0.8761793641957450	0.059465
C	0.7091640766051700 0.1534960244187089 0.8790675200779340	-0.172946
C	0.7137421301468410 0.2325795675459554 0.8779702969057086	0.086289
C	0.8511475282552811 0.2214340395573620 0.8754072247506509	-0.123928
C	0.8448199827712626 0.1446604023403369 0.8732533823009931	-0.135602
C	0.7000375559344850 0.5930063251455081 0.8137567104924972	0.107329
C	0.6918303992061441 0.5155889961801405 0.8141566687342902	-0.179909
C	0.7325451718749181 0.4727034829288558 0.8749188756066135	0.110570
C	0.7792214026177979 0.5108985560983396 0.9340548488389127	-0.177783
C	0.7824470563864436 0.5886528373859076 0.9312805092961246	0.108041
C	0.7267920379409621 0.3903657568640496 0.8761793641957450	0.059465
C	0.7908359233948300 0.3465039625812865 0.8790675200779340	-0.172948
C	0.7862578698531590 0.2674204054540459 0.8779702969057086	0.086294
C	0.6488524717447189 0.2785659474426404 0.8754072247506509	-0.123923
C	0.6551800172287374 0.3553395716596610 0.8732533823009931	-0.135603
C	0.5930063251455081 0.7999624440655150 0.8137567104924972	0.107328
C	0.5155889961801405 0.8081696007938559 0.8141566687342902	-0.179908
C	0.4727034829288558 0.7674548281250819 0.8749188756066135	0.110571
C	0.5108985560983396 0.7207785973822021 0.9340548488389127	-0.177785
C	0.5886528373859076 0.7175529436135564 0.9312805092961246	0.108041
C	0.3903657568640496 0.7732079620590379 0.8761793641957450	0.059465
C	0.3465039625812865 0.7091640766051700 0.8790675200779340	-0.172947
C	0.2674204054540459 0.7137421301468410 0.8779702969057086	0.086288
C	0.2785659474426404 0.8511475282552811 0.8754072247506509	-0.123928
C	0.3553395716596610 0.8448199827712626 0.8732533823009931	-0.135602
C	0.9069936748544919 0.7000375559344850 0.8137567104924972	0.107328
C	0.9844109498198550 0.6918303992061441 0.8141566687342902	-0.179908
C	0.0272965230711446 0.7325451718749181 0.8749188756066135	0.110570
C	0.9891014979016578 0.7792214026177979 0.9340548488389127	-0.177783
C	0.9113472696140977 0.7824470563864436 0.9312805092961246	0.108040
C	0.1096342701359491 0.7267920379409621 0.8761793641957450	0.059465
C	0.1534960244187089 0.7908359233948300 0.8790675200779340	-0.172946
C	0.2325795675459554 0.7862578698531590 0.8779702969057086	0.086294
C	0.2214340395573620 0.6488524717447189 0.8754072247506509	-0.123923
C	0.1446604023403369 0.6551800172287374 0.8732533823009931	-0.135602
C	0.2000375689344826 0.4069936748544917 0.6862432895075028	0.107327
C	0.1918304122061417 0.4844109498198553 0.6858433312657098	-0.179909
C	0.2325451718749182 0.5272965170711440 0.6250811243933865	0.110571
C	0.2792213756177991 0.4891014979016579 0.5659451511610873	-0.177783
C	0.2824470303864415 0.4113472166140966 0.5687194907038754	0.108040
C	0.2267921179409616 0.6096342961359517 0.6238206358042550	0.059465
C	0.2908359503948288 0.6534959844187124 0.6209324799220660	-0.172947
C	0.2862578698531588 0.7325795145459545 0.6220297030942914	0.086288
C	0.1488524847447237 0.7214340255573610 0.6245927752493491	-0.123928
C	0.1551799642287365 0.6446604023403369 0.6267466176990069	-0.135601
C	0.2999623910655211 0.0930063381455058 0.6862432895075028	0.107326
C	0.3081695477938551 0.0155890311801468 0.6858433312657098	-0.179912
C	0.2674548281250818 0.9727034829288560 0.6250811243933865	0.110578
C	0.2207786373821983 0.0108984990983384 0.5659451511610873	-0.177742
C	0.2175529836135596 0.0886527903859074 0.5687194907038754	0.107973
C	0.2732078820590383 0.8903657038640483 0.6238206358042550	0.059465
C	0.2091640906051710 0.8465040155812876 0.6209324799220660	-0.172947
C	0.2137421031468425 0.7674204854540455 0.6220297030942914	0.086294
C	0.3511475012552751 0.7785659744426390 0.6245927752493491	-0.123922
C	0.3448200357712636 0.8553395976596631 0.6267466176990069	-0.135610
C	0.4069936748544917 0.2999623910655211 0.6862432895075028	0.107327
C	0.4844109498198553 0.3081695477938551 0.6858433312657098	-0.179907
C	0.5272965170711440 0.2674548281250818 0.6250811243933865	0.110570
C	0.4891014979016579 0.2207786373821983 0.5659451511610873	-0.177784
C	0.4113472166140966 0.2175529836135596 0.5687194907038754	0.108041
C	0.6096342961359517 0.2732078820590383 0.6238206358042550	0.059464
C	0.6534959844187124 0.2091640906051710 0.6209324799220660	-0.172946
C	0.7325795145459545 0.2137421031468425 0.6220297030942914	0.086289
C	0.7214340255573610 0.3511475012552751 0.6245927752493491	-0.123927
C	0.6446604023403369 0.3448200357712636 0.6267466176990069	-0.135607
C	0.0930063381455058 0.2000375689344826 0.6862432895075028	0.107325
C	0.0155890311801468 0.1918304122061417 0.6858433312657098	-0.179913
C	0.9727034829288560 0.2325451718749182 0.6250811243933865	0.110579
C	0.0108984990983384 0.2792213756177991 0.5659451511610873	-0.177741
C	0.0886527903859074 0.2824470303864415 0.5687194907038754	0.107972
C	0.8903657038640483 0.2267921179409616 0.6238206358042550	0.059466
C	0.8465040155812876 0.2908359503948288 0.6209324799220660	-0.172948
C	0.7674204854540455 0.2862578698531588 0.6220297030942914	0.086294
C	0.7785659744426390 0.1488524847447237 0.6245927752493491	-0.123923
C	0.8553395976596631 0.1551799642287365 0.6267466176990069	-0.135603
H	0.1715553385800613 0.1279472096114383 0.2347595174368360	0.103188
H	0.1554786339660874 0.9887537072259148 0.2340740586447462	0.114628
H	0.3113844897364802 0.9802818748498603 0.0167354707055515	0.115138
H	0.3158450287540517 0.1204667598277179 0.0215735107795815	0.102491
H	0.3459786238704842 0.8731307392537025 0.1202581861883545	0.108349
H	0.0937731091790771 0.7519553990179797 0.1253014776359903	0.108207
H	0.1051035080579375 0.8904528266526981 0.1288766506634482	0.099023
H	0.3284446344199402 0.3720528173885676 0.2347595174368360	0.103187
H	0.3445214060339088 0.5112462927740852 0.2340740586447462	0.114627
H	0.1886155232635173 0.5197181251501397 0.0167354707055515	0.115133
H	0.1841549712459483 0.3795332401722820 0.0215735107795815	0.102484
H	0.1540213901295170 0.6268692607462975 0.1202581861883545	0.108349
H	0.4062268838209189 0.7480446009820203 0.1253014776359903	0.108208
H	0.3948965049420672 0.6095471733473019 0.1288766506634482	0.099030
H	0.3720528173885676 0.1715553385800613 0.2347595174368360	0.103187
H	0.5112462927740852 0.1554786339660874 0.2340740586447462	0.114628
H	0.5197181251501397 0.3113844897364802 0.0167354707055515	0.115132
H	0.3795332401722820 0.3158450287540517 0.0215735107795815	0.102484
H	0.6268692607462975 0.3459786238704842 0.1202581861883545	0.108350
H	0.7480446009820203 0.0937731091790771 0.1253014776359903	0.108207
H	0.6095471733473019 0.1051035080579375 0.1288766506634482	0.099023
H	0.1279472096114383 0.3284446344199402 0.2347595174368360	0.103189
H	0.9887537072259148 0.3445214060339088 0.2340740586447462	0.114627
H	0.9802818748498603 0.1886155232635173 0.0167354707055515	0.115139
H	0.1204667598277179 0.1841549712459483 0.0215735107795815	0.102491
H	0.8731307392537025 0.1540213901295170 0.1202581861883545	0.108349
H	0.7519553990179797 0.4062268838209189 0.1253014776359903	0.108208
H	0.8904528266526981 0.3948965049420672 0.1288766506634482	0.099030
H	0.8284446344199398 0.6279472366114368 0.2652404985631653	0.103188
H	0.8445213250339130 0.4887537612259122 0.2659259413552539	0.114627
H	0.6886155102635196 0.4802818748498605 0.4832645312944486	0.115132
H	0.6841550242459490 0.6204667868277169 0.4784264872204184	0.102484
H	0.6540213761295159 0.3731306852537051 0.3797418218116461	0.108348
H	0.9062268308209178 0.2519554260179784 0.3746985143640090	0.108208
H	0.8948964779420681 0.3904528526526931 0.3711233573365524	0.099025
H	0.6715553655800602 0.8720527633885632 0.2652404985631653	0.103188
H	0.6554786749660870 0.0112462547740819 0.2659259413552539	0.114628
H	0.8113844897364804 0.0197181241501359 0.4832645312944486	0.115132
H	0.8158449757540510 0.8795332131722831 0.4784264872204184	0.102483
H	0.8459786238704841 0.1268693277462995 0.3797418218116461	0.108350
H	0.5937731161790814 0.2480445469820159 0.3746985143640090	0.108207
H	0.6051035220579319 0.1095471603473043 0.3711233573365524	0.099022
H	0.6279472366114368 0.6715553655800602 0.2652404985631653	0.103188
H	0.4887537612259123 0.6554786749660870 0.2659259413552539	0.114628
H	0.4802818748498605 0.8113844897364804 0.4832645312944486	0.115132
H	0.6204667868277169 0.8158449757540510 0.4784264872204184	0.102484
H	0.3731306852537051 0.8459786238704841 0.3797418218116461	0.108349
H	0.2519554260179784 0.5937731161790814 0.3746985143640090	0.108207
H	0.3904528526526931 0.6051035220579319 0.3711233573365524	0.099023
H	0.8720527633885632 0.8284446344199398 0.2652404985631653	0.103187
H	0.0112462547740819 0.8445213250339130 0.2659259413552539	0.114627
H	0.0197181241501359 0.6886155102635196 0.4832645312944486	0.115133
H	0.8795332131722831 0.6841550242459490 0.4784264872204184	0.102483
H	0.1268693277462995 0.6540213761295159 0.3797418218116461	0.108349
H	0.2480445469820159 0.9062268308209178 0.3746985143640090	0.108208
H	0.1095471603473043 0.8948964779420681 0.3711233573365524	0.099024
H	0.8284446344199398 0.8720527633885632 0.7652404675631664	0.103187
H	0.8445213250339130 0.0112462547740819 0.7659259563552587	0.114628
H	0.6886155102635196 0.0197181241501359 0.9832645622944479	0.115134
H	0.6841550242459490 0.8795332131722831 0.9784264232204202	0.102484
H	0.6540213761295159 0.1268693277462995 0.8797417898116436	0.108351
H	0.9062268308209178 0.2480445469820159 0.8746984513640071	0.108219
H	0.8948964779420681 0.1095471603473043 0.8711233253365497	0.099023
H	0.6715553655800602 0.6279472366114368 0.7652404675631664	0.103188
H	0.6554786749660870 0.4887537612259123 0.7659259563552587	0.114628
H	0.8113844897364804 0.4802818748498605 0.9832645622944479	0.115133
H	0.8158449757540510 0.6204667868277169 0.9784264232204202	0.102484
H	0.8459786238704841 0.3731306852537051 0.8797417898116436	0.108351
H	0.5937731161790814 0.2519554260179784 0.8746984513640071	0.108217
H	0.6051035220579319 0.3904528526526931 0.8711233253365497	0.099023
H	0.6279472366114368 0.8284446344199398 0.7652404675631664	0.103188
H	0.4887537612259123 0.8445213250339130 0.7659259563552587	0.114628
H	0.4802818748498605 0.6886155102635196 0.9832645622944479	0.115134
H	0.6204667868277169 0.6841550242459490 0.9784264232204202	0.102484
H	0.3731306852537051 0.6540213761295159 0.8797417898116436	0.108351
H	0.2519554260179784 0.9062268308209178 0.8746984513640071	0.108219
H	0.3904528526526931 0.8948964779420681 0.8711233253365497	0.099023
H	0.8720527633885632 0.6715553655800602 0.7652404675631664	0.103187
H	0.0112462547740819 0.6554786749660870 0.7659259563552587	0.114629
H	0.0197181241501359 0.8113844897364804 0.9832645622944479	0.115134
H	0.8795332131722831 0.8158449757540510 0.9784264232204202	0.102484
H	0.1268693277462995 0.8459786238704841 0.8797417898116436	0.108352
H	0.2480445469820159 0.5937731161790814 0.8746984513640071	0.108217
H	0.1095471603473043 0.6051035220579319 0.8711233253365497	0.099023
H	0.1715553385800613 0.3720528173885676 0.7347595324368336	0.103187
H	0.1554786339660874 0.5112462927740852 0.7340740436447413	0.114628
H	0.3113844897364802 0.5197181251501397 0.5167354687055511	0.115134
H	0.3158450287540517 0.3795332401722820 0.5215735127795816	0.102484
H	0.3459786238704842 0.6268692607462975 0.6202582101883564	0.108352
H	0.0937731091790771 0.7480446009820203 0.6253015486359929	0.108218
H	0.1051035080579375 0.6095471733473019 0.6288766746634503	0.099022
H	0.3284446344199402 0.1279472096114383 0.7347595324368336	0.103188
H	0.3445214060339088 0.9887537072259148 0.7340740436447413	0.114628
H	0.1886155232635173 0.9802818748498603 0.5167354687055511	0.115140
H	0.1841549712459483 0.1204667598277179 0.5215735127795816	0.102491
H	0.1540213901295170 0.8731307392537025 0.6202582101883564	0.108351
H	0.4062268838209189 0.7519553990179797 0.6253015486359929	0.108218
H	0.3948965049420672 0.8904528266526981 0.6288766746634503	0.099031
H	0.3720528173885676 0.3284446344199402 0.7347595324368336	0.103187
H	0.5112462927740852 0.3445214060339088 0.7340740436447413	0.114627
H	0.5197181251501397 0.1886155232635173 0.5167354687055511	0.115135
H	0.3795332401722820 0.1841549712459483 0.5215735127795816	0.102483
H	0.6268692607462975 0.1540213901295170 0.6202582101883564	0.108351
H	0.7480446009820203 0.4062268838209189 0.6253015486359929	0.108219
H	0.6095471733473019 0.3948965049420672 0.6288766746634503	0.099030
H	0.1279472096114383 0.1715553385800613 0.7347595324368336	0.103188
H	0.9887537072259148 0.1554786339660874 0.7340740436447413	0.114629
H	0.9802818748498603 0.3113844897364802 0.5167354687055511	0.115139
H	0.1204667598277179 0.3158450287540517 0.5215735127795816	0.102491
H	0.8731307392537025 0.3459786238704842 0.6202582101883564	0.108352
H	0.7519553990179797 0.0937731091790771 0.6253015486359929	0.108217
H	0.8904528266526981 0.1051035080579375 0.6288766746634503	0.099023
F	0.3085111293232214 0.1617923225707120 0.3786173244784258	-0.661021
F	0.1914888976767774 0.3382076774292878 0.3786173244784258	-0.661020
F	0.3382076774292878 0.3085111293232214 0.3786173244784258	-0.661020
F	0.1617923225707120 0.1914888976767774 0.3786173244784258	-0.661021
F	0.6914888706767788 0.6617922685707147 0.1213826755215743	-0.661021
F	0.8085111293232212 0.8382077314292854 0.1213826755215743	-0.661020
F	0.6617922685707146 0.8085111293232212 0.1213826755215743	-0.661020
F	0.8382077314292853 0.6914888706767788 0.1213826755215743	-0.661022
F	0.6914888706767788 0.8382077314292853 0.6213826435215716	-0.661020
F	0.8085111293232212 0.6617922685707147 0.6213826435215716	-0.661021
F	0.6617922685707147 0.6914888706767788 0.6213826435215716	-0.661021
F	0.8382077314292854 0.8085111293232212 0.6213826435215716	-0.661020
F	0.3085111293232214 0.3382076774292878 0.8786173564784284	-0.661020
F	0.1914888976767774 0.1617923225707120 0.8786173564784284	-0.661021
F	0.3382076774292878 0.1914888976767774 0.8786173564784284	-0.661021
F	0.1617923225707120 0.3085111293232214 0.8786173564784284	-0.661020
F	0.2500000000000000 0.2500000000000000 0.2521387567027412	-0.654430
F	0.2500000000000000 0.2500000000000000 0.5045845928879835	-0.654388
F	0.7500000000000000 0.7500000000000000 0.2478612592972601	-0.654430
F	0.7500000000000000 0.7500000000000000 -0.0045845858879794	-0.654389
F	0.7500000000000000 0.7500000000000000 0.7478612112972561	-0.654431
F	0.7500000000000000 0.7500000000000000 0.4954154391120191	-0.654389
F	0.2500000000000000 0.2500000000000000 0.7521387887027439	-0.654431
F	0.2500000000000000 0.2500000000000000 0.0045845608879809	-0.654388
Cu	0.2500000000000000 0.2500000000000000 0.1283046658166489	0.835045
Cu	0.7500000000000000 0.7500000000000000 0.3716953501833524	0.835046
Cu	0.7500000000000000 0.7500000000000000 0.8716953191833531	0.835048
Cu	0.2500000000000000 0.2500000000000000 0.6283046808166469	0.835047
Ti	0.2500000000000000 0.2500000000000000 0.3783361643735108	2.357601
Ti	0.7500000000000000 0.7500000000000000 0.1216638436264900	2.357601
Ti	0.7500000000000000 0.7500000000000000 0.6216638046264904	2.357602
Ti	0.2500000000000000 0.2500000000000000 0.8783361953735096	2.357601
	  	
