#======================================================================

# CRYSTAL DATA

#----------------------------------------------------------------------

data_VESTA_phase_1


_pd_phase_name                         TIFSIX_5_Cd_i
_cell_length_a                         20.37296
_cell_length_b                         20.37296
_cell_length_c                         16.46835
_cell_angle_alpha                      90
_cell_angle_beta                       90
_cell_angle_gamma                      90
_symmetry_space_group_name_H-M         P 1
_symmetry_Int_Tables_number            1

loop_
_symmetry_equiv_pos_as_xyz
   x, y, z

loop_
   _atom_site_label
   _atom_site_fract_x
   _atom_site_fract_y
   _atom_site_fract_z
   _atom_site_charge
F	0.3175341313675675 0.1859516565136102 0.3499508258407540	-0.668511
F	0.1824658566324313 0.3140483434863897 0.3499508258407540	-0.668516
F	0.3140483434863897 0.3175341313675675 0.3499508258407540	-0.668515
F	0.1859516565136102 0.1824658566324314 0.3499508258407540	-0.668512
F	0.6824658926324273 0.6859516805136125 0.1500491741592460	-0.668513
F	0.8175341073675727 0.8140483194863875 0.1500491741592460	-0.668517
F	0.6859516805136125 0.8175341073675727 0.1500491741592460	-0.668516
F	0.8140483194863875 0.6824658926324273 0.1500491741592460	-0.668514
F	0.6824658926324273 0.8140483194863875 0.6500492061592488	-0.668517
F	0.8175341073675727 0.6859516805136125 0.6500492061592488	-0.668511
F	0.6859516805136125 0.6824658926324273 0.6500492061592488	-0.668512
F	0.8140483194863875 0.8175341073675727 0.6500492061592488	-0.668516
F	0.3175341313675675 0.3140483434863897 0.8499507938407512	-0.668515
F	0.1824658566324314 0.1859516565136102 0.8499507938407512	-0.668512
F	0.3140483434863897 0.1824658566324313 0.8499507938407512	-0.668512
F	0.1859516565136102 0.3175341313675675 0.8499507938407512	-0.668515
F	0.2500000000000000 0.2500000000000000 0.4664156633650084	-0.628271
F	0.2500000000000000 0.2500000000000000 0.2335483877523291	-0.629236
F	0.7500000000000000 0.7500000000000000 0.0335843636349902	-0.628270
F	0.7500000000000000 0.7500000000000000 0.2664515962476693	-0.629239
F	0.7500000000000000 0.7500000000000000 0.5335843676349906	-0.628269
F	0.7500000000000000 0.7500000000000000 0.7664515962476696	-0.629241
F	0.2500000000000000 0.2500000000000000 0.9664156323650094	-0.628270
F	0.2500000000000000 0.2500000000000000 0.7335484037523304	-0.629237
N	0.3653599699620283 0.2468339861583025 0.6011951396727983	-0.245679
N	0.1346400300379717 0.2531660138416975 0.6011951396727983	-0.245662
N	0.2531660138416975 0.3653599699620283 0.6011951396727983	-0.245680
N	0.2468339861583025 0.1346400300379717 0.6011951396727983	-0.245662
N	0.6346400540379734 0.7468339621583003 0.8988048603272017	-0.245662
N	0.8653599459620266 0.7531660378416997 0.8988048603272017	-0.245659
N	0.7468339621583003 0.8653599459620266 0.8988048603272017	-0.245660
N	0.7531660378416997 0.6346400540379734 0.8988048603272017	-0.245661
N	0.6346400540379734 0.7531660378416997 0.3988048913272007	-0.245659
N	0.8653599459620266 0.7468339621583003 0.3988048913272007	-0.245664
N	0.7468339621583003 0.6346400540379734 0.3988048913272007	-0.245659
N	0.7531660378416997 0.8653599459620266 0.3988048913272007	-0.245664
N	0.3653599699620283 0.2531660138416975 0.1011951396727984	-0.245677
N	0.1346400300379717 0.2468339861583025 0.1011951396727984	-0.245659
N	0.2531660138416975 0.1346400300379717 0.1011951396727984	-0.245659
N	0.2468339861583025 0.3653599699620283 0.1011951396727984	-0.245677
C	0.3976154375158302 0.2199601842731466 0.6643464286256355	0.102476
C	0.4657604803049474 0.2185941210197054 0.6682226361973705	-0.176930
C	0.5028757337506958 0.2473242858156626 0.6058054302178174	0.106427
C	0.4683348299046759 0.2755924585776922 0.5408361187681729	-0.180833
C	0.4001437302603295 0.2737802008205519 0.5401917727071849	0.103270
C	0.5752428060977518 0.2481242783985547 0.6085238000271530	0.054651
C	0.6105044336367704 0.1934198772599809 0.6369176574831378	-0.129219
C	0.6787327776484667 0.1940952617991812 0.6386556490329244	-0.125616
C	0.7138298664012954 0.2498259871109578 0.6133001908806068	0.068092
C	0.6785786915721022 0.3048295788841860 0.5859386979678125	-0.120209
C	0.6103775322630001 0.3037777206191659 0.5829535621825193	-0.127299
C	0.1023845384841749 0.2800398397268555 0.6643464286256355	0.102397
C	0.0342394596950545 0.2814059029802965 0.6682226361973705	-0.176922
C	-0.0028757547506935 0.2526757141843374 0.6058054302178174	0.106470
C	0.0316651970953230 0.2244075414223079 0.5408361187681729	-0.180840
C	0.0998562337396674 0.2262198231794500 0.5401917727071849	0.103265
C	0.9247571459022513 0.2518756976014432 0.6085238000271530	0.054695
C	0.8894956143632264 0.3065801577400183 0.6369176574831378	-0.129228
C	0.8212672223515333 0.3059047502008126 0.6386556490329244	-0.125615
C	0.7861701335987046 0.2501739888890403 0.6133001908806068	0.068094
C	0.8214213554278982 0.1951704211158138 0.5859386979678125	-0.120246
C	0.8896225637370008 0.1962223143808333 0.5829535621825193	-0.127299
C	0.2800398397268555 0.3976154375158302 0.6643464286256355	0.102478
C	0.2814059029802965 0.4657604803049474 0.6682226361973705	-0.176932
C	0.2526757141843374 0.5028757337506958 0.6058054302178174	0.106426
C	0.2244075414223079 0.4683348299046759 0.5408361187681729	-0.180830
C	0.2262198231794500 0.4001437302603295 0.5401917727071849	0.103271
C	0.2518756976014432 0.5752428060977518 0.6085238000271530	0.054650
C	0.3065801577400183 0.6105044336367704 0.6369176574831378	-0.129219
C	0.3059047502008126 0.6787327776484667 0.6386556490329244	-0.125617
C	0.2501739888890403 0.7138298664012954 0.6133001908806068	0.068090
C	0.1951704211158138 0.6785786915721022 0.5859386979678125	-0.120208
C	0.1962223143808333 0.6103775322630001 0.5829535621825193	-0.127301
C	0.2199601842731466 0.1023845384841749 0.6643464286256355	0.102397
C	0.2185941210197054 0.0342394596950545 0.6682226361973705	-0.176920
C	0.2473242858156626 -0.0028757547506935 0.6058054302178174	0.106472
C	0.2755924585776922 0.0316651970953230 0.5408361187681729	-0.180842
C	0.2737802008205519 0.0998562337396674 0.5401917727071849	0.103265
C	0.2481242783985547 0.9247571459022513 0.6085238000271530	0.054696
C	0.1934198772599809 0.8894956143632264 0.6369176574831378	-0.129227
C	0.1940952617991812 0.8212672223515333 0.6386556490329244	-0.125615
C	0.2498259871109578 0.7861701335987046 0.6133001908806068	0.068096
C	0.3048295788841860 0.8214213554278982 0.5859386979678125	-0.120247
C	0.3037777206191659 0.8896225637370008 0.5829535621825193	-0.127298
C	0.6023845384841749 0.7199602322731431 0.8356535713743645	0.102395
C	0.5342394716950557 0.7185941450197001 0.8317773638026295	-0.176918
C	0.4971242662493046 0.7473243338156594 0.8941945697821826	0.106478
C	0.5316652660953255 0.7755924105776876 0.9591638812318271	-0.180844
C	0.5998562937396653 0.7737802248205468 0.9598082272928151	0.103266
C	0.4247571939022481 0.7481243503985537 0.8914761999728470	0.054644
C	0.3894955663632295 0.6934198422599819 0.8630823425168622	-0.129214
C	0.3212671503515273 0.6940952257991853 0.8613443509670756	-0.125616
C	0.2861701815987089 0.7498260111109597 0.8866998091193932	0.068090
C	0.3214212604278935 0.8048295788841866 0.9140613020321875	-0.120207
C	0.3896224917369948 0.8037776496191638 0.9170464378174807	-0.127297
C	0.8976154615158251 0.7800397677268569 0.8356535713743645	0.102394
C	0.9657605283049443 0.7814058549802999 0.8317773638026295	-0.176916
C	0.0028757817506924 0.7526756661843406 0.8941945697821826	0.106478
C	0.9683347819046785 0.7244075894223124 0.9591638812318271	-0.180841
C	0.9001437062603347 0.7262197751794532 0.9598082272928151	0.103268
C	0.0752428420977476 0.7518756496014463 0.8914761999728470	0.054643
C	0.1105044216367694 0.8065801577400181 0.8630823425168622	-0.129215
C	0.1787328256484704 0.8059047262008179 0.8613443509670756	-0.125617
C	0.2138298184012913 0.7501739888890403 0.8866998091193932	0.068092
C	0.1785787155721046 0.6951704211158134 0.9140613020321875	-0.120207
C	0.1103775082630055 0.6962223033808359 0.9170464378174807	-0.127301
C	0.7199602322731431 0.8976154615158251 0.8356535713743645	0.102396
C	0.7185941450197001 0.9657605283049443 0.8317773638026295	-0.176913
C	0.7473243338156594 0.0028757817506924 0.8941945697821826	0.106477
C	0.7755924105776876 0.9683347819046785 0.9591638812318271	-0.180844
C	0.7737802248205468 0.9001437062603347 0.9598082272928151	0.103268
C	0.7481243503985537 0.0752428420977476 0.8914761999728470	0.054643
C	0.6934198422599819 0.1105044216367694 0.8630823425168622	-0.129216
C	0.6940952257991853 0.1787328256484704 0.8613443509670756	-0.125616
C	0.7498260111109597 0.2138298184012913 0.8866998091193932	0.068090
C	0.8048295788841866 0.1785787155721046 0.9140613020321875	-0.120207
C	0.8037776496191638 0.1103775082630055 0.9170464378174807	-0.127300
C	0.7800397677268569 0.6023845384841749 0.8356535713743645	0.102395
C	0.7814058549802999 0.5342394716950557 0.8317773638026295	-0.176922
C	0.7526756661843406 0.4971242662493046 0.8941945697821826	0.106479
C	0.7244075894223124 0.5316652660953255 0.9591638812318271	-0.180841
C	0.7262197751794532 0.5998562937396653 0.9598082272928151	0.103267
C	0.7518756496014463 0.4247571939022481 0.8914761999728470	0.054644
C	0.8065801577400181 0.3894955663632295 0.8630823425168622	-0.129213
C	0.8059047262008179 0.3212671503515273 0.8613443509670756	-0.125618
C	0.7501739888890403 0.2861701815987089 0.8866998091193932	0.068092
C	0.6951704211158134 0.3214212604278935 0.9140613020321875	-0.120207
C	0.6962223033808359 0.3896224917369948 0.9170464378174807	-0.127298
C	0.6023845384841749 0.7800397677268569 0.3356536023743632	0.102406
C	0.5342394716950557 0.7814058549802999 0.3317773638026291	-0.176922
C	0.4971242662493046 0.7526756661843406 0.3941945697821824	0.106478
C	0.5316652660953255 0.7244075894223124 0.4591639122318336	-0.180828
C	0.5998562937396653 0.7262197751794532 0.4598082272928153	0.103264
C	0.4247571939022481 0.7518756496014463 0.3914761999728468	0.054644
C	0.3894955663632295 0.8065801577400181 0.3630823115168630	-0.129213
C	0.3212671503515273 0.8059047262008179 0.3613443819670746	-0.125618
C	0.2861701815987089 0.7501739888890403 0.3866997151193927	0.068091
C	0.3214212604278935 0.6951704211158134 0.4140613330321863	-0.120206
C	0.3896224917369948 0.6962223033808359 0.4170464378174807	-0.127297
C	0.8976154615158251 0.7199602322731431 0.3356536023743632	0.102423
C	0.9657605283049443 0.7185941450197001 0.3317773638026291	-0.176923
C	0.0028757817506924 0.7473243338156594 0.3941945697821824	0.106481
C	0.9683347819046785 0.7755924105776876 0.4591639122318336	-0.180833
C	0.9001437062603347 0.7737802248205468 0.4598082272928153	0.103267
C	0.0752428420977476 0.7481243503985537 0.3914761999728468	0.054644
C	0.1105044216367694 0.6934198422599819 0.3630823115168630	-0.129215
C	0.1787328256484704 0.6940952257991853 0.3613443819670746	-0.125618
C	0.2138298184012913 0.7498260111109597 0.3866997151193927	0.068092
C	0.1785787155721046 0.8048295788841866 0.4140613330321863	-0.120209
C	0.1103775082630055 0.8037776496191638 0.4170464378174807	-0.127298
C	0.7199602322731431 0.6023845384841749 0.3356536023743632	0.102406
C	0.7185941450197001 0.5342394716950557 0.3317773638026291	-0.176920
C	0.7473243338156594 0.4971242662493046 0.3941945697821824	0.106479
C	0.7755924105776876 0.5316652660953255 0.4591639122318336	-0.180830
C	0.7737802248205468 0.5998562937396653 0.4598082272928153	0.103264
C	0.7481243503985537 0.4247571939022481 0.3914761999728468	0.054644
C	0.6934198422599819 0.3894955663632295 0.3630823115168630	-0.129212
C	0.6940952257991853 0.3212671503515273 0.3613443819670746	-0.125617
C	0.7498260111109597 0.2861701815987089 0.3866997151193927	0.068093
C	0.8048295788841866 0.3214212604278935 0.4140613330321863	-0.120207
C	0.8037776496191638 0.3896224917369948 0.4170464378174807	-0.127296
C	0.7800397677268569 0.8976154615158251 0.3356536023743632	0.102425
C	0.7814058549802999 0.9657605283049443 0.3317773638026291	-0.176925
C	0.7526756661843406 0.0028757817506924 0.3941945697821824	0.106479
C	0.7244075894223124 0.9683347819046785 0.4591639122318336	-0.180830
C	0.7262197751794532 0.9001437062603347 0.4598082272928153	0.103268
C	0.7518756496014463 0.0752428420977476 0.3914761999728468	0.054643
C	0.8065801577400181 0.1105044216367694 0.3630823115168630	-0.129216
C	0.8059047262008179 0.1787328256484704 0.3613443819670746	-0.125619
C	0.7501739888890403 0.2138298184012913 0.3866997151193927	0.068090
C	0.6951704211158134 0.1785787155721046 0.4140613330321863	-0.120208
C	0.6962223033808359 0.1103775082630055 0.4170464378174807	-0.127299
C	0.3976154375158302 0.2800398397268555 0.1643464136256383	0.102478
C	0.4657604803049474 0.2814059029802965 0.1682226051973717	-0.176933
C	0.5028757337506958 0.2526757141843374 0.1058054302178174	0.106427
C	0.4683348299046759 0.2244075414223079 0.0408360837681733	-0.180816
C	0.4001437302603295 0.2262198231794500 0.0401917647071840	0.103268
C	0.5752428060977518 0.2518756976014432 0.1085237920271526	0.054650
C	0.6105044336367704 0.3065801577400183 0.1369176574831380	-0.129217
C	0.6787327776484667 0.3059047502008126 0.1386556020329241	-0.125617
C	0.7138298664012954 0.2501739888890403 0.1133002618806089	0.068093
C	0.6785786915721022 0.1951704211158138 0.0859386819678113	-0.120208
C	0.6103775322630001 0.1962223143808333 0.0829535771825169	-0.127300
C	0.1023845384841749 0.2199601842731466 0.1643464136256383	0.102396
C	0.0342394596950545 0.2185941210197054 0.1682226051973717	-0.176918
C	-0.0028757547506935 0.2473242858156626 0.1058054302178174	0.106471
C	0.0316651970953230 0.2755924585776922 0.0408360837681733	-0.180831
C	0.0998562337396674 0.2737802008205519 0.0401917647071840	0.103263
C	0.9247571459022513 0.2481242783985547 0.1085237920271526	0.054696
C	0.8894956143632264 0.1934198772599809 0.1369176574831380	-0.129228
C	0.8212672223515333 0.1940952617991812 0.1386556020329241	-0.125616
C	0.7861701335987046 0.2498259871109578 0.1133002618806089	0.068095
C	0.8214213554278982 0.3048295788841860 0.0859386819678113	-0.120248
C	0.8896225637370008 0.3037777206191659 0.0829535771825169	-0.127296
C	0.2800398397268555 0.1023845384841749 0.1643464136256383	0.102396
C	0.2814059029802965 0.0342394596950545 0.1682226051973717	-0.176921
C	0.2526757141843374 -0.0028757547506935 0.1058054302178174	0.106472
C	0.2244075414223079 0.0316651970953230 0.0408360837681733	-0.180827
C	0.2262198231794500 0.0998562337396674 0.0401917647071840	0.103265
C	0.2518756976014432 0.9247571459022513 0.1085237920271526	0.054696
C	0.3065801577400183 0.8894956143632264 0.1369176574831380	-0.129227
C	0.3059047502008126 0.8212672223515333 0.1386556020329241	-0.125618
C	0.2501739888890403 0.7861701335987046 0.1133002618806089	0.068096
C	0.1951704211158138 0.8214213554278982 0.0859386819678113	-0.120248
C	0.1962223143808333 0.8896225637370008 0.0829535771825169	-0.127297
C	0.2199601842731466 0.3976154375158302 0.1643464136256383	0.102479
C	0.2185941210197054 0.4657604803049474 0.1682226051973717	-0.176929
C	0.2473242858156626 0.5028757337506958 0.1058054302178174	0.106426
C	0.2755924585776922 0.4683348299046759 0.0408360837681733	-0.180819
C	0.2737802008205519 0.4001437302603295 0.0401917647071840	0.103267
C	0.2481242783985547 0.5752428060977518 0.1085237920271526	0.054651
C	0.1934198772599809 0.6105044336367704 0.1369176574831380	-0.129218
C	0.1940952617991812 0.6787327776484667 0.1386556020329241	-0.125616
C	0.2498259871109578 0.7138298664012954 0.1133002618806089	0.068092
C	0.3048295788841860 0.6785786915721022 0.0859386819678113	-0.120207
C	0.3037777206191659 0.6103775322630001 0.0829535771825169	-0.127299
H	0.3677704405158213 0.2001188170161947 0.7137255218245762	0.104553
H	0.4898008407790547 0.1969829962888420 0.7209369602656617	0.115457
H	0.4945932789269684 0.2975188168896989 0.4899794823935583	0.115121
H	0.3722291928829179 0.2936834393051906 0.4891515666020936	0.103204
H	0.5838591271175794 0.1496736472627362 0.6562659374313223	0.100961
H	0.7055002959314498 0.1514109120571362 0.6610109820554491	0.102142
H	0.7051206365719098 0.3480020654912266 0.5646379764523110	0.102746
H	0.5837046440072149 0.3468547974470627 0.5616121063164209	0.104892
H	0.1322295234841759 0.2998812069838073 0.7137255218245762	0.104563
H	0.0101991652209386 0.3030170277111601 0.7209369602656617	0.115467
H	0.0054067100730341 0.2024811951103020 0.4899794823935583	0.115120
H	0.1277708311170838 0.2063165486948082 0.4891515666020936	0.103204
H	0.9161409198824209 0.3503263527372640 0.6562659374313223	0.100962
H	0.7944997040685502 0.3485890759428630 0.6610109820554491	0.102141
H	0.7948793634280902 0.1519979465087747 0.5646379764523110	0.102756
H	0.9162953559927851 0.1531451905529436 0.5616121063164209	0.104892
H	0.2998812069838073 0.3677704405158213 0.7137255218245762	0.104553
H	0.3030170277111601 0.4898008407790547 0.7209369602656617	0.115460
H	0.2024811951103020 0.4945932789269684 0.4899794823935583	0.115120
H	0.2063165486948082 0.3722291928829179 0.4891515666020936	0.103204
H	0.3503263527372640 0.5838591271175794 0.6562659374313223	0.100960
H	0.3485890759428630 0.7055002959314498 0.6610109820554491	0.102141
H	0.1519979465087747 0.7051206365719098 0.5646379764523110	0.102748
H	0.1531451905529436 0.5837046440072149 0.5616121063164209	0.104895
H	0.2001188170161947 0.1322295234841759 0.7137255218245762	0.104563
H	0.1969829962888420 0.0101991652209386 0.7209369602656617	0.115464
H	0.2975188168896989 0.0054067100730341 0.4899794823935583	0.115121
H	0.2936834393051906 0.1277708311170838 0.4891515666020936	0.103204
H	0.1496736472627362 0.9161409198824210 0.6562659374313223	0.100963
H	0.1514109120571362 0.7944997040685502 0.6610109820554491	0.102142
H	0.3480020654912266 0.7948793634280902 0.5646379764523110	0.102754
H	0.3468547974470627 0.9162953559927851 0.5616121063164209	0.104889
H	0.6322295114841745 0.7001188170161948 0.7862744781754238	0.104563
H	0.5101991112209413 0.6969829722888395 0.7790630397343383	0.115464
H	0.5054067210730313 0.7975188168896988 0.0100205026064369	0.115121
H	0.6277708071170822 0.7936834153051888 0.0108484613979088	0.103203
H	0.4161408728824212 0.6496736472627364 0.8437340625686777	0.100962
H	0.2944997280685517 0.6514109240571366 0.8389890179445509	0.102142
H	0.2948793634280905 0.8480020654912266 0.9353620235476890	0.102748
H	0.4162954039927816 0.8468548214470570 0.9383878936835791	0.104894
H	0.8677705365158224 0.7998812309838091 0.7862744781754238	0.104562
H	0.9898007927790579 0.8030170277111605 0.7790630397343383	0.115465
H	0.9945932309269718 0.7024811831103012 0.0100205026064369	0.115122
H	0.8722290968829169 0.7063165846948112 0.0108484613979088	0.103205
H	0.0838591271175791 0.8503263527372636 0.8437340625686777	0.100960
H	0.2055002719314481 0.8485890759428634 0.8389890179445509	0.102140
H	0.2051206365719096 0.6519979825087703 0.9353620235476890	0.102748
H	0.0837046380072149 0.6531451785529430 0.9383878936835791	0.104893
H	0.7001188170161948 0.8677705365158224 0.7862744781754238	0.104561
H	0.6969829722888395 0.9898007927790579 0.7790630397343383	0.115464
H	0.7975188168896988 0.9945932309269718 0.0100205026064369	0.115123
H	0.7936834153051888 0.8722290968829169 0.0108484613979088	0.103206
H	0.6496736472627364 0.0838591271175791 0.8437340625686777	0.100962
H	0.6514109240571366 0.2055002719314481 0.8389890179445509	0.102141
H	0.8480020654912266 0.2051206365719096 0.9353620235476890	0.102747
H	0.8468548214470570 0.0837046380072149 0.9383878936835791	0.104892
H	0.7998812309838091 0.6322295114841745 0.7862744781754238	0.104563
H	0.8030170277111605 0.5101991112209413 0.7790630397343383	0.115465
H	0.7024811831103012 0.5054067210730313 0.0100205026064369	0.115119
H	0.7063165846948112 0.6277708071170822 0.0108484613979088	0.103203
H	0.8503263527372636 0.4161408728824212 0.8437340625686777	0.100959
H	0.8485890759428634 0.2944997280685517 0.8389890179445509	0.102142
H	0.6519979825087703 0.2948793634280905 0.9353620235476890	0.102749
H	0.6531451785529430 0.4162954039927816 0.9383878936835791	0.104894
H	0.6322295114841745 0.7998812309838091 0.2862745101754188	0.104555
H	0.5101991112209413 0.8030170277111605 0.2790630707343369	0.115466
H	0.5054067210730313 0.7024811831103012 0.5100204866064424	0.115106
H	0.6277708071170822 0.7063165846948112 0.5108484333979063	0.103203
H	0.4161408728824212 0.8503263527372636 0.3437340315686787	0.100961
H	0.2944997280685517 0.8485890759428634 0.3389889859445478	0.102141
H	0.2948793634280905 0.6519979825087703 0.4353620545476880	0.102751
H	0.4162954039927816 0.6531451785529430 0.4383879556835775	0.104893
H	0.8677705365158224 0.7001188170161948 0.2862745101754188	0.104547
H	0.9898007927790579 0.6969829722888395 0.2790630707343369	0.115463
H	0.9945932309269718 0.7975188168896988 0.5100204866064424	0.115109
H	0.8722290968829169 0.7936834153051888 0.5108484333979063	0.103204
H	0.0838591271175791 0.6496736472627364 0.3437340315686787	0.100960
H	0.2055002719314481 0.6514109240571366 0.3389889859445478	0.102142
H	0.2051206365719096 0.8480020654912266 0.4353620545476880	0.102745
H	0.0837046380072149 0.8468548214470570 0.4383879556835775	0.104890
H	0.7001188170161948 0.6322295114841745 0.2862745101754188	0.104554
H	0.6969829722888395 0.5101991112209413 0.2790630707343369	0.115462
H	0.7975188168896988 0.5054067210730313 0.5100204866064424	0.115107
H	0.7936834153051888 0.6277708071170822 0.5108484333979063	0.103203
H	0.6496736472627364 0.4161408728824212 0.3437340315686787	0.100961
H	0.6514109240571366 0.2944997280685517 0.3389889859445478	0.102142
H	0.8480020654912266 0.2948793634280905 0.4353620545476880	0.102748
H	0.8468548214470570 0.4162954039927816 0.4383879556835775	0.104890
H	0.7998812309838091 0.8677705365158224 0.2862745101754188	0.104547
H	0.8030170277111605 0.9898007927790579 0.2790630707343369	0.115466
H	0.7024811831103012 0.9945932309269718 0.5100204866064424	0.115108
H	0.7063165846948112 0.8722290968829169 0.5108484333979063	0.103204
H	0.8503263527372636 0.0838591271175791 0.3437340315686787	0.100959
H	0.8485890759428634 0.2055002719314481 0.3389889859445478	0.102141
H	0.6519979825087703 0.2051206365719096 0.4353620545476880	0.102748
H	0.6531451785529430 0.0837046380072149 0.4383879556835775	0.104893
H	0.3677704405158213 0.2998812069838073 0.2137255218245764	0.104552
H	0.4898008407790547 0.3030170277111601 0.2209369752656667	0.115457
H	0.4945932789269684 0.2024811951103020 0.9899795443935637	0.115107
H	0.3722291928829179 0.2063165486948082 0.9891515356020947	0.103204
H	0.5838591271175794 0.3503263527372640 0.1562659524313199	0.100959
H	0.7055002959314498 0.3485890759428630 0.1610110290554497	0.102141
H	0.7051206365719098 0.1519979465087747 0.0646379374523112	0.102748
H	0.5837046440072149 0.1531451905529436 0.0616120673164209	0.104891
H	0.1322295234841759 0.2001188170161947 0.2137255218245764	0.104563
H	0.0101991652209386 0.1969829962888420 0.2209369752656667	0.115463
H	0.0054067100730341 0.2975188168896989 0.9899795443935637	0.115107
H	0.1277708311170838 0.2936834393051906 0.9891515356020947	0.103202
H	0.9161409198824210 0.1496736472627361 0.1562659524313199	0.100962
H	0.7944997040685502 0.1514109120571362 0.1610110290554497	0.102143
H	0.7948793634280902 0.3480020654912266 0.0646379374523112	0.102753
H	0.9162953559927851 0.3468547974470627 0.0616120673164209	0.104890
H	0.2998812069838073 0.1322295234841759 0.2137255218245764	0.104563
H	0.3030170277111601 0.0101991652209386 0.2209369752656667	0.115464
H	0.2024811951103020 0.0054067100730341 0.9899795443935637	0.115106
H	0.2063165486948082 0.1277708311170838 0.9891515356020947	0.103202
H	0.3503263527372640 0.9161409198824210 0.1562659524313199	0.100959
H	0.3485890759428630 0.7944997040685502 0.1610110290554497	0.102142
H	0.1519979465087747 0.7948793634280902 0.0646379374523112	0.102755
H	0.1531451905529436 0.9162953559927851 0.0616120673164209	0.104890
H	0.2001188170161947 0.3677704405158213 0.2137255218245764	0.104552
H	0.1969829962888420 0.4898008407790547 0.2209369752656667	0.115457
H	0.2975188168896989 0.4945932789269684 0.9899795443935637	0.115108
H	0.2936834393051906 0.3722291928829179 0.9891515356020947	0.103205
H	0.1496736472627361 0.5838591271175795 0.1562659524313199	0.100961
H	0.1514109120571362 0.7055002959314498 0.1610110290554497	0.102142
H	0.3480020654912266 0.7051206365719098 0.0646379374523112	0.102746
H	0.3468547974470627 0.5837046440072149 0.0616120673164209	0.104891
Cd	0.2500000000000000 0.2500000000000000 0.5999148034511339	0.859825
Cd	0.7500000000000000 0.7500000000000000 0.9000851965488661	0.859823
Cd	0.7500000000000000 0.7500000000000000 0.4000851345488678	0.859821
Cd	0.2500000000000000 0.2500000000000000 0.0999148264511323	0.859821
Ti	0.2500000000000000 0.2500000000000000 0.3500403807988577	2.358899
Ti	0.7500000000000000 0.7500000000000000 0.1499596342011401	2.358900
Ti	0.7500000000000000 0.7500000000000000 0.6499597122011394	2.358899
Ti	0.2500000000000000 0.2500000000000000 0.8500402877988606	2.358899
	  	
