#======================================================================

# CRYSTAL DATA

#----------------------------------------------------------------------

data_VESTA_phase_1


_pd_phase_name                         TIFSIX_13_Zn_i
_cell_length_a                         15.39281
_cell_length_b                         15.39065
_cell_length_c                         7.94459
_cell_angle_alpha                      90.00540
_cell_angle_beta                       89.90264
_cell_angle_gamma                      89.86349
_symmetry_space_group_name_H-M         P 1
_symmetry_Int_Tables_number            1

loop_
_symmetry_equiv_pos_as_xyz
   x, y, z

loop_
   _atom_site_label
   _atom_site_fract_x
   _atom_site_fract_y
   _atom_site_fract_z
   _atom_site_charge
C	0.5399341703238757 0.6856704136256885 0.8711863090623796	0.110234
C	0.5431480549660659 0.7760802924594048 0.8694188994289185	-0.149791
C	0.4635886200208532 0.3171371719509571 0.8786758787965755	0.106789
C	0.4603440321611525 0.2267874884905944 0.8782220532782553	-0.141689
C	0.8163860754519700 0.9736969094402435 0.3659503600140048	0.109971
C	0.7261709844720868 0.9707733841218671 0.3622042923811049	-0.137610
C	0.3166270262249493 0.5410009795407468 0.8693518999051632	0.107031
C	0.2262425359368561 0.5450094037625595 0.8672204399741068	-0.148174
C	0.1860646636189546 0.9711052414326400 0.3567219052560671	0.104771
C	0.2763613053773235 0.9700505772660640 0.3537814371670298	-0.137494
C	0.6848964880955032 0.4631925640430887 0.8844735009572695	0.109972
C	0.7751864883017396 0.4603430624272741 0.8828834248705475	-0.141369
C	0.4551292615937558 0.6857998971969973 0.1135827883978722	0.108285
C	0.4519674925427458 0.7761009915587437 0.1163811007174818	-0.138615
C	0.5395233851184534 0.3187071035380419 0.1314292366834609	0.104250
C	0.5420247323178524 0.2282814258265517 0.1365875163995180	-0.147228
C	0.1837315680316802 0.0198273425711843 0.6336976385858409	0.110489
C	0.2738719937192200 0.0220547268675544 0.6404620808100167	-0.137683
C	0.6832276538932449 0.5432626147437112 0.1326741917541093	0.107438
C	0.7736648090836969 0.5465038265136940 0.1362438496401688	-0.147289
C	0.8159352603161221 0.0295763270922632 0.6378427231502671	0.103630
C	0.7256646504288733 0.0302883570906863 0.6434915817278305	-0.137250
C	0.3156789253421973 0.4585242634913946 0.1143918893978336	0.111029
C	0.2253453804162403 0.4561747979770604 0.1168782740410292	-0.141987
C	0.9655809965441837 0.8142516237070417 0.6336157617705951	0.110567
C	0.9647581536079108 0.7239206005656076 0.6401562183099736	-0.135284
C	0.9838251183251642 0.1826898100046572 0.6395351211212920	0.105712
C	0.9799882183538453 0.2728214543632396 0.6427227415179344	-0.137902
C	0.0207959159633920 0.8130764722612804 0.3610832170801695	0.105572
C	0.0238117980311861 0.7229200819750737 0.3583724788686765	-0.137059
C	0.0314015736531957 0.1820683516686810 0.3616482323525264	0.111496
C	0.0309801374506772 0.2723870767458380 0.3551040797488116	-0.137302
C	0.0039107557405131 0.3187217023512230 0.4978019378581746	0.043100
C	0.0009706376718461 0.4139166375746072 0.4975584924852696	0.255857
C	0.4978620712001593 0.8222513249033456 0.9933919470673663	0.058575
C	0.4988513989935225 0.9181786857143369 0.9982691060642026	0.247881
C	0.9952255134343987 0.6772218423608539 0.5004437977209216	0.039616
C	0.9971945007558767 0.5819003157849407 0.5004481484815739	0.248608
C	0.5009922986380488 0.1813792731463360 0.0087958153765071	0.057736
C	0.5003212531612299 0.0853556023716682 0.0094140153581521	0.250446
C	0.6797403898958480 0.9998595690511867 0.5033357607376694	0.041741
C	0.5844682905104784 0.9977590668128383 0.5043105457585155	0.245320
C	0.1796381097318129 0.5011806229319001 0.9921428366946330	0.057612
C	0.0837108651745011 0.5022042489256943 0.9947944540641966	0.248586
C	0.3212834669308529 0.9961148871262142 0.4983260377375278	0.043104
C	0.4164984444929668 0.9961248251135117 0.5015158285006759	0.256240
C	0.8205686582160719 0.5036096084781910 0.0101437092120254	0.055324
C	0.9165584865825663 0.5034607114865526 0.0073582145172267	0.249813
H	0.5710827648302310 0.6473363567573953 0.7723242961837333	0.105963
H	0.5795179352411690 0.8093125452269794 0.7710323648381012	0.124734
H	0.4359358316673023 0.3549045707629908 0.7754387659376949	0.107457
H	0.4290872678384489 0.1920887491617254 0.7755278200451852	0.119212
H	0.8545260581239925 0.9525271297903468 0.2575840819612869	0.103485
H	0.6929025243056788 0.9469508576545007 0.2506335754133087	0.121692
H	0.3551670185379842 0.5709774610383417 0.7695862069918659	0.107042
H	0.1933522868151935 0.5808056177798437 0.7676930684128795	0.124815
H	0.1493067042692961 0.9531415499472368 0.2448168448030665	0.099780
H	0.3105388207273450 0.9507489144930087 0.2395631457541372	0.117078
H	0.6470580526045181 0.4338994224593817 0.7833448301751891	0.106487
H	0.8099137122651936 0.4275960788135256 0.7815405686264070	0.118052
H	0.4241114172883086 0.6473648973863625 0.2120924009679723	0.107337
H	0.4175324822472284 0.8101856525161774 0.2163547085003848	0.117260
H	0.5675544181171781 0.3575214207139681 0.2327771870305020	0.107969
H	0.5742534447318071 0.1956111654063784 0.2408593655138499	0.124038
H	0.1449273986121507 0.0384405208497986 0.7428711441198543	0.102749
H	0.3062241089993940 0.0422821563531124 0.7556263923747292	0.120019
H	0.6443912671464962 0.5726559850735844 0.2329509456866395	0.108243
H	0.8062623613938387 0.5808089406896655 0.2379831761066393	0.124106
H	0.8534375292569688 0.0503759266868957 0.7469176490037368	0.100180
H	0.6922425312734395 0.0526228311507025 0.7563902827024286	0.121551
H	0.3537623696009741 0.4281485709906172 0.2141450417562402	0.105822
H	0.1908692822401729 0.4228159612623842 0.2175120225334488	0.117260
H	0.9441059687050317 0.8526998590523148 0.7413879396221014	0.104862
H	0.9422627710892695 0.6910687555566694 0.7534687560712461	0.120303
H	0.9674802484710119 0.1452487363909175 0.7515291795413902	0.097935
H	0.9597222508852720 0.3063789393624607 0.7568590634967904	0.120390
H	0.0405628909497838 0.8502932060035399 0.2508352372313991	0.098637
H	0.0472211175847396 0.6891958411966751 0.2467492219122037	0.119207
H	0.0504947241498077 0.1438415262691292 0.2519434531309062	0.104199
H	0.0495516001275204 0.3055399707266104 0.2394609845716980	0.119462
N	0.9452612928505321 0.5392076886157655 0.6100892438678497	-0.136654
N	0.4221719175395055 0.0455554021887144 0.0084750869257872	-0.148397
N	0.5420387450095326 0.0491032031410071 0.6157572156589551	-0.134132
N	0.9567706843529816 0.4253460974541615 0.0024133430335321	-0.147569
N	0.0504714125188355 0.5420996817308261 0.3885764850889875	-0.133959
N	0.5777057822856683 0.0438225300848647 0.0112565970223537	-0.147469
N	0.9576156117419622 0.5809259449802863 0.0049931638737598	-0.147506
N	0.5444821732346646 0.9434638638258864 0.3953021461642065	-0.132389
N	0.0528019741526532 0.4566509258588736 0.3880042856069653	-0.131412
N	0.5769806547775262 0.9580105112378030 0.0010838296360031	-0.146657
N	0.4589755514901755 0.9425557126790634 0.3942970691188220	-0.131691
N	0.0434219611236442 0.5802712249549826 0.9944586645716499	-0.145236
N	0.9467616900201691 0.4536558744097984 0.6075490479361426	-0.131224
N	0.4214967110771487 0.9596232356698334 0.0064049863060188	-0.144754
N	0.0426784380745396 0.4247066876633266 0.9992949437552584	-0.146823
N	0.4565352746022893 0.0484138837799675 0.6138688225222194	-0.135622
N	0.0078669913928573 0.1380233358984775 0.5011652054821806	-0.218738
N	0.4976936892045278 0.6415453321237329 0.9925135124459040	-0.223522
N	0.9932814419396223 0.8580285169483325 0.4966555636891789	-0.218672
N	0.5016724957741019 0.3621152214599470 0.0038192252075834	-0.226101
N	0.8605077673702126 0.0022702835063368 0.5015021706700153	-0.216447
N	0.3603572940978255 0.4994488171499288 0.9920427226502269	-0.226258
N	0.1405439975662532 0.9947882768487519 0.4944371669246524	-0.216957
N	0.6398542454563286 0.5031239509431674 0.0078937168991491	-0.225213
Zn	0.0004913921513518 0.9978992155633793 0.4980620184902707	0.755209
Zn	0.5001482199287096 0.5019230409365812 0.9991010358544800	0.758126
Ti	0.9998253208611410 0.9969769616609431 0.9982356301415266	2.316083
Ti	0.4993577207775020 0.5035171736906860 0.4988579822284057	2.333045
F	0.9981099031751162 0.0009818350608073 0.2408071062807904	-0.611902
F	0.5060503376109357 0.4997682250076454 0.7417351419463782	-0.618306
F	0.0019503650369900 0.9936590281149589 0.7554913562537560	-0.611674
F	0.4930823267620316 0.5062357630758857 0.2560506850323940	-0.618842
F	0.0870237274321378 0.0833246447084766 0.9952549946561343	-0.637992
F	0.5839484089926926 0.5927977540790109 0.4947881459281344	-0.652655
F	0.9125665269857578 0.9109930666629875 0.0007889086495940	-0.637248
F	0.4149327275408746 0.4143586269700197 0.5035786570437867	-0.653644
F	0.9138512813705767 0.0847094422342166 0.9858823726885569	-0.635526
F	0.4105525858785792 0.5885822695784484 0.5116928320343588	-0.652405
F	0.0862832262387884 0.9097422494574469 0.0106719168781873	-0.636007
F	0.5888664656908402 0.4190608720675901 0.4853053260173849	-0.653250
	  	
