#======================================================================

# CRYSTAL DATA

#----------------------------------------------------------------------

data_VESTA_phase_1


_pd_phase_name                         TIFSIX_15_Fe_i
_cell_length_a                         30.00707
_cell_length_b                         29.26943
_cell_length_c                         8.01079
_cell_angle_alpha                      90
_cell_angle_beta                       90
_cell_angle_gamma                      90
_symmetry_space_group_name_H-M         P 1
_symmetry_Int_Tables_number            1

loop_
_symmetry_equiv_pos_as_xyz
   x, y, z

loop_
   _atom_site_label
   _atom_site_fract_x
   _atom_site_fract_y
   _atom_site_fract_z
   _atom_site_charge
C	0.9322100266558654 0.1014897898744796 0.8946164354543745	0.109554
C	0.9004860050167176 0.0670252200856273 0.9005349147059304	-0.166448
C	0.7697738671158074 0.9362531368167910 0.9023851687130015	-0.114269
C	0.7358108592090549 0.9042600158397456 0.9021444680822099	-0.117536
C	0.5692808810236827 0.7427419151593826 0.8944948976735799	0.106191
C	0.6027904994858911 0.7753770457572795 0.9002038289340119	-0.169867
C	0.4322100586558613 0.6014898058744806 0.8946164354543745	0.109553
C	0.4004860370167200 0.5670251830856283 0.9005349147059304	-0.166448
C	0.2697738031158091 0.4362531698167901 0.9023851687130015	-0.114269
C	0.2358108272090525 0.4042600818397508 0.9021444680822099	-0.117536
C	0.0692809050236846 0.2427418981593848 0.8944948976735799	0.106114
C	0.1027904754858893 0.2753770787572785 0.9002038289340119	-0.169855
C	0.0677899413441389 0.8985101941255194 0.3946164664543737	0.109553
C	0.0995139709832805 0.9329748169143717 0.4005349467059256	-0.166449
C	0.2302261488841940 0.0637468261832096 0.4023852307129995	-0.114268
C	0.2641891567909465 0.0957399341602506 0.4021444680822099	-0.117536
C	0.4307190869763149 0.2572581348406144 0.3944949286735785	0.106191
C	0.3972095005141088 0.2246229212427214 0.4002038289340119	-0.169866
C	0.5677899733441346 0.3985102271255183 0.3946164664543737	0.109553
C	0.5995139949832824 0.4329748169143722 0.4005349467059256	-0.166449
C	0.7302261328841926 0.5637468631832090 0.4023852307129995	-0.114268
C	0.7641891407909451 0.5957399841602544 0.4021444680822099	-0.117536
C	0.9307191189763173 0.7572580848406174 0.3944949286735785	0.106191
C	0.8972095005141089 0.7246229542427205 0.4002038289340119	-0.169866
C	0.0677899413441389 0.1014897898744796 0.6053835335456265	0.109554
C	0.0995139709832805 0.0670252200856273 0.5994649912940689	-0.166448
C	0.2302261488841940 0.9362531368167910 0.5976148002869995	-0.114269
C	0.2641891567909465 0.9042600158397456 0.5978555629177891	-0.117535
C	0.4307190869763149 0.7427419151593826 0.6055050083264194	0.106191
C	0.3972095005141088 0.7753770457572795 0.5997961400659891	-0.169867
C	0.5677899733441346 0.6014898058744806 0.6053835335456265	0.109553
C	0.5995139949832824 0.5670251830856283 0.5994649912940689	-0.166448
C	0.7302261328841926 0.4362531698167901 0.5976148002869995	-0.114269
C	0.7641891407909451 0.4042600818397508 0.5978555629177891	-0.117535
C	0.9307191189763173 0.2427418981593848 0.6055050083264194	0.106114
C	0.8972095005141089 0.2753770787572785 0.5997961400659891	-0.169855
C	0.9322100266558654 0.8985101941255194 0.1053835495456275	0.109553
C	0.9004860050167176 0.9329748169143717 0.0994650302940688	-0.166449
C	0.7697738671158074 0.0637468261832096 0.0976148002869995	-0.114268
C	0.7358108592090549 0.0957399341602506 0.0978555479177846	-0.117536
C	0.5692808810236827 0.2572581348406144 0.1055050633264208	0.106191
C	0.6027904994858911 0.2246229212427214 0.0997961860659859	-0.169866
C	0.4322100586558613 0.3985102271255183 0.1053835495456275	0.109553
C	0.4004860370167200 0.4329748169143722 0.0994650302940688	-0.166449
C	0.2697738031158091 0.5637468631832090 0.0976148002869995	-0.114268
C	0.2358108272090525 0.5957399841602544 0.0978555479177846	-0.117536
C	0.0692809050236846 0.7572580848406174 0.1055050633264208	0.106191
C	0.1027904754858893 0.7246229542427205 0.0997961860659859	-0.169866
C	0.0677899413441389 0.8985101941255194 0.1053835495456275	0.109553
C	0.0995139709832805 0.9329748169143717 0.0994650302940688	-0.166449
C	0.2302261488841940 0.0637468261832096 0.0976148002869995	-0.114268
C	0.2641891567909465 0.0957399341602506 0.0978555479177846	-0.117536
C	0.4307190869763149 0.2572581348406144 0.1055050633264208	0.106190
C	0.3972095005141088 0.2246229212427214 0.0997961860659859	-0.169866
C	0.5677899733441346 0.3985102271255183 0.1053835495456275	0.109553
C	0.5995139949832824 0.4329748169143722 0.0994650302940688	-0.166449
C	0.7302261328841926 0.5637468631832090 0.0976148002869995	-0.114268
C	0.7641891407909451 0.5957399841602544 0.0978555479177846	-0.117536
C	0.9307191189763173 0.7572580848406174 0.1055050633264208	0.106190
C	0.8972095005141089 0.7246229542427205 0.0997961860659859	-0.169866
C	0.9322100266558654 0.1014897898744796 0.6053835335456265	0.109554
C	0.9004860050167176 0.0670252200856273 0.5994649912940689	-0.166448
C	0.7697738671158074 0.9362531368167910 0.5976148002869995	-0.114268
C	0.7358108592090549 0.9042600158397456 0.5978555629177891	-0.117536
C	0.5692808810236827 0.7427419151593826 0.6055050083264194	0.106191
C	0.6027904994858911 0.7753770457572795 0.5997961400659891	-0.169867
C	0.4322100586558613 0.6014898058744806 0.6053835335456265	0.109553
C	0.4004860370167200 0.5670251830856283 0.5994649912940689	-0.166448
C	0.2697738031158091 0.4362531698167901 0.5976148002869995	-0.114269
C	0.2358108272090525 0.4042600818397508 0.5978555629177891	-0.117536
C	0.0692809050236846 0.2427418981593848 0.6055050083264194	0.106114
C	0.1027904754858893 0.2753770787572785 0.5997961400659891	-0.169855
C	0.9322100266558654 0.8985101941255194 0.3946164664543737	0.109553
C	0.9004860050167176 0.9329748169143717 0.4005349467059256	-0.166449
C	0.7697738671158074 0.0637468261832096 0.4023852307129995	-0.114268
C	0.7358108592090549 0.0957399341602506 0.4021444680822099	-0.117536
C	0.5692808810236827 0.2572581348406144 0.3944949286735785	0.106190
C	0.6027904994858911 0.2246229212427214 0.4002038289340119	-0.169866
C	0.4322100586558613 0.3985102271255183 0.3946164664543737	0.109553
C	0.4004860370167200 0.4329748169143722 0.4005349467059256	-0.166449
C	0.2697738031158091 0.5637468631832090 0.4023852307129995	-0.114268
C	0.2358108272090525 0.5957399841602544 0.4021444680822099	-0.117536
C	0.0692809050236846 0.7572580848406174 0.3944949286735785	0.106190
C	0.1027904754858893 0.7246229542427205 0.4002038289340119	-0.169867
C	0.0677899413441389 0.1014897898744796 0.8946164354543745	0.109554
C	0.0995139709832805 0.0670252200856273 0.9005349147059304	-0.166448
C	0.2302261488841940 0.9362531368167910 0.9023851687130015	-0.114269
C	0.2641891567909465 0.9042600158397456 0.9021444680822099	-0.117536
C	0.4307190869763149 0.7427419151593826 0.8944948976735799	0.106191
C	0.3972095005141088 0.7753770457572795 0.9002038289340119	-0.169867
C	0.5677899733441346 0.6014898058744806 0.8946164354543745	0.109553
C	0.5995139949832824 0.5670251830856283 0.9005349147059304	-0.166449
C	0.7302261328841926 0.4362531698167901 0.9023851687130015	-0.114269
C	0.7641891407909451 0.4042600818397508 0.9021444680822099	-0.117536
C	0.9307191189763173 0.2427418981593848 0.8944948976735799	0.106114
C	0.8972095005141089 0.2753770787572785 0.9002038289340119	-0.169855
C	0.6545239065331927 0.8258940097281222 0.7500000160000013	-0.104794
C	0.8837734600694890 0.0490921600534550 0.7500000160000013	0.160420
C	0.8215682860260961 0.9856505138412365 0.7500000160000013	-0.099183
C	0.6204479837524459 0.7925983369158757 0.7500000160000013	0.168378
C	0.7872470266473458 0.9526904453234631 0.7500000160000013	0.126574
C	0.7183092183085378 0.8876492881416005 0.7500000160000013	0.139486
C	0.6839778713589800 0.8546532298873316 0.7500000160000013	-0.101753
C	0.8507992270751719 0.0146702193435256 0.7500000160000013	-0.106466
C	0.1545238905331913 0.3258940097281223 0.7500000160000013	-0.104794
C	0.3837733640694881 0.5490921720534556 0.7500000160000013	0.160420
C	0.3215682860260964 0.4856505138412364 0.7500000160000013	-0.099183
C	0.1204479757524455 0.2925983369158758 0.7500000160000013	0.168372
C	0.2872469946473503 0.4526904453234631 0.7500000160000013	0.126575
C	0.2183092023085361 0.3876493211415995 0.7500000160000013	0.139486
C	0.1839778383589807 0.3546531968873325 0.7500000160000013	-0.101753
C	0.3507991950751695 0.5146702143435216 0.7500000160000013	-0.106466
C	0.3454761254668100 0.1741059902718778 0.2500000000000000	-0.104795
C	0.1162266119305170 0.9509078279465444 0.2500000000000000	0.160420
C	0.1784317139739036 0.0143494821587633 0.2500000000000000	-0.099182
C	0.3795520162475537 0.2074016470841232 0.2500000000000000	0.168377
C	0.2127529893526559 0.0473095466765363 0.2500000000000000	0.126574
C	0.2816907816914624 0.1123506708583997 0.2500000000000000	0.139486
C	0.3160221616410193 0.1453467701126685 0.2500000000000000	-0.101752
C	0.1492008049248307 0.9853297526564793 0.2500000000000000	-0.106467
C	0.8454760934668073 0.6741059902718778 0.2500000000000000	-0.104794
C	0.6162265399305110 0.4509078609465432 0.2500000000000000	0.160420
C	0.6784317139739039 0.5143494861587635 0.2500000000000000	-0.099182
C	0.8795520162475541 0.7074016630841243 0.2500000000000000	0.168377
C	0.7127529733526542 0.5473095876765360 0.2500000000000000	0.126574
C	0.7816907816914622 0.6123507118583995 0.2500000000000000	0.139486
C	0.8160221286410200 0.6453467701126684 0.2500000000000000	-0.101753
C	0.6492007729248281 0.4853297526564792 0.2500000000000000	-0.106467
C	0.3454761254668100 0.8258940097281222 0.7500000160000013	-0.104795
C	0.1162266119305170 0.0490921600534550 0.7500000160000013	0.160420
C	0.1784317139739036 0.9856505138412365 0.7500000160000013	-0.099183
C	0.3795520162475537 0.7925983369158757 0.7500000160000013	0.168378
C	0.2127529893526559 0.9526904453234631 0.7500000160000013	0.126575
C	0.2816907816914624 0.8876492881416005 0.7500000160000013	0.139486
C	0.3160221616410193 0.8546532298873316 0.7500000160000013	-0.101753
C	0.1492008049248307 0.0146702193435256 0.7500000160000013	-0.106466
C	0.8454760934668073 0.3258940097281223 0.7500000160000013	-0.104793
C	0.6162265399305110 0.5490921720534556 0.7500000160000013	0.160420
C	0.6784317139739039 0.4856505138412364 0.7500000160000013	-0.099183
C	0.8795520162475541 0.2925983369158758 0.7500000160000013	0.168372
C	0.7127529733526542 0.4526904453234631 0.7500000160000013	0.126575
C	0.7816907816914622 0.3876493211415995 0.7500000160000013	0.139486
C	0.8160221286410200 0.3546531968873325 0.7500000160000013	-0.101753
C	0.6492007729248281 0.5146702143435216 0.7500000160000013	-0.106466
C	0.6545239065331927 0.1741059902718778 0.2500000000000000	-0.104794
C	0.8837734600694890 0.9509078279465444 0.2500000000000000	0.160420
C	0.8215682860260961 0.0143494821587633 0.2500000000000000	-0.099182
C	0.6204479837524459 0.2074016470841232 0.2500000000000000	0.168377
C	0.7872470266473458 0.0473095466765363 0.2500000000000000	0.126574
C	0.7183092183085378 0.1123506708583997 0.2500000000000000	0.139486
C	0.6839778713589800 0.1453467701126685 0.2500000000000000	-0.101753
C	0.8507992270751719 0.9853297526564793 0.2500000000000000	-0.106467
C	0.1545238905331913 0.6741059902718778 0.2500000000000000	-0.104794
C	0.3837733640694881 0.4509078609465432 0.2500000000000000	0.160420
C	0.3215682860260964 0.5143494861587635 0.2500000000000000	-0.099182
C	0.1204479757524455 0.7074016630841243 0.2500000000000000	0.168378
C	0.2872469946473503 0.5473095876765360 0.2500000000000000	0.126574
C	0.2183092023085361 0.6123507118583995 0.2500000000000000	0.139486
C	0.1839778383589807 0.6453467701126684 0.2500000000000000	-0.101753
C	0.3507991950751695 0.4853297526564792 0.2500000000000000	-0.106467
H	0.9454172392857950 0.1158718564143584 0.0097322894340508	0.091431
H	0.8886747819108979 0.0541476908588351 0.0201202652973130	0.120796
H	0.7833898037672478 0.9490592538579405 0.0195431032419785	0.106773
H	0.7222434259888401 0.8914972129859543 0.0192737277309559	0.115262
H	0.5553079668356444 0.7291811761118528 0.0096602091352246	0.090300
H	0.6152384061820878 0.7874194211986855 0.0199073538369587	0.125882
H	0.4454173352857962 0.6158718724143598 0.0097322894340508	0.091433
H	0.3886747179108990 0.5541477198588406 0.0201202652973130	0.120796
H	0.2833898037672476 0.4490592538579404 0.0195431032419785	0.106773
H	0.2222434419888416 0.3914973119859586 0.0192737277309559	0.115262
H	0.0553079748356454 0.2291812251118534 0.0096602091352246	0.090313
H	0.1152384221820818 0.2874193551986872 0.0199073538369587	0.125880
H	0.0545827007141997 0.8841281275856402 0.5097323184340498	0.091433
H	0.1113252660890995 0.9458522801411594 0.5201203002973125	0.120797
H	0.2166102282327549 0.0509407631420645 0.5195431352419810	0.106772
H	0.2777565740111596 0.1085027130140469 0.5192737237309556	0.115262
H	0.4446920331643551 0.2708187578881490 0.5096602091352245	0.090302
H	0.3847615938179125 0.2125805958013122 0.5199073848369580	0.125881
H	0.5545827607142050 0.3841281275856405 0.5097323184340498	0.091431
H	0.6113252180891021 0.4458523131411654 0.5201203002973125	0.120797
H	0.7166101962327522 0.5509407461420595 0.5195431352419810	0.106772
H	0.7777565740111599 0.6085027870140457 0.5192737237309556	0.115262
H	0.9446920331643556 0.7708188238881472 0.5096602091352245	0.090300
H	0.8847615938179122 0.7125805788013145 0.5199073848369580	0.125881
H	0.0545827007141997 0.1158718564143584 0.4902677125659494	0.091431
H	0.1113252660890995 0.0541476908588351 0.4798796997026806	0.120796
H	0.2166102282327549 0.9490592538579405 0.4804568967580214	0.106773
H	0.2777565740111596 0.8914972129859543 0.4807262762690445	0.115263
H	0.4446920331643551 0.7291811761118528 0.4903398228647781	0.090300
H	0.3847615938179125 0.7874194211986855 0.4800926461630414	0.125882
H	0.5545827607142050 0.6158718724143598 0.4902677125659494	0.091433
H	0.6113252180891021 0.5541477198588406 0.4798796997026806	0.120796
H	0.7166101962327522 0.4490592538579404 0.4804568967580214	0.106773
H	0.7777565740111599 0.3914973119859586 0.4807262762690445	0.115263
H	0.9446920331643556 0.2291812251118534 0.4903398228647781	0.090313
H	0.8847615938179122 0.2874193551986872 0.4800926461630414	0.125881
H	0.9454172392857950 0.8841281275856402 0.9902677125659493	0.091433
H	0.8886747819108979 0.9458522801411594 0.9798796687026814	0.120797
H	0.7833898037672478 0.0509407631420645 0.9804568967580216	0.106773
H	0.7222434259888401 0.1085027130140469 0.9807262452690383	0.115263
H	0.5553079668356444 0.2708187578881490 0.9903397908647755	0.090302
H	0.6152384061820878 0.2125805958013122 0.9800926461630410	0.125881
H	0.4454173352857962 0.3841281275856405 0.9902677125659493	0.091431
H	0.3886747179108990 0.4458523131411654 0.9798796687026814	0.120797
H	0.2833898037672476 0.5509407461420595 0.9804568967580216	0.106773
H	0.2222434419888416 0.6085027870140457 0.9807262452690383	0.115263
H	0.0553079748356454 0.7708188238881472 0.9903397908647755	0.090300
H	0.1152384221820818 0.7125805788013145 0.9800926461630410	0.125882
H	0.0545827007141997 0.8841281275856402 0.9902677125659493	0.091433
H	0.1113252660890995 0.9458522801411594 0.9798796687026814	0.120796
H	0.2166102282327549 0.0509407631420645 0.9804568967580216	0.106772
H	0.2777565740111596 0.1085027130140469 0.9807262452690383	0.115263
H	0.4446920331643551 0.2708187578881490 0.9903397908647755	0.090302
H	0.3847615938179125 0.2125805958013122 0.9800926461630410	0.125881
H	0.5545827607142050 0.3841281275856405 0.9902677125659493	0.091431
H	0.6113252180891021 0.4458523131411654 0.9798796687026814	0.120797
H	0.7166101962327522 0.5509407461420595 0.9804568967580216	0.106772
H	0.7777565740111599 0.6085027870140457 0.9807262452690383	0.115263
H	0.9446920331643556 0.7708188238881472 0.9903397908647755	0.090300
H	0.8847615938179122 0.7125805788013145 0.9800926461630410	0.125882
H	0.9454172392857950 0.1158718564143584 0.4902677125659494	0.091431
H	0.8886747819108979 0.0541476908588351 0.4798796997026806	0.120796
H	0.7833898037672478 0.9490592538579405 0.4804568967580214	0.106773
H	0.7222434259888401 0.8914972129859543 0.4807262762690445	0.115263
H	0.5553079668356444 0.7291811761118528 0.4903398228647781	0.090300
H	0.6152384061820878 0.7874194211986855 0.4800926461630414	0.125882
H	0.4454173352857962 0.6158718724143598 0.4902677125659494	0.091433
H	0.3886747179108990 0.5541477198588406 0.4798796997026806	0.120796
H	0.2833898037672476 0.4490592538579404 0.4804568967580214	0.106773
H	0.2222434419888416 0.3914973119859586 0.4807262762690445	0.115263
H	0.0553079748356454 0.2291812251118534 0.4903398228647781	0.090313
H	0.1152384221820818 0.2874193551986872 0.4800926461630414	0.125880
H	0.9454172392857950 0.8841281275856402 0.5097323184340498	0.091433
H	0.8886747819108979 0.9458522801411594 0.5201203002973125	0.120796
H	0.7833898037672478 0.0509407631420645 0.5195431352419810	0.106772
H	0.7222434259888401 0.1085027130140469 0.5192737237309556	0.115263
H	0.5553079668356444 0.2708187578881490 0.5096602091352245	0.090302
H	0.6152384061820878 0.2125805958013122 0.5199073848369580	0.125881
H	0.4454173352857962 0.3841281275856405 0.5097323184340498	0.091431
H	0.3886747179108990 0.4458523131411654 0.5201203002973125	0.120796
H	0.2833898037672476 0.5509407461420595 0.5195431352419810	0.106772
H	0.2222434419888416 0.6085027870140457 0.5192737237309556	0.115263
H	0.0553079748356454 0.7708188238881472 0.5096602091352245	0.090300
H	0.1152384221820818 0.7125805788013145 0.5199073848369580	0.125881
H	0.0545827007141997 0.1158718564143584 0.0097322894340508	0.091431
H	0.1113252660890995 0.0541476908588351 0.0201202652973130	0.120796
H	0.2166102282327549 0.9490592538579405 0.0195431032419785	0.106772
H	0.2777565740111596 0.8914972129859543 0.0192737277309559	0.115263
H	0.4446920331643551 0.7291811761118528 0.0096602091352246	0.090300
H	0.3847615938179125 0.7874194211986855 0.0199073538369587	0.125882
H	0.5545827607142050 0.6158718724143598 0.0097322894340508	0.091433
H	0.6113252180891021 0.5541477198588406 0.0201202652973130	0.120796
H	0.7166101962327522 0.4490592538579404 0.0195431032419785	0.106772
H	0.7777565740111599 0.3914973119859586 0.0192737277309559	0.115263
H	0.9446920331643556 0.2291812251118534 0.0096602091352246	0.090313
H	0.8847615938179122 0.2874193551986872 0.0199073538369587	0.125880
Fe	0.5000000000000000 0.6729288304712883 0.7500000160000013	0.841096
Fe	-0.0000000000000000 0.1729288474712864 0.7500000160000013	0.841169
Fe	0.5000000000000000 0.3270711695287114 0.2500000000000000	0.841096
Fe	-0.0000000000000000 0.8270711695287117 0.2500000000000000	0.841096
Ti	0.5000000000000000 0.6728933242981682 0.2500000000000000	2.312188
Ti	-0.0000000000000000 0.1728933242981684 0.2500000000000000	2.312211
Ti	0.5000000000000000 0.3271067077018346 0.7500000160000013	2.312209
Ti	-0.0000000000000000 0.8271066757018318 0.7500000160000013	2.312188
F	0.5000000000000000 0.7370554528634627 0.2500000000000000	-0.632819
F	0.5000000000000000 0.6086991878634410 0.2500000000000000	-0.630896
F	-0.0000000000000000 0.2370554038634625 0.2500000000000000	-0.632818
F	-0.0000000000000000 0.1086991718634398 0.2500000000000000	-0.630904
F	0.5000000000000000 0.2629445961365376 0.7500000160000013	-0.632817
F	0.5000000000000000 0.3913007791365595 0.7500000160000013	-0.630905
F	-0.0000000000000000 0.7629445471365373 0.7500000160000013	-0.632818
F	-0.0000000000000000 0.8913008121365590 0.7500000160000013	-0.630897
F	0.5626373923262824 0.6729564741085793 0.2500000000000000	-0.633509
F	0.0626374123262838 0.1729565071085785 0.2500000000000000	-0.633514
F	0.4373625756737153 0.3270434598914224 0.7500000160000013	-0.633513
F	0.9373626076737176 0.8270435258914207 0.7500000160000013	-0.633509
F	0.4373625756737153 0.6729564741085793 0.2500000000000000	-0.633509
F	0.9373626076737176 0.1729565071085785 0.2500000000000000	-0.633514
F	0.5626373923262824 0.3270434598914224 0.7500000160000013	-0.633513
F	0.0626374123262838 0.8270435258914207 0.7500000160000013	-0.633509
F	0.5000000000000000 0.6729920267399533 0.4956222345860021	-0.590093
F	-0.0000000000000000 0.1729920437399516 0.4956222345860021	-0.590106
F	0.5000000000000000 0.3270080062600456 -0.0043777654139978	-0.590096
F	-0.0000000000000000 0.8270079732600467 -0.0043777654139978	-0.590094
F	0.5000000000000000 0.6729920267399533 0.0043777614139975	-0.590094
F	-0.0000000000000000 0.1729920437399516 0.0043777614139975	-0.590106
F	0.5000000000000000 0.3270080062600456 0.5043777334140025	-0.590095
F	-0.0000000000000000 0.8270079732600467 0.5043777334140024	-0.590093
N	0.5525150444147490 0.7263285122441444 0.7500000160000013	-0.249688
N	0.9480633721476852 0.1187698873860040 0.7500000160000013	-0.250308
N	0.0525150084147458 0.2263284962441431 0.7500000160000013	-0.249591
N	0.4480633721476850 0.6187698713860028 0.7500000160000013	-0.250298
N	0.4474850195852495 0.2736714877558556 0.2500000000000000	-0.249689
N	0.0519366358523157 0.8812301286139972 0.2500000000000000	-0.250298
N	0.9474849555852510 0.7736714877558556 0.2500000000000000	-0.249688
N	0.5519366278523148 0.3812301286139974 0.2500000000000000	-0.250298
N	0.4474850195852495 0.7263285122441444 0.7500000160000013	-0.249688
N	0.0519366358523157 0.1187698873860040 0.7500000160000013	-0.250308
N	0.9474849555852510 0.2263284962441431 0.7500000160000013	-0.249591
N	0.5519366278523148 0.6187698713860028 0.7500000160000013	-0.250298
N	0.5525150444147490 0.2736714877558556 0.2500000000000000	-0.249689
N	0.9480633721476852 0.8812301286139972 0.2500000000000000	-0.250298
N	0.0525150084147458 0.7736714877558556 0.2500000000000000	-0.249688
N	0.4480633721476850 0.3812301286139974 0.2500000000000000	-0.250298
	  	
