#======================================================================

# CRYSTAL DATA

#----------------------------------------------------------------------

data_VESTA_phase_1


_pd_phase_name                         TIFSIX_2_Zn_i
_cell_length_a                         13.96838
_cell_length_b                         13.96838
_cell_length_c                         8.12774
_cell_angle_alpha                      90
_cell_angle_beta                       90
_cell_angle_gamma                      90
_symmetry_space_group_name_H-M         P 1
_symmetry_Int_Tables_number            1

loop_
_symmetry_equiv_pos_as_xyz
   x, y, z

loop_
   _atom_site_label
   _atom_site_fract_x
   _atom_site_fract_y
   _atom_site_fract_z
   _atom_site_charge
C	0.0000000000000000 0.3030485068274700 0.3516490630998809	-0.159086
C	0.0000000000000000 0.2037917075941971 0.3572017342983560	0.108402
C	0.5000000000000000 0.8030485068274698 0.8516490920998793	-0.159086
C	0.5000000000000000 0.7037917255941989 0.8572017342983559	0.108402
C	0.0000000000000000 0.6969514931725302 0.3516490630998809	-0.159088
C	0.0000000000000000 0.7962082744058011 0.3572017342983560	0.108404
C	0.5000000000000000 0.1969515101725279 0.8516490920998793	-0.159081
C	0.5000000000000000 0.2962082744058017 0.8572017342983559	0.108409
C	0.6969514931725302 -0.0000000000000000 0.3516490630998809	-0.159086
C	0.7962082744058011 -0.0000000000000000 0.3572017342983560	0.108405
C	0.1969515101725279 0.5000000000000000 0.8516490920998793	-0.159079
C	0.2962082744058017 0.5000000000000000 0.8572017342983559	0.108410
C	0.3030485068274700 -0.0000000000000000 0.3516490630998809	-0.159088
C	0.2037917075941971 -0.0000000000000000 0.3572017342983560	0.108407
C	0.8030485068274698 0.5000000000000000 0.8516490920998793	-0.159088
C	0.7037917255941989 0.5000000000000000 0.8572017342983559	0.108407
C	0.0000000000000000 0.3030485068274700 0.6483509079001207	-0.159081
C	0.0000000000000000 0.2037917075941971 0.6427982657016441	0.108402
C	0.5000000000000000 0.8030485068274698 0.1483509369001193	-0.159081
C	0.5000000000000000 0.7037917255941989 0.1427982507016463	0.108402
C	0.0000000000000000 0.6969514931725302 0.6483509079001207	-0.159083
C	0.0000000000000000 0.7962082744058011 0.6427982657016441	0.108405
C	0.5000000000000000 0.1969515101725279 0.1483509369001193	-0.159076
C	0.5000000000000000 0.2962082744058017 0.1427982507016463	0.108409
C	0.3030485068274700 -0.0000000000000000 0.6483509079001207	-0.159083
C	0.2037917075941971 -0.0000000000000000 0.6427982657016441	0.108408
C	0.8030485068274698 0.5000000000000000 0.1483509369001193	-0.159083
C	0.7037917255941989 0.5000000000000000 0.1427982507016463	0.108407
C	0.6969514931725302 -0.0000000000000000 0.6483509079001207	-0.159081
C	0.7962082744058011 -0.0000000000000000 0.6427982657016441	0.108406
C	0.1969515101725279 0.5000000000000000 0.1483509369001193	-0.159074
C	0.2962082744058017 0.5000000000000000 0.1427982507016463	0.108410
C	0.0000000000000000 0.4563178443095003 0.5000000000000000	-0.095748
C	0.0000000000000000 0.3549991547864121 0.5000000000000000	0.164438
C	0.5000000000000000 0.9563178783095030 -0.0000000000000000	-0.095745
C	0.5000000000000000 0.8549991197864130 -0.0000000000000000	0.164438
C	0.0000000000000000 0.5436821556904998 0.5000000000000000	-0.095493
C	0.0000000000000000 0.6450008802135870 0.5000000000000000	0.164407
C	0.5000000000000000 0.0436821346904943 -0.0000000000000000	-0.095499
C	0.5000000000000000 0.1450008802135872 -0.0000000000000000	0.164384
C	0.5436821556904998 -0.0000000000000000 0.5000000000000000	-0.095749
C	0.6450008802135870 -0.0000000000000000 0.5000000000000000	0.164438
C	0.0436821346904944 0.5000000000000000 -0.0000000000000000	-0.095754
C	0.1450008802135872 0.5000000000000000 -0.0000000000000000	0.164415
C	0.4563178443095003 -0.0000000000000000 0.5000000000000000	-0.095494
C	0.3549991547864121 -0.0000000000000000 0.5000000000000000	0.164407
C	0.9563178783095030 0.5000000000000000 -0.0000000000000000	-0.095491
C	0.8549991197864130 0.5000000000000000 -0.0000000000000000	0.164407
H	0.0000000000000000 0.3396416718459343 0.2335379102499998	0.121160
H	0.0000000000000000 0.1618719976158065 0.2443051646666309	0.096007
H	0.5000000000000000 0.8396416718459343 0.7335379102499996	0.121161
H	0.5000000000000000 0.6618719446158058 0.7443051946666335	0.096007
H	0.0000000000000000 0.6603583281540657 0.2335379102499998	0.121159
H	0.0000000000000000 0.8381280553841942 0.2443051646666309	0.096007
H	0.5000000000000000 0.1603583281540656 0.7335379102499996	0.121159
H	0.5000000000000000 0.3381280203841878 0.7443051946666335	0.096008
H	0.6603583281540657 -0.0000000000000000 0.2335379102499998	0.121160
H	0.8381280553841942 -0.0000000000000000 0.2443051646666309	0.096006
H	0.1603583281540656 0.5000000000000000 0.7335379102499996	0.121160
H	0.3381280203841878 0.5000000000000000 0.7443051946666335	0.096007
H	0.3396416718459343 -0.0000000000000000 0.2335379102499998	0.121159
H	0.1618719976158065 -0.0000000000000000 0.2443051646666309	0.096006
H	0.8396416718459343 0.5000000000000000 0.7335379102499996	0.121159
H	0.6618719446158058 0.5000000000000000 0.7443051946666335	0.096006
H	0.0000000000000000 0.3396416718459343 0.7664620897500004	0.121156
H	0.0000000000000000 0.1618719976158065 0.7556947473333688	0.096007
H	0.5000000000000000 0.8396416718459343 0.2664620897500000	0.121156
H	0.5000000000000000 0.6618719446158058 0.2556948353333690	0.096008
H	0.0000000000000000 0.6603583281540657 0.7664620897500004	0.121154
H	0.0000000000000000 0.8381280553841942 0.7556947473333688	0.096007
H	0.5000000000000000 0.1603583281540656 0.2664620897500000	0.121154
H	0.5000000000000000 0.3381280203841878 0.2556948353333690	0.096009
H	0.3396416718459343 -0.0000000000000000 0.7664620897500004	0.121154
H	0.1618719976158065 -0.0000000000000000 0.7556947473333688	0.096006
H	0.8396416718459343 0.5000000000000000 0.2664620897500000	0.121155
H	0.6618719446158058 0.5000000000000000 0.2556948353333690	0.096007
H	0.6603583281540657 -0.0000000000000000 0.7664620897500004	0.121156
H	0.8381280553841942 -0.0000000000000000 0.7556947473333688	0.096006
H	0.1603583281540656 0.5000000000000000 0.2664620897500000	0.121156
H	0.3381280203841878 0.5000000000000000 0.2556948353333690	0.096008
Zn	0.0000000000000000 -0.0000000000000000 0.5000000000000000	0.759918
Zn	0.5000000000000000 0.5000000000000000 -0.0000000000000000	0.759917
Ti	0.0000000000000000 -0.0000000000000000 -0.0000000000000000	2.315209
Ti	0.5000000000000000 0.5000000000000000 0.5000000000000000	2.315215
N	0.0000000000000000 0.1545097229243300 0.5000000000000000	-0.225226
N	0.5000000000000000 0.6545097049243286 -0.0000000000000000	-0.225226
N	0.0000000000000000 0.8454902950756714 0.5000000000000000	-0.225226
N	0.5000000000000000 0.3454902950756715 -0.0000000000000000	-0.225225
N	0.8454902950756714 -0.0000000000000000 0.5000000000000000	-0.225227
N	0.3454902950756715 0.5000000000000000 -0.0000000000000000	-0.225227
N	0.1545097229243300 -0.0000000000000000 0.5000000000000000	-0.225227
N	0.6545097049243286 0.5000000000000000 -0.0000000000000000	-0.225227
F	0.0000000000000000 -0.0000000000000000 0.7599464111216739	-0.608580
F	0.5000000000000000 0.5000000000000000 0.2599465001216780	-0.608595
F	0.0000000000000000 -0.0000000000000000 0.2400535148783268	-0.608580
F	0.5000000000000000 0.5000000000000000 0.7400535888783261	-0.608581
F	0.5954740858601932 0.5954740858601932 0.5000000000000000	-0.641034
F	0.5954740858601932 0.4045259141398068 0.5000000000000000	-0.641034
F	0.4045259141398068 0.5954740858601932 0.5000000000000000	-0.641034
F	0.4045259141398068 0.4045259141398068 0.5000000000000000	-0.641034
F	0.0954741028601910 0.0954741028601910 -0.0000000000000000	-0.641036
F	0.9045259141398068 0.9045259141398068 -0.0000000000000000	-0.641036
F	0.9045259141398068 0.0954741028601910 -0.0000000000000000	-0.641036
F	0.0954741028601910 0.9045259141398068 -0.0000000000000000	-0.641036
	  	
