#======================================================================

# CRYSTAL DATA

#----------------------------------------------------------------------

data_VESTA_phase_1


_pd_phase_name                         TIFSIX_13_Fe_i
_cell_length_a                         15.33051
_cell_length_b                         15.27233
_cell_length_c                         7.93228
_cell_angle_alpha                      90.02171
_cell_angle_beta                       89.92101
_cell_angle_gamma                      89.87551
_symmetry_space_group_name_H-M         P 1
_symmetry_Int_Tables_number            1

loop_
_symmetry_equiv_pos_as_xyz
   x, y, z

loop_
   _atom_site_label
   _atom_site_fract_x
   _atom_site_fract_y
   _atom_site_fract_z
   _atom_site_charge
C	0.5400146908094116 0.6808956398256694 0.8714305353188965	0.101948
C	0.5430192890570416 0.7721361843232989 0.8697186549085388	-0.147494
C	0.4636202386405894 0.3218076326891132 0.8780479447800347	0.099565
C	0.4604830540267365 0.2306476046608257 0.8780530780055513	-0.140653
C	0.8166307396569181 0.9735723868235430 0.3655746233249510	0.109666
C	0.7262504219380752 0.9707674032225313 0.3616720998473647	-0.135821
C	0.3193977022489277 0.5410760120264489 0.8690255534164575	0.101380
C	0.2286117458029975 0.5449187027854185 0.8668949432755796	-0.147760
C	0.1857608277234569 0.9709493796008021 0.3563738709952035	0.104985
C	0.2762558712286821 0.9699734811363181 0.3530543706028408	-0.134145
C	0.6821780179491701 0.4631949289247810 0.8834798634321238	0.104060
C	0.7728643184541237 0.4604358308187487 0.8822999679819827	-0.140655
C	0.4553673177619657 0.6811683596399442 0.1145525714239240	0.103594
C	0.4520357454492753 0.7722767378618980 0.1163832393847598	-0.139017
C	0.5392972085658903 0.3234478595332480 0.1317157612074632	0.100942
C	0.5418788590285601 0.2321958162289626 0.1363468802811461	-0.148908
C	0.1835071766630042 0.0198742333099765 0.6339978913524699	0.112271
C	0.2738143134065384 0.0219783404004309 0.6410141636408550	-0.136502
C	0.6803759106603571 0.5431666277526149 0.1328449940926578	0.103524
C	0.7712309422542125 0.5463895176551283 0.1363902164010100	-0.150206
C	0.8163522095601011 0.0297931920218680 0.6380651409879734	0.103169
C	0.7259011662289022 0.0303911215295563 0.6442560992949004	-0.136751
C	0.3184532310120145 0.4586730156692104 0.1153458632931839	0.102966
C	0.2277276475454503 0.4562429976185579 0.1174105897246067	-0.139076
C	0.9651649099306857 0.8150014770719010 0.6342776822572549	0.110117
C	0.9645927477127060 0.7242383913953143 0.6411132877888286	-0.135739
C	0.9838850626376935 0.1818388358603380 0.6396316083644433	0.106187
C	0.9799716513006140 0.2724116265986331 0.6430734206063675	-0.138097
C	0.0207425815008993 0.8139495143881416 0.3609869070657080	0.104811
C	0.0237811547844224 0.7233497875383593 0.3579929291429912	-0.136039
C	0.0317922868512733 0.1813270441240792 0.3608934478688325	0.109842
C	0.0310369921592214 0.2720672997422745 0.3540799641190200	-0.134809
C	0.0038337390589155 0.3181840182821659 0.4974794902181978	0.046315
C	0.0008819948844688 0.4137080149961013 0.4973085545963647	0.254559
C	0.4978479414621242 0.8196334995256331 0.9935065529095033	0.057859
C	0.4987955606370333 0.9169344726158953 0.9982766877716129	0.248010
C	0.9951909384275454 0.6777457223199860 0.5006950591510209	0.042725
C	0.9971777180154803 0.5820843861644101 0.5005928165925373	0.248737
C	0.5009813393644913 0.1840117826610048 0.0086023986447763	0.055804
C	0.5003178582043040 0.0865944246968955 0.0092211853209028	0.253046
C	0.6799733933524840 0.9998934148610210 0.5035382846452228	0.046148
C	0.5845096334983371 0.9977628798713679 0.5044572365835736	0.244196
C	0.1812381138582064 0.5011852663061261 0.9922350090938867	0.054610
C	0.0844539990589543 0.5022014458800304 0.9948742006970880	0.250584
C	0.3211086441546696 0.9960494756817738 0.4982110278800085	0.045780
C	0.4165025261552408 0.9960924050222296 0.5014590243071272	0.255750
C	0.8189930497762489 0.5036699935142037 0.0099472321584588	0.057010
C	0.9158160739466774 0.5035063001061834 0.0071846218284448	0.249609
H	0.5711102563369396 0.6428588131833775 0.7713418096237182	0.109284
H	0.5795352471037289 0.8049818201745430 0.7702123791155517	0.125214
H	0.4360838240195705 0.3592459474344858 0.7735096198207639	0.110309
H	0.4289830308437512 0.1963065543071701 0.7743544537542039	0.120446
H	0.8549454711522400 0.9521910399071984 0.2572466573511857	0.103835
H	0.6928909222239643 0.9468553345859834 0.2497689877069033	0.123225
H	0.3577584753616042 0.5710395470987745 0.7683189575340792	0.109495
H	0.1962382524159419 0.5809590847800550 0.7662999478034126	0.126684
H	0.1486955606381735 0.9529913257144808 0.2445146058060724	0.098672
H	0.3103149146276609 0.9505943035509570 0.2383554539582383	0.118079
H	0.6445005860425023 0.4339173526183332 0.7814523490257056	0.109140
H	0.8071380978021684 0.4273179343843689 0.7801363442060749	0.119122
H	0.4243815079007935 0.6430841665901090 0.2143353432928563	0.110396
H	0.4170606676721493 0.8060771675458607 0.2168443020648627	0.118615
H	0.5672325667679968 0.3619553863917982 0.2344071380303898	0.109785
H	0.5744282022535239 0.1999314805753878 0.2414869135886290	0.125977
H	0.1445184678694041 0.0387047128495377 0.7430979684831321	0.101506
H	0.3061866901429473 0.0423413411675789 0.7565302701701372	0.121778
H	0.6416570436686698 0.5725633690124066 0.2339177467908530	0.109690
H	0.8032604117361926 0.5809486803414560 0.2392315556592630	0.125723
H	0.8542032500400388 0.0507432674175125 0.7469694384821062	0.099076
H	0.6926148292205152 0.0528623670112002 0.7576591758806851	0.123856
H	0.3564264118700148 0.4283157751142380 0.2160003181899088	0.108366
H	0.1937639508083863 0.4223795888613956 0.2187803264121165	0.118770
H	0.9435870721176289 0.8538288192762301 0.7419137948852074	0.103395
H	0.9420916798838671 0.6909518827779203 0.7544324572303752	0.121647
H	0.9674401156726504 0.1439335887485937 0.7514182522775139	0.095748
H	0.9596713775171180 0.3062818708498580 0.7573625024508774	0.121469
H	0.0407072348977865 0.8516174589860523 0.2510169997211345	0.096920
H	0.0472975237410783 0.6893252651568623 0.2462610258345470	0.120191
H	0.0510117228974237 0.1427071096652152 0.2513285926119508	0.103655
H	0.0496105886185495 0.3056681590817094 0.2384477658127309	0.119948
N	0.9444853510923821 0.5394998316285042 0.6098439366671995	-0.144428
N	0.4219541186682242 0.0459630804029616 0.0084949300382084	-0.152061
N	0.5422564699119279 0.0500375159952386 0.6155520723414248	-0.141797
N	0.9565294245505253 0.4248763538340821 0.0022091809869026	-0.148685
N	0.0512506732239289 0.5424890502387787 0.3890858778983019	-0.141629
N	0.5778778693904951 0.0442068895904449 0.0111004136423814	-0.150176
N	0.9573981045579674 0.5814657200088245 0.0049407609836270	-0.149634
N	0.5447479978904337 0.9426698586836864 0.3954706459241274	-0.139188
N	0.0536300314071692 0.4563322471596363 0.3883941129370858	-0.138523
N	0.5771387283306944 0.9575888576033225 0.0011783945141710	-0.149495
N	0.4588066703925796 0.9417235387512042 0.3943442363841160	-0.137931
N	0.0436533393644856 0.5807722090041052 0.9944839568780467	-0.147163
N	0.9459051355249153 0.4532341562828980 0.6069645513789405	-0.137733
N	0.4212590930658514 0.9592340683390402 0.0063947031730140	-0.147157
N	0.0428783096336263 0.4242056424727923 0.9993523175981399	-0.149424
N	0.4563169221835595 0.0493189602541437 0.6135711539175106	-0.141212
N	0.0081482887607806 0.1373437620776684 0.5007818222712489	-0.214739
N	0.4981181592713319 0.6354887068262220 0.9935663714091846	-0.196555
N	0.9930110906593212 0.8587464396772585 0.4970334194486639	-0.214679
N	0.5014767259401970 0.3681202337789675 0.0037593915200236	-0.198026
N	0.8607621170270657 0.0023359747243869 0.5013775307799437	-0.209114
N	0.3637678605884330 0.4997395320174380 0.9925788271270237	-0.197581
N	0.1403614819391912 0.9947097048718423 0.4943989534537359	-0.210293
N	0.6363845380984946 0.5030990672624670 0.0073341628548548	-0.198624
Fe	0.0005707090998142 0.9980346792624140 0.4980934715653946	0.733598
Fe	0.5000889241023249 0.5017758680124194 0.9990611355297733	0.642725
Ti	0.9997742446242355 0.9968568455155228 0.9982576423737244	2.311791
Ti	0.4993416682071751 0.5035573757000241 0.4988625443360575	2.320384
F	0.9983719319100697 0.0007788148542504 0.2434820679352030	-0.598358
F	0.5061966135204456 0.4993864185286633 0.7410346917441715	-0.602283
F	0.0017266243159438 0.9937092972374423 0.7529374423630123	-0.598585
F	0.4927817606245170 0.5061377344270042 0.2568552140426911	-0.602764
F	0.0870364577852487 0.0836041767788167 0.9955261106010636	-0.630553
F	0.5843406473096064 0.5934321076857177 0.4945807638013944	-0.651673
F	0.9124046671844006 0.9104900660732177 0.0011108974529765	-0.630077
F	0.4144505315892653 0.4137696263009202 0.5034109724471670	-0.653266
F	0.9138885744851675 0.0850931724942025 0.9874646043022027	-0.628815
F	0.4101436937516206 0.5892701544556614 0.5119466534863314	-0.652393
F	0.0863450118165875 0.9093106295412248 0.0090177739114792	-0.629128
F	0.5894550329299079 0.4186966792029623 0.4856051068176699	-0.652873
	  	
