#======================================================================

# CRYSTAL DATA

#----------------------------------------------------------------------

data_VESTA_phase_1


_pd_phase_name                         TIFSIX_2_Co
_cell_length_a                         13.58515
_cell_length_b                         13.58515
_cell_length_c                         8.11724
_cell_angle_alpha                      90
_cell_angle_beta                       90
_cell_angle_gamma                      90
_symmetry_space_group_name_H-M         P 1
_symmetry_Int_Tables_number            1

loop_
_symmetry_equiv_pos_as_xyz
   x, y, z

loop_
   _atom_site_label
   _atom_site_fract_x
   _atom_site_fract_y
   _atom_site_fract_z
   _atom_site_charge
C	0.5311308756073565 0.6952829305893475 0.1336643998788796	0.093298
C	0.5314795805278917 0.7972376796967370 0.1384701567008632	-0.161470
C	0.4688691943926422 0.3047170694106526 0.1336643998788796	0.093296
C	0.4685203844721088 0.2027623023032618 0.1384701567008632	-0.161467
C	0.3047170694106526 0.5311308756073565 0.1336643998788796	0.093297
C	0.2027623023032618 0.5314795805278917 0.1384701567008632	-0.161470
C	0.6952829305893475 0.4688691943926422 0.1336643998788796	0.093294
C	0.7972376796967370 0.4685203844721088 0.1384701567008632	-0.161467
C	0.4688691943926422 0.6952829305893475 0.8663356001211207	0.093294
C	0.4685203844721088 0.7972376796967370 0.8615298132991346	-0.161468
C	0.5311308756073565 0.3047170694106526 0.8663356001211207	0.093291
C	0.5314795805278917 0.2027623023032618 0.8615298132991346	-0.161466
C	0.6952829305893475 0.5311308756073565 0.8663356001211207	0.093290
C	0.7972376796967370 0.5314795805278917 0.8615298132991346	-0.161466
C	0.3047170694106526 0.4688691943926422 0.8663356001211207	0.093292
C	0.2027623023032618 0.4685203844721088 0.8615298132991346	-0.161468
C	0.5000000000000000 0.1489123643055849 -0.0000000000000000	0.167614
C	0.5000000000000000 0.0448736131599822 -0.0000000000000000	-0.092241
C	0.5000000000000000 0.8510876356944154 -0.0000000000000000	0.167587
C	0.5000000000000000 0.9551263298400238 -0.0000000000000000	-0.092023
C	0.8510876356944154 0.5000000000000000 -0.0000000000000000	0.167615
C	0.9551263298400238 0.5000000000000000 -0.0000000000000000	-0.092242
C	0.1489123643055849 0.5000000000000000 -0.0000000000000000	0.167587
C	0.0448736131599822 0.5000000000000000 -0.0000000000000000	-0.092023
H	0.5557534066370774 0.6526743880503076 0.2396914819156118	0.106056
H	0.5568108367454532 0.8346846155471822 0.2490247690687704	0.131525
H	0.4442465933629226 0.3473255419496938 0.2396914819156118	0.106055
H	0.4431891982545464 0.1653153144528190 0.2490247690687704	0.131525
H	0.3473255419496938 0.5557534066370774 0.2396914819156118	0.106056
H	0.1653153144528190 0.5568108367454532 0.2490247690687704	0.131525
H	0.6526743880503076 0.4442465933629226 0.2396914819156118	0.106056
H	0.8346846155471822 0.4431891982545464 0.2490247690687704	0.131525
H	0.4442465933629226 0.6526743880503076 0.7603085180843880	0.106056
H	0.4431891982545464 0.8346846155471822 0.7509752609312319	0.131529
H	0.5557534066370774 0.3473255419496938 0.7603085180843880	0.106056
H	0.5568108367454532 0.1653153144528190 0.7509752609312319	0.131528
H	0.6526743880503076 0.5557534066370774 0.7603085180843880	0.106056
H	0.8346846155471822 0.5568108367454532 0.7509752609312319	0.131530
H	0.3473255419496938 0.4442465933629226 0.7603085180843880	0.106056
H	0.1653153144528190 0.4431891982545464 0.7509752609312319	0.131527
Co	0.5000000000000000 0.5000000000000000 -0.0000000000000000	0.604312
Ti	0.5000000000000000 0.5000000000000000 0.5000000000000000	2.310816
F	0.5000000000000000 0.5000000000000000 0.7361449072483849	-0.616312
F	0.5000000000000000 0.5000000000000000 0.2638551227516102	-0.616312
F	0.5987197355941994 0.5987197355941994 0.5000000000000000	-0.647985
F	0.4012802994057997 0.5987197355941994 0.5000000000000000	-0.647985
F	0.4012802994057997 0.4012802994057997 0.5000000000000000	-0.647985
F	0.5987197355941994 0.4012802994057997 0.5000000000000000	-0.647985
N	0.5000000000000000 0.3554909581538416 -0.0000000000000000	-0.186926
N	0.5000000000000000 0.6445090068461590 -0.0000000000000000	-0.186926
N	0.6445090068461590 0.5000000000000000 -0.0000000000000000	-0.186927
N	0.3554909581538416 0.5000000000000000 -0.0000000000000000	-0.186927
	  	
