#======================================================================

# CRYSTAL DATA

#----------------------------------------------------------------------

data_VESTA_phase_1


_pd_phase_name                         TIFSIX_14_Co_i
_cell_length_a                         12.96027
_cell_length_b                         12.94734
_cell_length_c                         8.16660
_cell_angle_alpha                      87.01928
_cell_angle_beta                       86.79954
_cell_angle_gamma                      87.63124
_symmetry_space_group_name_H-M         P 1
_symmetry_Int_Tables_number            1

loop_
_symmetry_equiv_pos_as_xyz
   x, y, z

loop_
   _atom_site_label
   _atom_site_fract_x
   _atom_site_fract_y
   _atom_site_fract_z
   _atom_site_charge
C	0.5630365919007043 0.2705835279285466 0.3613346988396475	-0.172528
C	0.4559771959340882 0.2735140535677851 0.3664904219815893	0.096410
C	0.9391554231303236 0.2927963124762684 0.4114571157846174	-0.163606
C	0.0461925734665584 0.2865775427010901 0.3975933408777658	0.101911
C	0.2685782462569021 0.5629100391669734 0.3619461592090161	-0.171551
C	0.2714307595295509 0.4557718586553914 0.3676445182998856	0.097411
C	0.2984697765626786 0.9387719669980713 0.4066964523795379	-0.160874
C	0.2918761956652048 0.0458665318651153 0.3937816832849710	0.100444
C	0.9372026713412219 0.2320309585056950 0.1376782280207260	-0.172181
C	0.0442611329951681 0.2291032922053356 0.1320074371051273	0.095881
C	0.5615679363723264 0.2034119970468228 0.0916935133074412	-0.161480
C	0.4544919130297386 0.2099452221254972 0.1047990684495271	0.101161
C	0.2049573534588879 0.5603215827207274 0.0904638881026984	-0.162943
C	0.2113596858380912 0.4532706626512065 0.1041028386728296	0.100397
C	0.2287467128278971 0.9367108785506143 0.1393428131756397	-0.170669
C	0.2259274351992867 0.0438515270313563 0.1341864830412487	0.097013
C	0.4371742933372595 0.7335499730982474 0.6368872201502697	-0.172332
C	0.5441914849577461 0.7303672809691144 0.6318160840089649	0.098644
C	0.0611510733945984 0.7180711907791065 0.5817690307835187	-0.161605
C	0.9541480039744747 0.7222151738495103 0.5966631150453666	0.101632
C	0.7349032181706601 0.4368851683980441 0.6373095875757971	-0.174032
C	0.7324971547715978 0.5439982460848753 0.6317059465578279	0.100620
C	0.7066827152388504 0.0610198445380344 0.5881487386157201	-0.159328
C	0.7118561830027564 0.9539024140902814 0.6023086825888291	0.100479
C	0.0630607312657619 0.7635715736913015 0.8640721501558354	-0.174068
C	0.9560224661663596 0.7660869942319907 0.8697074379299836	0.098899
C	0.4387705748492028 0.7875927718896176 0.9148160557725261	-0.159569
C	0.5457882561679929 0.7827965173479834 0.9004169638160668	0.102351
C	0.7884497568986486 0.4391437467649701 0.9151166821670221	-0.162517
C	0.7840482903232475 0.5462691021368414 0.9004345266598461	0.101889
C	0.7678494049046762 0.0631454133215348 0.8614350238470866	-0.172341
C	0.7708784503989056 0.9560706169752405 0.8666415272105659	0.099020
C	0.6177670466911288 0.2356492757632968 0.2200691173852300	0.192396
C	0.8827129405772862 0.2635674221406233 0.2813314033290389	0.193276
C	0.2355968233333234 0.6170756308132191 0.2194683614517210	0.193198
C	0.2650179643731668 0.8822764080884322 0.2793871839040281	0.191301
C	0.3825648293503965 0.7617911797313321 0.7823736820102258	0.192112
C	0.1174732758790606 0.7399818322853451 0.7161363595701356	0.194057
C	0.7622672871343624 0.3825953286166179 0.7830007045595893	0.194225
C	0.7362318500308160 0.1175083823841630 0.7181763816966668	0.191831
H	0.6031509863592477 0.2916197636016221 0.4676317114656787	0.115491
H	0.4120519344955034 0.2975789008170632 0.4764664170900945	0.102510
H	0.8997215150629267 0.3193526557139755 0.5233678289717416	0.127168
H	0.0915423429821122 0.3077234686384497 0.4979538027042788	0.106984
H	0.2881283209339093 0.6037909415456287 0.4684372718019251	0.115340
H	0.2940213588607473 0.4121436222835198 0.4783659591162239	0.102236
H	0.3288519972928228 0.8992864927475639 0.5155004235893358	0.126411
H	0.3160365999223941 0.0913368405042961 0.4922303517930856	0.107660
H	0.8967603516041963 0.2135814050208402 0.0302640641497980	0.114935
H	0.0880290502060609 0.2073741479317112 0.0205770042594291	0.102084
H	0.6012685733204304 0.1740110241733381 0.9819705598698047	0.127003
H	0.4092404866298217 0.1866720109345768 0.0056597110885823	0.107519
H	0.1771642775137495 0.5995362248761597 0.9795480937360640	0.126710
H	0.1892996676436396 0.4075454304731866 0.0045274235897216	0.107850
H	0.2067196809108262 0.8961952222999777 0.0339458709902773	0.115570
H	0.2010670469154735 0.0877364969700046 0.0250622836681384	0.102217
H	0.3970404516996121 0.7172815799947673 0.5279562873216380	0.112421
H	0.5882967651950789 0.7097342685014962 0.5202346898519675	0.101597
H	0.1006215137824886 0.6986628977858199 0.4659141053358465	0.126301
H	0.9089495964497714 0.7055824574253085 0.4937069471767696	0.105998
H	0.7188833203716062 0.3962122772370886 0.5286629115326970	0.112578
H	0.7127343552903957 0.5879229435069808 0.5198517431580383	0.101097
H	0.6803505284306921 0.1004737776026341 0.4764741163795750	0.126892
H	0.6898832045173378 0.9083690938124224 0.5024939107854833	0.105873
H	0.1033971441781004 0.7767442402039223 0.9741609651996835	0.111846
H	0.9119927639299775 0.7830580964462306 0.9830928134378543	0.101074
H	0.3991557009027084 0.8108785264958077 0.0285289264329074	0.126221
H	0.5909136889445625 0.8025355576807767 0.0018337084671107	0.105897
H	0.8112777355415948 0.3997671079673779 0.0289478651647070	0.127229
H	0.8035653374712716 0.5917796368786633 0.0017632016715437	0.105530
H	0.7866767226714357 0.1036927096333907 0.9687631658634200	0.113132
H	0.7938628385656734 0.9121311054990127 0.9767889187442345	0.102708
N	0.7741972197402893 0.2731219266606260 0.3023821297674849	-0.113132
N	0.2755519049790900 0.7737102591435809 0.2988837810996917	-0.116043
N	0.7263070696007039 0.2256806752320178 0.1994615855688908	-0.115022
N	0.2254794444723281 0.7256064415595654 0.1994168759950110	-0.115535
N	0.2258864510420269 0.7326097062634880 0.6925774591368900	-0.110666
N	0.7282276032345977 0.2260875299629119 0.6960365283055682	-0.111248
N	0.2740820024234828 0.7697600155426799 0.8056254945521639	-0.109545
N	0.7695952198912509 0.2740653748082361 0.8055017576842852	-0.113455
N	0.4018276733378597 0.2452075538765235 0.2397971002515303	-0.179198
N	0.0986313485921188 0.2543679698374579 0.2603265391620402	-0.179282
N	0.2449289979848780 0.4011221585096960 0.2402105639905883	-0.180355
N	0.2554391274656037 0.0982585383992779 0.2599052290255215	-0.179471
N	0.5983748625867321 0.7537124720841396 0.7615398050794503	-0.179805
N	0.9016794684875433 0.7467405121071868 0.7381377542977807	-0.178700
N	0.7554139931803713 0.5985254068436631 0.7614633782366625	-0.179227
N	0.7444965699410904 0.9016286734805388 0.7388072680879119	-0.178384
F	0.3559787294935947 0.1426614071609969 0.7491990900341405	-0.641955
F	0.1455009200008755 0.3547290698704640 0.7511114809523385	-0.641181
F	0.3521121739726999 0.3500387548676437 0.7132252266985956	-0.636803
F	0.1485671142833992 0.1481909501269401 0.7859189180722215	-0.637284
F	0.6419126717324988 0.8552243207861910 0.2515149784015790	-0.639070
F	0.8561312115434913 0.6471637691132034 0.2480659229763986	-0.638235
F	0.6492837761201337 0.6479416578427365 0.2824040225273753	-0.636649
F	0.8493148258304525 0.8536340049838850 0.2178644709602706	-0.636391
F	0.2456534533165709 0.2438659328799467 0.5146046361211712	-0.622174
F	0.2560984744019561 0.2538754084001680 -0.0149628263935061	-0.622511
F	0.7531289233493329 0.7546345091227055 0.4853537191684324	-0.618960
F	0.7451896076635304 0.7472655883003003 0.0146542504977661	-0.619278
Ti	0.2507714288888552 0.2487036991527731 0.7497787936997431	2.309053
Ti	0.7489975852920390 0.7511567732941808 0.2500913402932635	2.304932
Co	0.2502338497958791 0.2497088642851213 0.2499866361330792	0.629771
Co	0.7500150870576513 0.7501199531113211 0.7500220278838786	0.626788
	  	
