#======================================================================

# CRYSTAL DATA

#----------------------------------------------------------------------

data_VESTA_phase_1


_pd_phase_name                         TIFSIX_2_Cd_i
_cell_length_a                         14.29793
_cell_length_b                         14.29793
_cell_length_c                         8.31825
_cell_angle_alpha                      90
_cell_angle_beta                       90
_cell_angle_gamma                      90
_symmetry_space_group_name_H-M         P 1
_symmetry_Int_Tables_number            1

loop_
_symmetry_equiv_pos_as_xyz
   x, y, z

loop_
   _atom_site_label
   _atom_site_fract_x
   _atom_site_fract_y
   _atom_site_fract_z
   _atom_site_charge
C	0.0000000000000000 0.3080678878641421 0.3544595418974533	-0.158416
C	0.0000000000000000 0.2110451386760559 0.3600558998481459	0.107940
C	0.5000000000000000 0.8080678878641420 0.8544595708974526	-0.158416
C	0.5000000000000000 0.7110451566760573 0.8600558998481460	0.107940
C	0.0000000000000000 0.6919321121358580 0.3544595418974533	-0.158419
C	0.0000000000000000 0.7889548433239427 0.3600558998481459	0.107942
C	0.5000000000000000 0.1919321291358556 0.8544595708974526	-0.158419
C	0.5000000000000000 0.2889548433239426 0.8600558998481460	0.107942
C	0.6919321121358580 0.0000000000000000 0.3544595418974533	-0.158417
C	0.7889548433239427 0.0000000000000000 0.3600558998481459	0.107945
C	0.1919321291358556 0.5000000000000000 0.8544595708974526	-0.158417
C	0.2889548433239426 0.5000000000000000 0.8600558998481460	0.107945
C	0.3080678878641421 0.0000000000000000 0.3544595418974533	-0.158419
C	0.2110451386760559 0.0000000000000000 0.3600558998481459	0.107947
C	0.8080678878641420 0.5000000000000000 0.8544595708974526	-0.158419
C	0.7110451566760573 0.5000000000000000 0.8600558998481460	0.107947
C	0.0000000000000000 0.3080678878641421 0.6455404291025474	-0.158408
C	0.0000000000000000 0.2110451386760559 0.6399441001518540	0.107941
C	0.5000000000000000 0.8080678878641420 0.1455404581025468	-0.158408
C	0.5000000000000000 0.7110451566760573 0.1399440851518565	0.107941
C	0.0000000000000000 0.6919321121358580 0.6455404291025474	-0.158410
C	0.0000000000000000 0.7889548433239427 0.6399441001518540	0.107944
C	0.5000000000000000 0.1919321291358556 0.1455404581025468	-0.158411
C	0.5000000000000000 0.2889548433239426 0.1399440851518565	0.107944
C	0.3080678878641421 0.0000000000000000 0.6455404291025474	-0.158411
C	0.2110451386760559 0.0000000000000000 0.6399441001518540	0.107949
C	0.8080678878641420 0.5000000000000000 0.1455404581025468	-0.158411
C	0.7110451566760573 0.5000000000000000 0.1399440851518565	0.107949
C	0.6919321121358580 0.0000000000000000 0.6455404291025474	-0.158409
C	0.7889548433239427 0.0000000000000000 0.6399441001518540	0.107946
C	0.1919321291358556 0.5000000000000000 0.1455404581025468	-0.158409
C	0.2889548433239426 0.5000000000000000 0.1399440851518565	0.107946
C	0.0000000000000000 0.4573626155656164 0.5000000000000000	-0.096183
C	0.0000000000000000 0.3585128152881970 0.5000000000000000	0.164609
C	0.5000000000000000 0.9573626495656192 -0.0000000000000000	-0.096183
C	0.5000000000000000 0.8585127802881979 -0.0000000000000000	0.164609
C	0.0000000000000000 0.5426373844343836 0.5000000000000000	-0.095924
C	0.0000000000000000 0.6414872197118021 0.5000000000000000	0.164578
C	0.5000000000000000 0.0426373634343784 -0.0000000000000000	-0.095924
C	0.5000000000000000 0.1414872197118024 -0.0000000000000000	0.164578
C	0.5426373844343836 0.0000000000000000 0.5000000000000000	-0.096183
C	0.6414872197118021 0.0000000000000000 0.5000000000000000	0.164609
C	0.0426373634343784 0.5000000000000000 -0.0000000000000000	-0.096184
C	0.1414872197118024 0.5000000000000000 -0.0000000000000000	0.164610
C	0.4573626155656164 0.0000000000000000 0.5000000000000000	-0.095924
C	0.3585128152881970 0.0000000000000000 0.5000000000000000	0.164578
C	0.9573626495656192 0.5000000000000000 -0.0000000000000000	-0.095924
C	0.8585127802881979 0.5000000000000000 -0.0000000000000000	0.164578
H	0.0000000000000000 0.3442819909226066 0.2392596430036188	0.121212
H	0.0000000000000000 0.1693819133588171 0.2500273616553653	0.101212
H	0.5000000000000000 0.8442819909226065 0.7392596430036190	0.121212
H	0.5000000000000000 0.6693818603588166 0.7500273916553681	0.101212
H	0.0000000000000000 0.6557180090773935 0.2392596430036188	0.121211
H	0.0000000000000000 0.8306181396411834 0.2500273616553653	0.101212
H	0.5000000000000000 0.1557180090773936 0.7392596430036190	0.121211
H	0.5000000000000000 0.3306181046411773 0.7500273916553681	0.101212
H	0.6557180090773935 0.0000000000000000 0.2392596430036188	0.121213
H	0.8306181396411834 0.0000000000000000 0.2500273616553653	0.101210
H	0.1557180090773936 0.5000000000000000 0.7392596430036190	0.121213
H	0.3306181046411773 0.5000000000000000 0.7500273916553681	0.101210
H	0.3442819909226066 0.0000000000000000 0.2392596430036188	0.121211
H	0.1693819133588170 0.0000000000000000 0.2500273616553653	0.101210
H	0.8442819909226065 0.5000000000000000 0.7392596430036190	0.121211
H	0.6693818603588166 0.5000000000000000 0.7500273916553681	0.101210
H	0.0000000000000000 0.3442819909226066 0.7607403569963810	0.121205
H	0.0000000000000000 0.1693819133588170 0.7499725503446342	0.101212
H	0.5000000000000000 0.8442819909226065 0.2607403569963814	0.121205
H	0.5000000000000000 0.6693818603588166 0.2499726383446346	0.101212
H	0.0000000000000000 0.6557180090773935 0.7607403569963810	0.121203
H	0.0000000000000000 0.8306181396411834 0.7499725503446342	0.101212
H	0.5000000000000000 0.1557180090773936 0.2607403569963814	0.121203
H	0.5000000000000000 0.3306181046411773 0.2499726383446346	0.101212
H	0.3442819909226066 0.0000000000000000 0.7607403569963810	0.121203
H	0.1693819133588170 0.0000000000000000 0.7499725503446342	0.101210
H	0.8442819909226065 0.5000000000000000 0.2607403569963814	0.121203
H	0.6693818603588166 0.5000000000000000 0.2499726383446346	0.101210
H	0.6557180090773935 0.0000000000000000 0.7607403569963810	0.121205
H	0.8306181396411834 0.0000000000000000 0.7499725503446342	0.101210
H	0.1557180090773936 0.5000000000000000 0.2607403569963814	0.121205
H	0.3306181046411773 0.5000000000000000 0.2499726383446346	0.101210
Cd	0.0000000000000000 0.0000000000000000 0.5000000000000000	0.851545
Cd	0.5000000000000000 0.5000000000000000 -0.0000000000000000	0.851545
Ti	0.0000000000000000 0.0000000000000000 -0.0000000000000000	2.334507
Ti	0.5000000000000000 0.5000000000000000 0.5000000000000000	2.334507
N	0.0000000000000000 0.1635601013121602 0.5000000000000000	-0.240068
N	0.5000000000000000 0.6635600833121582 -0.0000000000000000	-0.240068
N	0.0000000000000000 0.8364399166878418 0.5000000000000000	-0.240068
N	0.5000000000000000 0.3364399166878413 -0.0000000000000000	-0.240068
N	0.8364399166878418 0.0000000000000000 0.5000000000000000	-0.240070
N	0.3364399166878413 0.5000000000000000 -0.0000000000000000	-0.240070
N	0.1635601013121602 0.0000000000000000 0.5000000000000000	-0.240070
N	0.6635600833121582 0.5000000000000000 -0.0000000000000000	-0.240070
F	0.0000000000000000 0.0000000000000000 0.7683142555871698	-0.623225
F	0.5000000000000000 0.5000000000000000 0.2683143445871737	-0.623225
F	0.0000000000000000 0.0000000000000000 0.2316856704128311	-0.623225
F	0.5000000000000000 0.5000000000000000 0.7316857444128302	-0.623225
F	0.5935719055643675 0.5935719055643675 0.5000000000000000	-0.657271
F	0.5935719055643675 0.4064280944356327 0.5000000000000000	-0.657271
F	0.4064280944356327 0.5935719055643675 0.5000000000000000	-0.657271
F	0.4064280944356327 0.4064280944356327 0.5000000000000000	-0.657271
F	0.0935719225643650 0.0935719225643650 -0.0000000000000000	-0.657271
F	0.9064280944356325 0.9064280944356325 -0.0000000000000000	-0.657271
F	0.9064280944356325 0.0935719225643650 -0.0000000000000000	-0.657271
F	0.0935719225643650 0.9064280944356325 -0.0000000000000000	-0.657271
	  	
