#======================================================================

# CRYSTAL DATA

#----------------------------------------------------------------------

data_VESTA_phase_1


_pd_phase_name                         TIFSIX_4_Co_i
_cell_length_a                         23.23960
_cell_length_b                         20.18831
_cell_length_c                         9.55697
_cell_angle_alpha                      90
_cell_angle_beta                       90
_cell_angle_gamma                      90
_symmetry_space_group_name_H-M         P 1
_symmetry_Int_Tables_number            1

loop_
_symmetry_equiv_pos_as_xyz
   x, y, z

loop_
   _atom_site_label
   _atom_site_fract_x
   _atom_site_fract_y
   _atom_site_fract_z
   _atom_site_charge
C	0.4186986745734253 0.5983944356372017 0.6296060273245984	0.091736
C	0.3746548035119044 0.5521547565735360 0.6278401224503912	-0.162774
C	0.2777906133172460 0.4485057076954045 0.6271194874585696	-0.115628
C	0.2311569736831361 0.4055843979449253 0.6259176343635005	-0.113434
C	0.1284244847537233 0.3184916908482562 0.6248535417210559	-0.162804
C	0.0815749028757261 0.2760179204043380 0.6279591400253394	0.085599
C	0.9186987575734218 0.0983944466372062 0.6296060273245984	0.091750
C	0.8746547615119084 0.0521546985735382 0.6278401224503912	-0.162827
C	0.7777906343172513 0.9485057546954051 0.6271194874585696	-0.115662
C	0.7311569536831349 0.9055844439449219 0.6259176343635005	-0.113431
C	0.6284244847537234 0.8184917378482559 0.6248535417210559	-0.162804
C	0.5815748878757215 0.7760180134043352 0.6279591400253394	0.085599
C	0.5813013254265744 0.4016055183627943 0.1296060353245998	0.091736
C	0.6253452384880916 0.4478452894264681 0.1278401374503886	-0.162775
C	0.7222093656827487 0.5514942453045949 0.1271194954585704	-0.115627
C	0.7688430463168651 0.5944156020550748 0.1259176423635010	-0.113435
C	0.8715755152462766 0.6815083091517444 0.1248535487210598	-0.162803
C	0.9184251121242785 0.7239820335956652 0.1279591550253368	0.085598
C	0.0813013364265790 0.9016056113627986 0.1296060353245998	0.091750
C	0.1253451964880956 0.9478451974264673 0.1278401374503886	-0.162829
C	0.2222094076827519 0.0514942923045955 0.1271194954585704	-0.115661
C	0.2688430053168656 0.0944155790550764 0.1259176423635010	-0.113432
C	0.3715755572462804 0.1815083201517414 0.1248535487210598	-0.162803
C	0.4184251121242786 0.2239821035956640 0.1279591550253368	0.085598
C	0.5813013254265744 0.5983944356372017 0.8703939416754026	0.091736
C	0.6253452384880916 0.5521547565735360 0.8721598465496098	-0.162774
C	0.7222093656827487 0.4485057076954045 0.8728805435414294	-0.115628
C	0.7688430463168651 0.4055843979449253 0.8740823966364986	-0.113435
C	0.8715755152462766 0.3184916908482562 0.8751464892789431	-0.162805
C	0.9184251121242785 0.2760179204043380 0.8720408909746596	0.085599
C	0.0813013364265790 0.0983944466372062 0.8703939416754026	0.091750
C	0.1253451964880956 0.0521546985735382 0.8721598465496098	-0.162828
C	0.2222094076827519 0.9485057546954051 0.8728805435414294	-0.115662
C	0.2688430053168656 0.9055844439449219 0.8740823966364986	-0.113432
C	0.3715755572462804 0.8184917378482559 0.8751464892789431	-0.162805
C	0.4184251121242786 0.7760180134043352 0.8720408909746596	0.085599
C	0.4186986745734253 0.4016055183627943 0.3703939726754009	0.091736
C	0.3746548035119044 0.4478452894264681 0.3721598465496097	-0.162775
C	0.2777906133172460 0.5514942453045949 0.3728805125414305	-0.115627
C	0.2311569736831361 0.5944156020550748 0.3740823346365006	-0.113435
C	0.1284244847537233 0.6815083091517444 0.3751464272789384	-0.162804
C	0.0815749028757261 0.7239820335956652 0.3720408289746617	0.085598
C	0.9186987575734218 0.9016056113627986 0.3703939726754009	0.091750
C	0.8746547615119084 0.9478451974264673 0.3721598465496097	-0.162828
C	0.7777906343172513 0.0514942923045955 0.3728805125414305	-0.115661
C	0.7311569536831349 0.0944155790550764 0.3740823346365006	-0.113432
C	0.6284244847537234 0.1815083201517414 0.3751464272789384	-0.162804
C	0.5815748878757215 0.2239821035956640 0.3720408289746617	0.085598
C	0.5813013254265744 0.4016055183627943 0.3703939726754009	0.091737
C	0.6253452384880916 0.4478452894264681 0.3721598465496097	-0.162775
C	0.7222093656827487 0.5514942453045949 0.3728805125414305	-0.115628
C	0.7688430463168651 0.5944156020550748 0.3740823346365006	-0.113435
C	0.8715755152462766 0.6815083091517444 0.3751464272789384	-0.162805
C	0.9184251121242785 0.7239820335956652 0.3720408289746617	0.085599
C	0.0813013364265790 0.9016056113627986 0.3703939726754009	0.091751
C	0.1253451964880956 0.9478451974264673 0.3721598465496097	-0.162829
C	0.2222094076827519 0.0514942923045955 0.3728805125414305	-0.115661
C	0.2688430053168656 0.0944155790550764 0.3740823346365006	-0.113432
C	0.3715755572462804 0.1815083201517414 0.3751464272789384	-0.162804
C	0.4184251121242786 0.2239821035956640 0.3720408289746617	0.085599
C	0.4186986745734253 0.5983944356372017 0.8703939416754026	0.091737
C	0.3746548035119044 0.5521547565735360 0.8721598465496098	-0.162774
C	0.2777906133172460 0.4485057076954045 0.8728805435414294	-0.115629
C	0.2311569736831361 0.4055843979449253 0.8740823966364986	-0.113434
C	0.1284244847537233 0.3184916908482562 0.8751464892789431	-0.162805
C	0.0815749028757261 0.2760179204043380 0.8720408909746598	0.085600
C	0.9186987575734218 0.0983944466372062 0.8703939416754026	0.091751
C	0.8746547615119084 0.0521546985735382 0.8721598465496098	-0.162827
C	0.7777906343172513 0.9485057546954051 0.8728805435414294	-0.115662
C	0.7311569536831349 0.9055844439449219 0.8740823966364986	-0.113431
C	0.6284244847537234 0.8184917378482559 0.8751464892789431	-0.162805
C	0.5815748878757215 0.7760180134043352 0.8720408909746596	0.085600
C	0.4186986745734253 0.4016055183627943 0.1296060353245998	0.091738
C	0.3746548035119044 0.4478452894264681 0.1278401374503886	-0.162775
C	0.2777906133172460 0.5514942453045949 0.1271194954585704	-0.115628
C	0.2311569736831361 0.5944156020550748 0.1259176423635010	-0.113435
C	0.1284244847537233 0.6815083091517444 0.1248535487210598	-0.162805
C	0.0815749028757261 0.7239820335956652 0.1279591550253368	0.085600
C	0.9186987575734218 0.9016056113627986 0.1296060353245998	0.091751
C	0.8746547615119084 0.9478451974264673 0.1278401374503886	-0.162828
C	0.7777906343172513 0.0514942923045955 0.1271194954585704	-0.115661
C	0.7311569536831349 0.0944155790550764 0.1259176423635010	-0.113432
C	0.6284244847537234 0.1815083201517414 0.1248535487210598	-0.162805
C	0.5815748878757215 0.2239821035956640 0.1279591550253368	0.085600
C	0.5813013254265744 0.5983944356372017 0.6296060273245984	0.091737
C	0.6253452384880916 0.5521547565735360 0.6278401224503912	-0.162774
C	0.7222093656827487 0.4485057076954045 0.6271194874585696	-0.115628
C	0.7688430463168651 0.4055843979449253 0.6259176343635005	-0.113435
C	0.8715755152462766 0.3184916908482562 0.6248535417210559	-0.162806
C	0.9184251121242785 0.2760179204043380 0.6279591400253394	0.085600
C	0.0813013364265790 0.0983944466372062 0.6296060273245984	0.091751
C	0.1253451964880956 0.0521546985735382 0.6278401224503912	-0.162828
C	0.2222094076827519 0.9485057546954051 0.6271194874585696	-0.115662
C	0.2688430053168656 0.9055844439449219 0.6259176343635005	-0.113432
C	0.3715755572462804 0.8184917378482559 0.6248535417210559	-0.162806
C	0.4184251121242786 0.7760180134043352 0.6279591400253394	0.085600
C	0.3501785019142742 0.5249928774063161 0.7500000149999977	0.117314
C	0.3026909726856906 0.4744518483729582 0.7500000149999977	0.074061
C	0.2051293205402833 0.3838044644869509 0.7500000149999977	0.065924
C	0.1540916094718478 0.3403101355420785 0.7500000149999977	0.101009
C	0.8501784599142780 0.0249928604063183 0.7500000149999977	0.117281
C	0.8026910346856886 0.9744518013729582 0.7500000149999977	0.074208
C	0.7051293205402835 0.8838044874869488 0.7500000149999977	0.065923
C	0.6540916094718479 0.8403100665420761 0.7500000149999977	0.101009
C	0.6498214980857256 0.4750071685936805 0.2500000000000000	0.117314
C	0.6973089653143114 0.5255481516270415 0.2500000000000000	0.074060
C	0.7948706794597165 0.6161955595130515 0.2500000000000000	0.065924
C	0.8459084315281591 0.6596898414579234 0.2500000000000000	0.101008
C	0.1498215090857232 0.9750072155936810 0.2500000000000000	0.117282
C	0.1973090483143076 0.0255481546270385 0.2500000000000000	0.074208
C	0.2948706794597167 0.1161955125130508 0.2500000000000000	0.065924
C	0.3459083905281523 0.1596898754579261 0.2500000000000000	0.101009
C	0.6498214980857256 0.5249928774063161 0.7500000149999977	0.117314
C	0.6973089653143114 0.4744518483729582 0.7500000149999977	0.074061
C	0.7948706794597165 0.3838044644869509 0.7500000149999977	0.065924
C	0.8459084315281591 0.3403101355420785 0.7500000149999977	0.101009
C	0.1498215090857232 0.0249928604063183 0.7500000149999977	0.117282
C	0.1973090483143076 0.9744518013729582 0.7500000149999977	0.074209
C	0.2948706794597167 0.8838044874869488 0.7500000149999977	0.065923
C	0.3459083905281523 0.8403100665420761 0.7500000149999977	0.101009
C	0.3501785019142742 0.4750071685936805 0.2500000000000000	0.117314
C	0.3026909726856906 0.5255481516270415 0.2500000000000000	0.074060
C	0.2051293205402833 0.6161955595130515 0.2500000000000000	0.065924
C	0.1540916094718478 0.6596898414579234 0.2500000000000000	0.101008
C	0.8501784599142780 0.9750072155936810 0.2500000000000000	0.117282
C	0.8026910346856886 0.0255481546270385 0.2500000000000000	0.074208
C	0.7051293205402835 0.1161955125130508 0.2500000000000000	0.065924
C	0.6540916094718479 0.1596898754579261 0.2500000000000000	0.101009
H	0.4367801615522430 0.6178935329545152 0.5324737359136585	0.114489
H	0.3611645978181903 0.5392989496003369 0.5238883602687733	0.105894
H	0.2941232104803880 0.4606927221208076 0.5252139291024952	0.086500
H	0.2152703578328728 0.3892989920346067 0.5244054200521296	0.104313
H	0.1443971524840684 0.3333846725867210 0.5225817340039897	0.123818
H	0.0615670581277926 0.2576007821148368 0.5319205700800814	0.115481
H	0.9367801195522393 0.1178935679545148 0.5324737359136585	0.114489
H	0.8611645568181904 0.0392988856003310 0.5238883602687733	0.105905
H	0.7941231894803898 0.9606927221208077 0.5252139291024952	0.086504
H	0.7152703158328699 0.8892989230346114 0.5244054200521296	0.104313
H	0.6443971424840672 0.8333846725867211 0.5225817340039897	0.123818
H	0.5615670891277916 0.7576007591148384 0.5319205700800814	0.115481
H	0.5632198384477572 0.3821064670454845 0.0324737979136568	0.114489
H	0.6388354021818098 0.4607010973996642 0.0238883602687732	0.105894
H	0.7058768105196102 0.5393072318791885 0.0252139911024933	0.086500
H	0.7847296841671301 0.6107009849653880 0.0244053590521276	0.104313
H	0.8556028575159328 0.6666152814132751 0.0225817340039900	0.123817
H	0.9384328698722084 0.7423992408851616 0.0319205390800823	0.115481
H	0.0632198444477576 0.8821064670454848 0.0324737979136568	0.114489
H	0.1388354431818095 0.9607010973996635 0.0238883602687732	0.105906
H	0.2058768105196103 0.0393072748791885 0.0252139911024933	0.086504
H	0.2847296421671271 0.1107010189653907 0.0244053590521276	0.104313
H	0.3556028575159326 0.1666153044132735 0.0225817340039900	0.123817
H	0.4384329108722084 0.2423992178851633 0.0319205390800823	0.115481
H	0.5632198384477572 0.6178935329545152 -0.0324737549136566	0.114489
H	0.6388354021818098 0.5392989496003369 -0.0238883872687791	0.105894
H	0.7058768105196102 0.4606927221208076 -0.0252139471024898	0.086500
H	0.7847296841671301 0.3892989920346067 -0.0244054130521252	0.104313
H	0.8556028575159328 0.3333846725867210 -0.0225817340039900	0.123818
H	0.9384328698722084 0.2576007821148368 -0.0319205770800854	0.115481
H	0.0632198444477576 0.1178935679545148 -0.0324737549136566	0.114489
H	0.1388354431818095 0.0392988856003310 -0.0238883872687791	0.105905
H	0.2058768105196103 0.9606927221208077 -0.0252139471024898	0.086504
H	0.2847296421671271 0.8892989230346114 -0.0244054130521253	0.104313
H	0.3556028575159326 0.8333846725867211 -0.0225817340039900	0.123818
H	0.4384329108722084 0.7576007591148384 -0.0319205770800854	0.115481
H	0.4367801615522430 0.3821064670454845 0.4675262330863422	0.114489
H	0.3611645978181903 0.4607010973996642 0.4761116707312258	0.105894
H	0.2941232104803880 0.5393072318791885 0.4747860398975056	0.086500
H	0.2152703578328728 0.6107009849653880 0.4755945489478719	0.104313
H	0.1443971524840684 0.6666152814132751 0.4774182349960108	0.123817
H	0.0615670581277926 0.7423992408851616 0.4680794299199189	0.115481
H	0.9367801195522393 0.8821064670454848 0.4675262330863422	0.114489
H	0.8611645568181904 0.9607010973996635 0.4761116707312258	0.105905
H	0.7941231894803898 0.0393072748791885 0.4747860398975056	0.086503
H	0.7152703158328699 0.1107010189653907 0.4755945489478719	0.104313
H	0.6443971424840672 0.1666153044132735 0.4774182349960108	0.123817
H	0.5615670891277916 0.2423992178851633 0.4680794299199189	0.115481
H	0.5632198384477572 0.3821064670454845 0.4675262330863422	0.114489
H	0.6388354021818098 0.4607010973996642 0.4761116707312258	0.105894
H	0.7058768105196102 0.5393072318791885 0.4747860398975056	0.086500
H	0.7847296841671301 0.6107009849653880 0.4755945489478719	0.104313
H	0.8556028575159328 0.6666152814132751 0.4774182349960108	0.123817
H	0.9384328698722084 0.7423992408851616 0.4680794299199189	0.115482
H	0.0632198444477576 0.8821064670454848 0.4675262330863422	0.114489
H	0.1388354431818095 0.9607010973996635 0.4761116707312258	0.105905
H	0.2058768105196103 0.0393072748791885 0.4747860398975056	0.086504
H	0.2847296421671271 0.1107010189653907 0.4755945489478719	0.104313
H	0.3556028575159326 0.1666153044132735 0.4774182349960108	0.123817
H	0.4384329108722084 0.2423992178851633 0.4680794299199189	0.115482
H	0.4367801615522430 0.6178935329545152 -0.0324737549136566	0.114490
H	0.3611645978181903 0.5392989496003369 -0.0238883872687791	0.105894
H	0.2941232104803880 0.4606927221208076 -0.0252139471024898	0.086500
H	0.2152703578328728 0.3892989920346067 -0.0244054130521252	0.104313
H	0.1443971524840684 0.3333846725867210 -0.0225817340039900	0.123817
H	0.0615670581277926 0.2576007821148368 -0.0319205770800854	0.115482
H	0.9367801195522393 0.1178935679545148 -0.0324737549136566	0.114489
H	0.8611645568181904 0.0392988856003310 -0.0238883872687791	0.105905
H	0.7941231894803898 0.9606927221208077 -0.0252139471024898	0.086504
H	0.7152703158328699 0.8892989230346114 -0.0244054130521252	0.104313
H	0.6443971424840672 0.8333846725867211 -0.0225817340039900	0.123817
H	0.5615670891277917 0.7576007591148384 -0.0319205770800854	0.115482
H	0.4367801615522430 0.3821064670454845 0.0324737979136568	0.114490
H	0.3611645978181903 0.4607010973996642 0.0238883602687732	0.105894
H	0.2941232104803880 0.5393072318791885 0.0252139911024933	0.086500
H	0.2152703578328728 0.6107009849653880 0.0244053590521276	0.104313
H	0.1443971524840684 0.6666152814132751 0.0225817340039900	0.123817
H	0.0615670581277926 0.7423992408851616 0.0319205390800823	0.115482
H	0.9367801195522393 0.8821064670454848 0.0324737979136568	0.114489
H	0.8611645568181904 0.9607010973996635 0.0238883602687732	0.105905
H	0.7941231894803898 0.0393072748791885 0.0252139911024933	0.086504
H	0.7152703158328699 0.1107010189653907 0.0244053590521276	0.104313
H	0.6443971424840672 0.1666153044132735 0.0225817340039900	0.123817
H	0.5615670891277917 0.2423992178851633 0.0319205390800823	0.115482
H	0.5632198384477572 0.6178935329545152 0.5324737359136585	0.114490
H	0.6388354021818098 0.5392989496003369 0.5238883602687733	0.105894
H	0.7058768105196102 0.4606927221208076 0.5252139291024952	0.086500
H	0.7847296841671301 0.3892989920346067 0.5244054200521296	0.104313
H	0.8556028575159328 0.3333846725867210 0.5225817340039897	0.123817
H	0.9384328698722084 0.2576007821148368 0.5319205700800814	0.115482
H	0.0632198444477576 0.1178935679545148 0.5324737359136585	0.114489
H	0.1388354431818095 0.0392988856003310 0.5238883602687733	0.105905
H	0.2058768105196103 0.9606927221208077 0.5252139291024952	0.086504
H	0.2847296421671271 0.8892989230346114 0.5244054200521296	0.104313
H	0.3556028575159326 0.8333846725867211 0.5225817340039897	0.123817
H	0.4384329108722084 0.7576007591148384 0.5319205700800814	0.115482
Co	0.5000000000000000 0.6880040621278436 0.7500000149999977	0.585592
Co	-0.0000000000000000 0.1880041201278409 0.7500000149999977	0.585593
Co	0.5000000000000000 0.3119958678721580 0.2500000000000000	0.585592
Co	-0.0000000000000000 0.8119959378721564 0.2500000000000000	0.585592
F	0.5000000000000000 0.6845833434533284 0.4576742661225157	-0.655095
F	-0.0000000000000000 0.1845833784533277 0.4576742661225157	-0.655095
F	0.5000000000000000 0.3154166335466664 0.9576742661225153	-0.655095
F	-0.0000000000000000 0.8154166565466716 0.9576742661225153	-0.655095
F	0.5000000000000000 0.6845833434533284 0.0423257198774835	-0.655095
F	-0.0000000000000000 0.1845833784533277 0.0423257198774835	-0.655095
F	0.5000000000000000 0.3154166335466664 0.5423257038774822	-0.655095
F	-0.0000000000000000 0.8154166565466716 0.5423257038774822	-0.655095
F	0.4420789710281745 0.7490114700130411 0.2500000000000000	-0.670333
F	0.5574021547398317 0.6165007848036266 0.2500000000000000	-0.662532
F	0.9420789710281742 0.2490114700130410 0.2500000000000000	-0.670333
F	0.0574021757398373 0.1165007848036269 0.2500000000000000	-0.662532
F	0.5579209879718260 0.2509885069869606 0.7500000149999977	-0.670332
F	0.4425978452601683 0.3834992151963731 0.7500000149999977	-0.662531
F	0.0579210399718301 0.7509885299869589 0.7500000149999977	-0.670332
F	0.9425978452601683 0.8834992151963734 0.7500000149999977	-0.662532
F	0.5579209879718260 0.7490114700130411 0.2500000000000000	-0.670333
F	0.4425978452601683 0.6165007848036266 0.2500000000000000	-0.662532
F	0.0579210399718301 0.2490114700130410 0.2500000000000000	-0.670333
F	0.9425978452601683 0.1165007848036269 0.2500000000000000	-0.662532
F	0.4420789710281745 0.2509885069869606 0.7500000149999977	-0.670332
F	0.5574021547398317 0.3834992151963731 0.7500000149999977	-0.662531
F	0.9420789710281742 0.7509885299869589 0.7500000149999977	-0.670332
F	0.0574021757398373 0.8834992151963734 0.7500000149999977	-0.662532
N	0.4410741935905259 0.6213637402305270 0.7500000149999977	-0.185218
N	0.5591082524533136 0.7544103966936950 0.7500000149999977	-0.194242
N	0.9410741525905187 0.1213637282305264 0.7500000149999977	-0.185221
N	0.0591082264533122 0.2544103736936897 0.7500000149999977	-0.194243
N	0.5589258064094743 0.3786362597694727 0.2500000000000000	-0.185218
N	0.4408917475466855 0.2455896263063103 0.2500000000000000	-0.194242
N	0.0589258064094741 0.8786362597694730 0.2500000000000000	-0.185221
N	0.9408917885466862 0.7455896033063050 0.2500000000000000	-0.194242
N	0.5589258064094743 0.6213637402305270 0.7500000149999977	-0.185218
N	0.4408917475466855 0.7544103966936950 0.7500000149999977	-0.194242
N	0.0589258064094741 0.1213637282305264 0.7500000149999977	-0.185221
N	0.9408917885466862 0.2544103736936897 0.7500000149999977	-0.194242
N	0.4410741935905259 0.3786362597694727 0.2500000000000000	-0.185217
N	0.5591082524533136 0.2455896263063103 0.2500000000000000	-0.194242
N	0.9410741525905187 0.8786362597694730 0.2500000000000000	-0.185221
N	0.0591082264533122 0.7455896033063050 0.2500000000000000	-0.194241
Ti	0.5000000000000000 0.6831418931390263 0.2500000000000000	2.339874
Ti	-0.0000000000000000 0.1831419171390283 0.2500000000000000	2.339874
Ti	0.5000000000000000 0.3168580598609734 0.7500000149999977	2.339874
Ti	-0.0000000000000000 0.8168581068609737 0.7500000149999977	2.339874
	  	
