#======================================================================

# CRYSTAL DATA

#----------------------------------------------------------------------

data_VESTA_phase_1


_pd_phase_name                         TIFSIX_6_Co_i
_cell_length_a                         17.42319
_cell_length_b                         17.42319
_cell_length_c                         15.89760
_cell_angle_alpha                      90
_cell_angle_beta                       90
_cell_angle_gamma                      90
_symmetry_space_group_name_H-M         P 1
_symmetry_Int_Tables_number            1

loop_
_symmetry_equiv_pos_as_xyz
   x, y, z

loop_
   _atom_site_label
   _atom_site_fract_x
   _atom_site_fract_y
   _atom_site_fract_z
   _atom_site_charge
N	0.2440390516361796 0.1382276088800570 0.1280250990437884	-0.194900
N	0.2559609483638207 0.3617724051199440 0.1280250990437884	-0.194899
N	0.3617724051199440 0.2440390516361796 0.1280250990437884	-0.194899
N	0.1382276088800570 0.2559609483638207 0.1280250990437884	-0.194899
N	0.7559609213638221 0.6382276218800622 0.3719748859562139	-0.194900
N	0.7440390786361779 0.8617723781199378 0.3719748859562139	-0.194899
N	0.6382276218800622 0.7440390786361779 0.3719748859562139	-0.194899
N	0.8617723781199378 0.7559609213638221 0.3719748859562139	-0.194899
N	0.7559609213638221 0.8617723781199378 0.8719748859562140	-0.194899
N	0.7440390786361779 0.6382276218800622 0.8719748859562140	-0.194901
N	0.6382276218800622 0.7559609213638221 0.8719748859562140	-0.194900
N	0.8617723781199378 0.7440390786361779 0.8719748859562140	-0.194899
N	0.2440390516361796 0.3617724051199440 0.6280251140437860	-0.194900
N	0.2559609483638207 0.1382276088800570 0.6280251140437860	-0.194900
N	0.3617724051199440 0.2559609483638207 0.6280251140437860	-0.194900
N	0.1382276088800570 0.2440390516361796 0.6280251140437860	-0.194900
C	0.2012512846536409 0.1011687695340791 0.1860574074644278	0.094306
C	0.1928878597163926 0.0219927562840377 0.1853177992979735	-0.177438
C	0.2320744528383356 0.9780892077955629 0.1251333166067237	0.109290
C	0.2778087466836230 0.0173898242004118 0.0667693823670047	-0.174372
C	0.2814232405377295 0.0969038871670900 0.0689707938934223	0.096018
C	0.2259763943023157 0.8938096117034141 0.1238198002864481	0.061371
C	0.2915537389157912 0.8489789680385411 0.1207776319727991	-0.174945
C	0.2870525793220990 0.7679434951549043 0.1219203340590766	0.085432
C	0.1464498934795123 0.7791030727360372 0.1245505769881712	-0.123377
C	0.1527994727771070 0.8577717157648075 0.1268485261517989	-0.136715
C	0.2987486753463631 0.3988312434659185 0.1860574074644278	0.094310
C	0.3071121002836042 0.4780072247159643 0.1853177992979735	-0.177438
C	0.2679255471616645 0.5219107922044371 0.1251333166067237	0.109292
C	0.2221912663163746 0.4826101727995845 0.0667693823670047	-0.174372
C	0.2185767734622718 0.4030961198329141 0.0689707938934223	0.096016
C	0.2740236056976841 0.6061903882965859 0.1238198002864481	0.061371
C	0.2084463020842086 0.6510210319614589 0.1207776319727991	-0.174943
C	0.2129473936779023 0.7320565048450957 0.1219203340590766	0.085424
C	0.3535500925204867 0.7208969272639628 0.1245505769881712	-0.123382
C	0.3472005272228930 0.6422282842351925 0.1268485261517989	-0.136713
C	0.3988312434659185 0.2012512846536409 0.1860574074644278	0.094305
C	0.4780072247159643 0.1928878597163926 0.1853177992979735	-0.177437
C	0.5219107922044371 0.2320744528383356 0.1251333166067237	0.109290
C	0.4826101727995845 0.2778087466836230 0.0667693823670047	-0.174371
C	0.4030961198329141 0.2814232405377295 0.0689707938934223	0.096016
C	0.6061903882965859 0.2259763943023157 0.1238198002864481	0.061372
C	0.6510210319614589 0.2915537389157912 0.1207776319727991	-0.174944
C	0.7320565048450957 0.2870525793220990 0.1219203340590766	0.085432
C	0.7208969272639628 0.1464498934795123 0.1245505769881712	-0.123377
C	0.6422282842351925 0.1527994727771070 0.1268485261517989	-0.136714
C	0.1011687695340791 0.2987486753463631 0.1860574074644278	0.094311
C	0.0219927562840377 0.3071121002836042 0.1853177992979735	-0.177438
C	0.9780892077955629 0.2679255471616645 0.1251333166067237	0.109291
C	0.0173898242004118 0.2221912663163746 0.0667693823670047	-0.174373
C	0.0969038871670900 0.2185767734622718 0.0689707938934223	0.096017
C	0.8938096117034141 0.2740236056976841 0.1238198002864481	0.061371
C	0.8489789680385411 0.2084463020842086 0.1207776319727991	-0.174945
C	0.7679434951549043 0.2129473936779023 0.1219203340590766	0.085424
C	0.7791030727360372 0.3535500925204867 0.1245505769881712	-0.123382
C	0.8577717157648075 0.3472005272228930 0.1268485261517989	-0.136714
C	0.7987487283463566 0.6011687565340816 0.3139426085355734	0.094313
C	0.8071121532836050 0.5219927212840314 0.3146821697020275	-0.177439
C	0.7679255471616642 0.4780892077955628 0.3748666513932737	0.109279
C	0.7221912263163786 0.5173898812004128 0.4332306216329956	-0.174373
C	0.7185767334622685 0.5969039341670903 0.4310292461065740	0.096017
C	0.7740236856976836 0.3938096647034148 0.3761801917135513	0.061419
C	0.7084462880842076 0.3489789150385402 0.3792223600272004	-0.174954
C	0.7129474206779010 0.2679434151549047 0.3780796659409235	0.085425
C	0.8535501195204921 0.2791030457360382 0.3754494070118276	-0.123337
C	0.8472004742228919 0.3577716897648047 0.3731515058482038	-0.136734
C	0.7012512716536434 0.8988312434659184 0.3139426085355734	0.094310
C	0.6928878467163950 0.9780072247159641 0.3146821697020275	-0.177440
C	0.7320744528383358 0.0219107982044376 0.3748666513932737	0.109280
C	0.7778087736836214 0.9826101727995845 0.4332306216329956	-0.174372
C	0.7814232665377315 0.9030961728329150 0.4310292461065740	0.096016
C	0.7259763143023164 0.1061903622965838 0.3761801917135513	0.061419
C	0.7915537119157924 0.1510210719614551 0.3792223600272004	-0.174954
C	0.7870525793220990 0.2320565578450967 0.3780796659409235	0.085417
C	0.6464498804795079 0.2208969412639643 0.3754494070118276	-0.123342
C	0.6527995257771081 0.1422282842351931 0.3731515058482038	-0.136731
C	0.6011687565340816 0.7012512716536434 0.3139426085355734	0.094313
C	0.5219927212840314 0.6928878467163950 0.3146821697020275	-0.177441
C	0.4780892077955628 0.7320744528383358 0.3748666513932737	0.109280
C	0.5173898812004128 0.7778087736836214 0.4332306216329956	-0.174371
C	0.5969039341670903 0.7814232665377315 0.4310292461065740	0.096016
C	0.3938096647034148 0.7259763143023164 0.3761801917135513	0.061419
C	0.3489789150385402 0.7915537119157924 0.3792223600272004	-0.174955
C	0.2679434151549047 0.7870525793220990 0.3780796659409235	0.085425
C	0.2791030457360382 0.6464498804795079 0.3754494070118276	-0.123337
C	0.3577716897648047 0.6527995257771081 0.3731515058482038	-0.136734
C	0.8988312434659184 0.7987487283463566 0.3139426085355734	0.094311
C	0.9780072247159641 0.8071121532836050 0.3146821697020275	-0.177438
C	0.0219107982044376 0.7679255471616642 0.3748666513932737	0.109279
C	0.9826101727995845 0.7221912263163786 0.4332306216329956	-0.174373
C	0.9030961728329150 0.7185767334622685 0.4310292461065740	0.096017
C	0.1061903622965838 0.7740236856976836 0.3761801917135513	0.061420
C	0.1510210719614551 0.7084462880842076 0.3792223600272004	-0.174954
C	0.2320565578450967 0.7129474206779010 0.3780796659409235	0.085417
C	0.2208969412639643 0.8535501195204921 0.3754494070118276	-0.123342
C	0.1422282842351931 0.8472004742228919 0.3731515058482038	-0.136732
C	0.7987487283463566 0.8988312434659184 0.8139425765355708	0.094310
C	0.8071121532836050 0.9780072247159641 0.8146822327020291	-0.177438
C	0.7679255471616642 0.0219107982044376 0.8748667153932718	0.109280
C	0.7221912263163786 0.9826101727995845 0.9332305906329967	-0.174372
C	0.7185767334622685 0.9030961728329150 0.9310292141065711	0.096015
C	0.7740236856976836 0.1061903622965838 0.8761801917135513	0.061421
C	0.7084462880842076 0.1510210719614551 0.8792223920272029	-0.174953
C	0.7129474206779010 0.2320565578450967 0.8780796979409189	0.085413
C	0.8535501195204921 0.2208969412639643 0.8754494700118289	-0.123295
C	0.8472004742228919 0.1422282842351931 0.8731515378481990	-0.136749
C	0.7012512716536434 0.6011687565340816 0.8139425765355708	0.094312
C	0.6928878467163950 0.5219927212840314 0.8146822327020291	-0.177439
C	0.7320744528383358 0.4780892077955628 0.8748667153932718	0.109279
C	0.7778087736836214 0.5173898812004128 0.9332305906329967	-0.174371
C	0.7814232665377315 0.5969039341670903 0.9310292141065711	0.096017
C	0.7259763143023164 0.3938096647034148 0.8761801917135513	0.061421
C	0.7915537119157924 0.3489789150385402 0.8792223920272029	-0.174955
C	0.7870525793220990 0.2679434151549047 0.8780796979409189	0.085406
C	0.6464498804795079 0.2791030457360382 0.8754494700118289	-0.123299
C	0.6527995257771081 0.3577716897648047 0.8731515378481990	-0.136749
C	0.6011687565340816 0.7987487283463566 0.8139425765355708	0.094311
C	0.5219927212840314 0.8071121532836050 0.8146822327020291	-0.177438
C	0.4780892077955628 0.7679255471616642 0.8748667153932718	0.109280
C	0.5173898812004128 0.7221912263163786 0.9332305906329967	-0.174372
C	0.5969039341670903 0.7185767334622685 0.9310292141065711	0.096017
C	0.3938096647034148 0.7740236856976836 0.8761801917135513	0.061421
C	0.3489789150385402 0.7084462880842076 0.8792223920272029	-0.174955
C	0.2679434151549047 0.7129474206779010 0.8780796979409189	0.085413
C	0.2791030457360382 0.8535501195204921 0.8754494700118289	-0.123296
C	0.3577716897648047 0.8472004742228919 0.8731515378481990	-0.136750
C	0.8988312434659184 0.7012512716536434 0.8139425765355708	0.094312
C	0.9780072247159641 0.6928878467163950 0.8146822327020291	-0.177439
C	0.0219107982044376 0.7320744528383358 0.8748667153932718	0.109279
C	0.9826101727995845 0.7778087736836214 0.9332305906329967	-0.174371
C	0.9030961728329150 0.7814232665377315 0.9310292141065711	0.096016
C	0.1061903622965838 0.7259763143023164 0.8761801917135513	0.061421
C	0.1510210719614551 0.7915537119157924 0.8792223920272029	-0.174954
C	0.2320565578450967 0.7870525793220990 0.8780796979409189	0.085406
C	0.2208969412639643 0.6464498804795079 0.8754494700118289	-0.123299
C	0.1422282842351931 0.6527995257771081 0.8731515378481990	-0.136748
C	0.2012512846536409 0.3988312434659185 0.6860574234644292	0.094304
C	0.1928878597163926 0.4780072247159643 0.6853177672979709	-0.177439
C	0.2320744528383356 0.5219107922044371 0.6251332846067282	0.109296
C	0.2778087466836230 0.4826101727995845 0.5667694093670033	-0.174372
C	0.2814232405377295 0.4030961198329141 0.5689707858934289	0.096016
C	0.2259763943023157 0.6061903882965859 0.6238198082864487	0.061361
C	0.2915537389157912 0.6510210319614589 0.6207776079727971	-0.174939
C	0.2870525793220990 0.7320565048450957 0.6219203020590811	0.085411
C	0.1464498934795123 0.7208969272639628 0.6245505299881711	-0.123298
C	0.1527994727771070 0.6422282842351925 0.6268484621518010	-0.136740
C	0.2987486753463631 0.1011687695340791 0.6860574234644292	0.094313
C	0.3071121002836042 0.0219927562840377 0.6853177672979709	-0.177440
C	0.2679255471616645 0.9780892077955629 0.6251332846067282	0.109295
C	0.2221912663163746 0.0173898242004118 0.5667694093670033	-0.174373
C	0.2185767734622718 0.0969038871670900 0.5689707858934289	0.096017
C	0.2740236056976841 0.8938096117034141 0.6238198082864487	0.061361
C	0.2084463020842086 0.8489789680385411 0.6207776079727971	-0.174938
C	0.2129473936779023 0.7679434951549043 0.6219203020590811	0.085404
C	0.3535500925204867 0.7791030727360372 0.6245505299881711	-0.123301
C	0.3472005272228930 0.8577717157648075 0.6268484621518010	-0.136741
C	0.3988312434659185 0.2987486753463631 0.6860574234644292	0.094310
C	0.4780072247159643 0.3071121002836042 0.6853177672979709	-0.177438
C	0.5219107922044371 0.2679255471616645 0.6251332846067282	0.109295
C	0.4826101727995845 0.2221912663163746 0.5667694093670033	-0.174372
C	0.4030961198329141 0.2185767734622718 0.5689707858934289	0.096017
C	0.6061903882965859 0.2740236056976841 0.6238198082864487	0.061361
C	0.6510210319614589 0.2084463020842086 0.6207776079727971	-0.174938
C	0.7320565048450957 0.2129473936779023 0.6219203020590811	0.085412
C	0.7208969272639628 0.3535500925204867 0.6245505299881711	-0.123297
C	0.6422282842351925 0.3472005272228930 0.6268484621518010	-0.136741
C	0.1011687695340791 0.2012512846536409 0.6860574234644292	0.094306
C	0.0219927562840377 0.1928878597163926 0.6853177672979709	-0.177439
C	0.9780892077955629 0.2320744528383356 0.6251332846067282	0.109296
C	0.0173898242004118 0.2778087466836230 0.5667694093670033	-0.174371
C	0.0969038871670900 0.2814232405377295 0.5689707858934289	0.096017
C	0.8938096117034141 0.2259763943023157 0.6238198082864487	0.061360
C	0.8489789680385411 0.2915537389157912 0.6207776079727971	-0.174939
C	0.7679434951549043 0.2870525793220990 0.6219203020590811	0.085404
C	0.7791030727360372 0.1464498934795123 0.6245505299881711	-0.123301
C	0.8577717157648075 0.1527994727771070 0.6268484621518010	-0.136741
H	0.1746654786223114 0.1365759965387815 0.2345789902931114	0.108834
H	0.1576926690327673 0.9944329625060409 0.2332494005475091	0.117632
H	0.3089162213625398 0.9861681429924676 0.0181384357272871	0.117716
H	0.3134006073861023 0.1293097754522314 0.0219256214040871	0.107340
H	0.3479716458711425 0.8763929103821326 0.1200812639881425	0.108869
H	0.0900500643414561 0.7518094451796827 0.1252254865597592	0.109512
H	0.1013531983412282 0.8934562987419401 0.1290662653011977	0.101614
H	0.3253344943776898 0.3634240304612244 0.2345789902931114	0.108827
H	0.3423073709672291 0.5055670374939591 0.2332494005475091	0.117632
H	0.1910837916374576 0.5138318570075324 0.0181384357272871	0.117717
H	0.1865993926138976 0.3706902245477685 0.0219256214040871	0.107339
H	0.1520283681288586 0.6236070896178674 0.1200812639881425	0.108871
H	0.4099499286585398 0.7481905548203173 0.1252254865597592	0.109515
H	0.3986468146587763 0.6065437012580599 0.1290662653011977	0.101615
H	0.3634240304612244 0.1746654786223114 0.2345789902931114	0.108833
H	0.5055670374939591 0.1576926690327673 0.2332494005475091	0.117633
H	0.5138318570075324 0.3089162213625398 0.0181384357272871	0.117717
H	0.3706902245477685 0.3134006073861023 0.0219256214040871	0.107339
H	0.6236070896178674 0.3479716458711425 0.1200812639881425	0.108871
H	0.7481905548203173 0.0900500643414561 0.1252254865597592	0.109512
H	0.6065437012580599 0.1013531983412282 0.1290662653011977	0.101616
H	0.1365759965387815 0.3253344943776898 0.2345789902931114	0.108828
H	0.9944329625060409 0.3423073709672291 0.2332494005475091	0.117631
H	0.9861681429924676 0.1910837916374576 0.0181384357272871	0.117717
H	0.1293097754522314 0.1865993926138976 0.0219256214040871	0.107340
H	0.8763929103821326 0.1520283681288586 0.1200812639881425	0.108871
H	0.7518094451796827 0.4099499286585398 0.1252254865597592	0.109516
H	0.8934562987419401 0.3986468146587763 0.1290662653011977	0.101616
H	0.8253344943776902 0.6365760235387805 0.2654210257068902	0.108828
H	0.8423072899672328 0.4944330165060380 0.2667505994524910	0.117633
H	0.6910837786374604 0.4861681429924673 0.4818615662727131	0.117716
H	0.6865994456138983 0.6293098024522301 0.4780743765959127	0.107340
H	0.6520283541288576 0.3763928563821352 0.3799187440118583	0.108870
H	0.9099498756585387 0.2518094721796812 0.3747745054402403	0.109504
H	0.8986467876587777 0.3934563247419349 0.3709337426988032	0.101585
H	0.6746655056223098 0.8634239764612195 0.2654210257068902	0.108827
H	0.6576927100327672 0.0055669994939562 0.2667505994524910	0.117634
H	0.8089162213625396 0.0138318560075291 0.4818615662727131	0.117716
H	0.8134005543861017 0.8706901975477699 0.4780743765959127	0.107339
H	0.8479716458711424 0.1236071566178694 0.3799187440118583	0.108873
H	0.5900500713414605 0.2481905008203130 0.3747745054402403	0.109505
H	0.6013532123412223 0.1065436882580625 0.3709337426988032	0.101582
H	0.6365760235387805 0.6746655056223098 0.2654210257068902	0.108828
H	0.4944330165060380 0.6576927100327672 0.2667505994524910	0.117634
H	0.4861681429924673 0.8089162213625396 0.4818615662727131	0.117716
H	0.6293098024522301 0.8134005543861017 0.4780743765959127	0.107340
H	0.3763928563821352 0.8479716458711424 0.3799187440118583	0.108872
H	0.2518094721796812 0.5900500713414605 0.3747745054402403	0.109503
H	0.3934563247419349 0.6013532123412223 0.3709337426988032	0.101584
H	0.8634239764612195 0.8253344943776902 0.2654210257068902	0.108827
H	0.0055669994939562 0.8423072899672328 0.2667505994524910	0.117633
H	0.0138318560075291 0.6910837786374604 0.4818615662727131	0.117717
H	0.8706901975477699 0.6865994456138983 0.4780743765959127	0.107339
H	0.1236071566178694 0.6520283541288576 0.3799187440118583	0.108873
H	0.2481905008203130 0.9099498756585387 0.3747745054402403	0.109506
H	0.1065436882580625 0.8986467876587777 0.3709337426988032	0.101585
H	0.8253344943776902 0.8634239764612195 0.7654209947068910	0.108827
H	0.8423072899672328 0.0055669994939562 0.7667506144524959	0.117632
H	0.6910837786374604 0.0138318560075291 0.9818615972727119	0.117718
H	0.6865994456138983 0.8706901975477699 0.9780743125959147	0.107339
H	0.6520283541288576 0.1236071566178694 0.8799187120118556	0.108869
H	0.9099498756585387 0.2481905008203130 0.8747744424402389	0.109487
H	0.8986467876587777 0.1065436882580625 0.8709337106987997	0.101586
H	0.6746655056223098 0.6365760235387805 0.7654209947068910	0.108828
H	0.6576927100327672 0.4944330165060380 0.7667506144524959	0.117633
H	0.8089162213625396 0.4861681429924673 0.9818615972727119	0.117717
H	0.8134005543861017 0.6293098024522301 0.9780743125959147	0.107340
H	0.8479716458711424 0.3763928563821352 0.8799187120118556	0.108871
H	0.5900500713414605 0.2518094721796812 0.8747744424402389	0.109487
H	0.6013532123412223 0.3934563247419349 0.8709337106987997	0.101586
H	0.6365760235387805 0.8253344943776902 0.7654209947068910	0.108828
H	0.4944330165060380 0.8423072899672328 0.7667506144524959	0.117632
H	0.4861681429924673 0.6910837786374604 0.9818615972727119	0.117718
H	0.6293098024522301 0.6865994456138983 0.9780743125959147	0.107340
H	0.3763928563821352 0.6520283541288576 0.8799187120118556	0.108869
H	0.2518094721796812 0.9099498756585387 0.8747744424402389	0.109487
H	0.3934563247419349 0.8986467876587777 0.8709337106987997	0.101587
H	0.8634239764612195 0.6746655056223098 0.7654209947068910	0.108827
H	0.0055669994939562 0.6576927100327672 0.7667506144524959	0.117633
H	0.0138318560075291 0.8089162213625396 0.9818615972727119	0.117718
H	0.8706901975477699 0.8134005543861017 0.9780743125959147	0.107339
H	0.1236071566178694 0.8479716458711424 0.8799187120118556	0.108872
H	0.2481905008203130 0.5900500713414605 0.8747744424402389	0.109487
H	0.1065436882580625 0.6013532123412223 0.8709337106987997	0.101587
H	0.1746654786223114 0.3634240304612244 0.7345790052931090	0.108834
H	0.1576926690327673 0.5055670374939591 0.7332493855475041	0.117633
H	0.3089162213625398 0.5138318570075324 0.5181384337272871	0.117718
H	0.3134006073861023 0.3706902245477685 0.5219256234040871	0.107339
H	0.3479716458711425 0.6236070896178674 0.6200812879881444	0.108872
H	0.0900500643414561 0.7481905548203173 0.6252255575597611	0.109486
H	0.1013531983412282 0.6065437012580599 0.6290662893012003	0.101611
H	0.3253344943776898 0.1365759965387815 0.7345790052931090	0.108828
H	0.3423073709672291 0.9944329625060409 0.7332493855475041	0.117633
H	0.1910837916374576 0.9861681429924676 0.5181384337272871	0.117718
H	0.1865993926138976 0.1293097754522314 0.5219256234040871	0.107340
H	0.1520283681288586 0.8763929103821326 0.6200812879881444	0.108872
H	0.4099499286585398 0.7518094451796827 0.6252255575597611	0.109489
H	0.3986468146587763 0.8934562987419401 0.6290662893012003	0.101614
H	0.3634240304612244 0.3253344943776898 0.7345790052931090	0.108827
H	0.5055670374939591 0.3423073709672291 0.7332493855475041	0.117633
H	0.5138318570075324 0.1910837916374576 0.5181384337272871	0.117719
H	0.3706902245477685 0.1865993926138976 0.5219256234040871	0.107339
H	0.6236070896178674 0.1520283681288586 0.6200812879881444	0.108872
H	0.7481905548203173 0.4099499286585398 0.6252255575597611	0.109487
H	0.6065437012580599 0.3986468146587763 0.6290662893012003	0.101614
H	0.1365759965387815 0.1746654786223114 0.7345790052931090	0.108834
H	0.9944329625060409 0.1576926690327673 0.7332493855475041	0.117634
H	0.9861681429924676 0.3089162213625398 0.5181384337272871	0.117718
H	0.1293097754522314 0.3134006073861023 0.5219256234040871	0.107340
H	0.8763929103821326 0.3479716458711425 0.6200812879881444	0.108874
H	0.7518094451796827 0.0900500643414561 0.6252255575597611	0.109487
H	0.8934562987419401 0.1013531983412282 0.6290662893012003	0.101613
F	0.3133453465057812 0.1610536466092325 0.3782451003226885	-0.664605
F	0.1866546804942175 0.3389463533907677 0.3782451003226885	-0.664603
F	0.3389463533907677 0.3133453465057812 0.3782451003226885	-0.664604
F	0.1610536466092325 0.1866546804942175 0.3782451003226885	-0.664604
F	0.6866546534942191 0.6610535926092352 0.1217548996773115	-0.664604
F	0.8133453465057809 0.8389464073907648 0.1217548996773115	-0.664604
F	0.6610535926092352 0.8133453465057809 0.1217548996773115	-0.664602
F	0.8389464073907648 0.6866546534942191 0.1217548996773115	-0.664605
F	0.6866546534942191 0.8389464073907648 0.6217548676773087	-0.664603
F	0.8133453465057809 0.6610535926092352 0.6217548676773087	-0.664604
F	0.6610535926092352 0.6866546534942191 0.6217548676773087	-0.664604
F	0.8389464073907648 0.8133453465057809 0.6217548676773087	-0.664604
F	0.3133453465057812 0.3389463533907677 0.8782451323226913	-0.664604
F	0.1866546804942175 0.1610536466092325 0.8782451323226913	-0.664604
F	0.3389463533907677 0.1866546804942175 0.8782451323226913	-0.664605
F	0.1610536466092325 0.3133453465057812 0.8782451323226913	-0.664603
F	0.2500000000000000 0.2500000000000000 0.2587896564045614	-0.619193
F	0.2500000000000000 0.2500000000000000 0.4980581559983890	-0.620619
F	0.7500000000000000 0.7500000000000000 0.2412103595954401	-0.619191
F	0.7500000000000000 0.7500000000000000 0.0019418510016150	-0.620619
F	0.7500000000000000 0.7500000000000000 0.7412103115954359	-0.619192
F	0.7500000000000000 0.7500000000000000 0.5019418760016136	-0.620619
F	0.2500000000000000 0.2500000000000000 0.7587896884045641	-0.619194
F	0.2500000000000000 0.2500000000000000 -0.0019418760016135	-0.620619
Co	0.2500000000000000 0.2500000000000000 0.1283896193474005	0.614586
Co	0.7500000000000000 0.7500000000000000 0.3716103966526006	0.614588
Co	0.7500000000000000 0.7500000000000000 0.8716103656526022	0.614590
Co	0.2500000000000000 0.2500000000000000 0.6283896343473978	0.614588
Ti	0.2500000000000000 0.2500000000000000 0.3784476727689690	2.338881
Ti	0.7500000000000000 0.7500000000000000 0.1215523352310316	2.338881
Ti	0.7500000000000000 0.7500000000000000 0.6215522962310318	2.338881
Ti	0.2500000000000000 0.2500000000000000 0.8784477037689682	2.338881
	  	
