#======================================================================

# CRYSTAL DATA

#----------------------------------------------------------------------

data_VESTA_phase_1


_pd_phase_name                         TIFSIX_6_Fe_i
_cell_length_a                         17.87902
_cell_length_b                         17.87902
_cell_length_c                         15.57920
_cell_angle_alpha                      90
_cell_angle_beta                       90
_cell_angle_gamma                      90
_symmetry_space_group_name_H-M         P 1
_symmetry_Int_Tables_number            1

loop_
_symmetry_equiv_pos_as_xyz
   x, y, z

loop_
   _atom_site_label
   _atom_site_fract_x
   _atom_site_fract_y
   _atom_site_fract_z
   _atom_site_charge
N	0.2439062876288901 0.1283865397216832 0.1281248307187742	-0.191463
N	0.2560937123711099 0.3716134742783180 0.1281248307187742	-0.191462
N	0.3716134742783180 0.2439062876288901 0.1281248307187742	-0.191463
N	0.1283865397216832 0.2560937123711099 0.1281248307187742	-0.191463
N	0.7560936853711111 0.6283865527216878 0.3718751542812282	-0.191479
N	0.7439063146288889 0.8716134472783122 0.3718751542812282	-0.191503
N	0.6283865527216878 0.7439063146288889 0.3718751542812282	-0.191478
N	0.8716134472783122 0.7560936853711111 0.3718751542812282	-0.191504
N	0.7560936853711111 0.8716134472783122 0.8718751542812282	-0.191504
N	0.7439063146288889 0.6283865527216878 0.8718751542812282	-0.191479
N	0.6283865527216878 0.7560936853711111 0.8718751542812282	-0.191479
N	0.8716134472783122 0.7439063146288889 0.8718751542812282	-0.191504
N	0.2439062876288901 0.3716134742783180 0.6281248457187718	-0.191463
N	0.2560937123711099 0.1283865397216832 0.6281248457187718	-0.191464
N	0.3716134742783180 0.2560937123711099 0.6281248457187718	-0.191464
N	0.1283865397216832 0.2439062876288901 0.6281248457187718	-0.191463
C	0.2005881243301082 0.0922052685597688 0.1853513155712266	0.099003
C	0.1925359973708966 0.0149352352782712 0.1850398964540143	-0.181914
C	0.2325280944996352 0.9721381179627401 0.1251528196772562	0.110246
C	0.2784753442267835 0.0103694773754983 0.0668309243059545	-0.179892
C	0.2817870565358926 0.0879705524811812 0.0695883713678743	0.102050
C	0.2267413298683720 0.8899566580653534 0.1238873407374570	0.060929
C	0.2906410176820834 0.8462899223884186 0.1209797855234748	-0.173451
C	0.2861634996250892 0.7673972358179607 0.1220638021772156	0.084933
C	0.1490234029595512 0.7783802471254425 0.1246347466703706	-0.123630
C	0.1553200653358193 0.8550035769910836 0.1267797712097274	-0.136483
C	0.2994118356698957 0.4077947444402288 0.1853513155712266	0.099002
C	0.3074639626290999 0.4850647457217308 0.1850398964540143	-0.181913
C	0.2674719055003649 0.5278618820372599 0.1251528196772562	0.110247
C	0.2215246687732140 0.4896305196244979 0.0668309243059545	-0.179893
C	0.2182129574641088 0.4120294545188229 0.0695883713678743	0.102048
C	0.2732586701316278 0.6100433419346466 0.1238873407374570	0.060928
C	0.2093590233179164 0.6537100776115814 0.1209797855234748	-0.173445
C	0.2138364733749120 0.7326027641820393 0.1220638021772156	0.084933
C	0.3509765830404476 0.7216197528745575 0.1246347466703706	-0.123668
C	0.3446799346641807 0.6449964230089164 0.1267797712097274	-0.136478
C	0.4077947444402288 0.2005881243301082 0.1853513155712266	0.099002
C	0.4850647457217308 0.1925359973708966 0.1850398964540143	-0.181913
C	0.5278618820372599 0.2325280944996352 0.1251528196772562	0.110246
C	0.4896305196244979 0.2784753442267835 0.0668309243059545	-0.179890
C	0.4120294545188229 0.2817870565358926 0.0695883713678743	0.102048
C	0.6100433419346466 0.2267413298683720 0.1238873407374570	0.060929
C	0.6537100776115814 0.2906410176820834 0.1209797855234748	-0.173450
C	0.7326027641820393 0.2861634996250892 0.1220638021772156	0.084933
C	0.7216197528745575 0.1490234029595512 0.1246347466703706	-0.123630
C	0.6449964230089164 0.1553200653358193 0.1267797712097274	-0.136483
C	0.0922052685597688 0.2994118356698957 0.1853513155712266	0.099001
C	0.0149352352782712 0.3074639626290999 0.1850398964540143	-0.181912
C	0.9721381179627401 0.2674719055003649 0.1251528196772562	0.110247
C	0.0103694773754983 0.2215246687732140 0.0668309243059545	-0.179892
C	0.0879705524811812 0.2182129574641088 0.0695883713678743	0.102049
C	0.8899566580653534 0.2732586701316278 0.1238873407374570	0.060928
C	0.8462899223884186 0.2093590233179164 0.1209797855234748	-0.173447
C	0.7673972358179607 0.2138364733749120 0.1220638021772156	0.084933
C	0.7783802471254425 0.3509765830404476 0.1246347466703706	-0.123668
C	0.8550035769910836 0.3446799346641807 0.1267797712097274	-0.136479
C	0.7994118886698893 0.5922052555597711 0.3146487004287747	0.099006
C	0.8074640156291006 0.5149352002782648 0.3149600725459866	-0.181901
C	0.7674719055003648 0.4721381179627401 0.3748471483227412	0.110207
C	0.7215246287732180 0.5103695343754993 0.4331690796940458	-0.179916
C	0.7182129174641053 0.5879705994811812 0.4304116686321219	0.102123
C	0.7732587501316273 0.3899567110653542 0.3761126512625425	0.060937
C	0.7093590093179150 0.3462898693884180 0.3790202064765245	-0.173455
C	0.7138365003749106 0.2673971558179615 0.3779361978227845	0.084956
C	0.8509766100404534 0.2783802201254439 0.3753652373296281	-0.123670
C	0.8446798816641801 0.3550035509910818 0.3732202607902754	-0.136478
C	0.7005881113301107 0.9077947444402289 0.3146487004287747	0.099012
C	0.6925359843708994 0.9850647457217308 0.3149600725459866	-0.181915
C	0.7325280944996352 0.0278618880372603 0.3748471483227412	0.110237
C	0.7784753712267820 0.9896305196244981 0.4331690796940458	-0.179847
C	0.7817870825358947 0.9120295075188241 0.4304116686321219	0.102094
C	0.7267412498683727 0.1100433159346445 0.3761126512625425	0.060931
C	0.7906409906820850 0.1537101176115772 0.3790202064765245	-0.173455
C	0.7861634996250894 0.2326028171820399 0.3779361978227845	0.084959
C	0.6490233899595466 0.2216197668745585 0.3753652373296281	-0.123669
C	0.6553201183358199 0.1449964230089162 0.3732202607902754	-0.136476
C	0.5922052555597711 0.7005881113301107 0.3146487004287747	0.099005
C	0.5149352002782648 0.6925359843708994 0.3149600725459866	-0.181901
C	0.4721381179627401 0.7325280944996352 0.3748471483227412	0.110209
C	0.5103695343754993 0.7784753712267820 0.4331690796940458	-0.179914
C	0.5879705994811812 0.7817870825358947 0.4304116686321219	0.102123
C	0.3899567110653542 0.7267412498683727 0.3761126512625425	0.060937
C	0.3462898693884180 0.7906409906820850 0.3790202064765245	-0.173456
C	0.2673971558179615 0.7861634996250894 0.3779361978227845	0.084956
C	0.2783802201254439 0.6490233899595466 0.3753652373296281	-0.123670
C	0.3550035509910818 0.6553201183358199 0.3732202607902754	-0.136479
C	0.9077947444402289 0.7994118886698893 0.3146487004287747	0.099012
C	0.9850647457217308 0.8074640156291006 0.3149600725459866	-0.181913
C	0.0278618880372603 0.7674719055003648 0.3748471483227412	0.110235
C	0.9896305196244981 0.7215246287732180 0.4331690796940458	-0.179847
C	0.9120295075188241 0.7182129174641053 0.4304116686321219	0.102093
C	0.1100433159346445 0.7732587501316273 0.3761126512625425	0.060932
C	0.1537101176115772 0.7093590093179150 0.3790202064765245	-0.173455
C	0.2326028171820399 0.7138365003749106 0.3779361978227845	0.084959
C	0.2216197668745585 0.8509766100404534 0.3753652373296281	-0.123669
C	0.1449964230089162 0.8446798816641801 0.3732202607902754	-0.136476
C	0.7994118886698893 0.9077947444402289 0.8146486684287726	0.099013
C	0.8074640156291006 0.9850647457217308 0.8149601355459887	-0.181913
C	0.7674719055003648 0.0278618880372603 0.8748472123227397	0.110236
C	0.7215246287732180 0.9896305196244981 0.9331690486940468	-0.179849
C	0.7182129174641053 0.9120295075188241 0.9304116366321195	0.102093
C	0.7732587501316273 0.1100433159346445 0.8761126512625422	0.060931
C	0.7093590093179150 0.1537101176115772 0.8790202384765270	-0.173453
C	0.7138365003749106 0.2326028171820399 0.8779362298227801	0.084955
C	0.8509766100404534 0.2216197668745585 0.8753653003296301	-0.123671
C	0.8446798816641801 0.1449964230089162 0.8732202927902707	-0.136478
C	0.7005881113301107 0.5922052555597711 0.8146486684287726	0.099005
C	0.6925359843708994 0.5149352002782648 0.8149601355459887	-0.181900
C	0.7325280944996352 0.4721381179627401 0.8748472123227397	0.110207
C	0.7784753712267820 0.5103695343754993 0.9331690486940468	-0.179916
C	0.7817870825358947 0.5879705994811812 0.9304116366321195	0.102125
C	0.7267412498683727 0.3899567110653542 0.8761126512625422	0.060937
C	0.7906409906820850 0.3462898693884180 0.8790202384765270	-0.173456
C	0.7861634996250894 0.2673971558179615 0.8779362298227801	0.084959
C	0.6490233899595466 0.2783802201254439 0.8753653003296301	-0.123669
C	0.6553201183358199 0.3550035509910818 0.8732202927902707	-0.136479
C	0.5922052555597711 0.7994118886698893 0.8146486684287726	0.099004
C	0.5149352002782648 0.8074640156291006 0.8149601355459887	-0.181898
C	0.4721381179627401 0.7674719055003648 0.8748472123227397	0.110208
C	0.5103695343754993 0.7215246287732180 0.9331690486940468	-0.179917
C	0.5879705994811812 0.7182129174641053 0.9304116366321195	0.102123
C	0.3899567110653542 0.7732587501316273 0.8761126512625422	0.060937
C	0.3462898693884180 0.7093590093179150 0.8790202384765270	-0.173456
C	0.2673971558179615 0.7138365003749106 0.8779362298227801	0.084955
C	0.2783802201254439 0.8509766100404534 0.8753653003296301	-0.123671
C	0.3550035509910818 0.8446798816641801 0.8732202927902707	-0.136480
C	0.9077947444402289 0.7005881113301107 0.8146486684287726	0.099013
C	0.9850647457217308 0.6925359843708994 0.8149601355459887	-0.181912
C	0.0278618880372603 0.7325280944996352 0.8748472123227397	0.110235
C	0.9896305196244981 0.7784753712267820 0.9331690486940468	-0.179847
C	0.9120295075188241 0.7817870825358947 0.9304116366321195	0.102093
C	0.1100433159346445 0.7267412498683727 0.8761126512625422	0.060932
C	0.1537101176115772 0.7906409906820850 0.8790202384765270	-0.173455
C	0.2326028171820399 0.7861634996250894 0.8779362298227801	0.084959
C	0.2216197668745585 0.6490233899595466 0.8753653003296301	-0.123668
C	0.1449964230089162 0.6553201183358199 0.8732202927902707	-0.136478
C	0.2005881243301082 0.4077947444402288 0.6853513315712274	0.099001
C	0.1925359973708966 0.4850647457217308 0.6850398644540113	-0.181915
C	0.2325280944996352 0.5278618820372599 0.6251527876772603	0.110247
C	0.2784753442267835 0.4896305196244979 0.5668309513059532	-0.179892
C	0.2817870565358926 0.4120294545188229 0.5695883633678805	0.102049
C	0.2267413298683720 0.6100433419346466 0.6238873487374578	0.060931
C	0.2906410176820834 0.6537100776115814 0.6209797615234730	-0.173449
C	0.2861634996250892 0.7326027641820393 0.6220637701772199	0.084935
C	0.1490234029595512 0.7216197528745575 0.6246346996703699	-0.123626
C	0.1553200653358193 0.6449964230089164 0.6267797072097293	-0.136483
C	0.2994118356698957 0.0922052685597688 0.6853513315712274	0.099004
C	0.3074639626290999 0.0149352352782712 0.6850398644540113	-0.181914
C	0.2674719055003649 0.9721381179627401 0.6251527876772603	0.110246
C	0.2215246687732140 0.0103694773754983 0.5668309513059532	-0.179894
C	0.2182129574641088 0.0879705524811812 0.5695883633678805	0.102050
C	0.2732586701316278 0.8899566580653534 0.6238873487374578	0.060930
C	0.2093590233179164 0.8462899223884186 0.6209797615234730	-0.173444
C	0.2138364733749120 0.7673972358179607 0.6220637701772199	0.084935
C	0.3509765830404476 0.7783802471254425 0.6246346996703699	-0.123663
C	0.3446799346641807 0.8550035769910836 0.6267797072097293	-0.136480
C	0.4077947444402288 0.2994118356698957 0.6853513315712274	0.099001
C	0.4850647457217308 0.3074639626290999 0.6850398644540113	-0.181912
C	0.5278618820372599 0.2674719055003649 0.6251527876772603	0.110246
C	0.4896305196244979 0.2215246687732140 0.5668309513059532	-0.179893
C	0.4120294545188229 0.2182129574641088 0.5695883633678805	0.102049
C	0.6100433419346466 0.2732586701316278 0.6238873487374578	0.060930
C	0.6537100776115814 0.2093590233179164 0.6209797615234730	-0.173444
C	0.7326027641820393 0.2138364733749120 0.6220637701772199	0.084932
C	0.7216197528745575 0.3509765830404476 0.6246346996703699	-0.123665
C	0.6449964230089164 0.3446799346641807 0.6267797072097293	-0.136479
C	0.0922052685597688 0.2005881243301082 0.6853513315712274	0.099002
C	0.0149352352782712 0.1925359973708966 0.6850398644540113	-0.181915
C	0.9721381179627401 0.2325280944996352 0.6251527876772603	0.110247
C	0.0103694773754983 0.2784753442267835 0.5668309513059532	-0.179892
C	0.0879705524811812 0.2817870565358926 0.5695883633678805	0.102048
C	0.8899566580653534 0.2267413298683720 0.6238873487374578	0.060931
C	0.8462899223884186 0.2906410176820834 0.6209797615234730	-0.173450
C	0.7673972358179607 0.2861634996250892 0.6220637701772199	0.084939
C	0.7783802471254425 0.1490234029595512 0.6246346996703699	-0.123624
C	0.8550035769910836 0.1553200653358193 0.6267797072097293	-0.136485
H	0.1724488211964527 0.1266680426619156 0.2333641631024943	0.104756
H	0.1568382876169589 0.9880628102284822 0.2326759161185521	0.114169
H	0.3099283504520273 0.9798457469593866 0.0181712509815108	0.114679
H	0.3148041902386448 0.1193696251819542 0.0229315315394065	0.103586
H	0.3456842310922060 0.8727539870041482 0.1203299606718515	0.107984
H	0.0940487420100762 0.7518616529482259 0.1252897831094841	0.108487
H	0.1054408261180902 0.8901378919330023 0.1288170744404362	0.100510
H	0.3275511518035486 0.3733319843380902 0.2333641631024943	0.104755
H	0.3431617523830374 0.5119371897715178 0.2326759161185521	0.114169
H	0.1900716625479703 0.5201542530406134 0.0181712509815108	0.114680
H	0.1851958097613554 0.3806303748180458 0.0229315315394065	0.103586
H	0.1543157829077952 0.6272460129958518 0.1203299606718515	0.107992
H	0.4059512509899196 0.7481383470517741 0.1252897831094841	0.108498
H	0.3945591868819144 0.6098621080669977 0.1288170744404362	0.100510
H	0.3733319843380902 0.1724488211964527 0.2333641631024943	0.104755
H	0.5119371897715178 0.1568382876169589 0.2326759161185521	0.114170
H	0.5201542530406134 0.3099283504520273 0.0181712509815108	0.114680
H	0.3806303748180458 0.3148041902386448 0.0229315315394065	0.103586
H	0.6272460129958518 0.3456842310922060 0.1203299606718515	0.107987
H	0.7481383470517741 0.0940487420100762 0.1252897831094841	0.108486
H	0.6098621080669977 0.1054408261180902 0.1288170744404362	0.100512
H	0.1266680426619156 0.3275511518035486 0.2333641631024943	0.104756
H	0.9880628102284822 0.3431617523830374 0.2326759161185521	0.114168
H	0.9798457469593866 0.1900716625479703 0.0181712509815108	0.114680
H	0.1193696251819542 0.1851958097613554 0.0229315315394065	0.103587
H	0.8727539870041482 0.1543157829077952 0.1203299606718515	0.107993
H	0.7518616529482259 0.4059512509899196 0.1252897831094841	0.108498
H	0.8901378919330023 0.3945591868819144 0.1288170744404362	0.100512
H	0.8275511518035485 0.6266680696619140 0.2666358528975068	0.104755
H	0.8431616713830412 0.4880628642284795 0.2673240838814478	0.114172
H	0.6900716495479728 0.4798457469593867 0.4818287510184895	0.114676
H	0.6851958627613564 0.6193696521819531 0.4770684664605933	0.103574
H	0.6543157689077940 0.3727539330041508 0.3796700473281492	0.107990
H	0.9059511979899187 0.2518616799482247 0.3747102088905152	0.108492
H	0.8945591598819159 0.3901379179329976 0.3711829335595647	0.100514
H	0.6724488481964515 0.8733319303380860 0.2666358528975068	0.104755
H	0.6568383286169588 0.0119371517715147 0.2673240838814478	0.114174
H	0.8099283504520272 0.0201542520406097 0.4818287510184895	0.114671
H	0.8148041372386436 0.8806303478180469 0.4770684664605933	0.103541
H	0.8456842310922060 0.1272460799958538 0.3796700473281492	0.107998
H	0.5940487490100804 0.2481382930517694 0.3747102088905152	0.108497
H	0.6054408401180841 0.1098620950669999 0.3711829335595647	0.100511
H	0.6266680696619140 0.6724488481964515 0.2666358528975068	0.104755
H	0.4880628642284795 0.6568383286169588 0.2673240838814478	0.114173
H	0.4798457469593867 0.8099283504520272 0.4818287510184895	0.114676
H	0.6193696521819531 0.8148041372386436 0.4770684664605933	0.103575
H	0.3727539330041508 0.8456842310922060 0.3796700473281492	0.107992
H	0.2518616799482247 0.5940487490100804 0.3747102088905152	0.108490
H	0.3901379179329976 0.6054408401180841 0.3711829335595647	0.100514
H	0.8733319303380860 0.8275511518035485 0.2666358528975068	0.104755
H	0.0119371517715147 0.8431616713830412 0.2673240838814478	0.114174
H	0.0201542520406097 0.6900716495479728 0.4818287510184895	0.114672
H	0.8806303478180469 0.6851958627613564 0.4770684664605933	0.103541
H	0.1272460799958538 0.6543157689077940 0.3796700473281492	0.107998
H	0.2481382930517694 0.9059511979899187 0.3747102088905152	0.108498
H	0.1098620950669999 0.8945591598819159 0.3711829335595647	0.100515
H	0.8275511518035485 0.8733319303380860 0.7666358218975081	0.104754
H	0.8431616713830412 0.0119371517715147 0.7673240988814527	0.114169
H	0.6900716495479728 0.0201542520406097 0.9818287820184883	0.114676
H	0.6851958627613564 0.8806303478180469 0.9770684024605953	0.103541
H	0.6543157689077940 0.1272460799958538 0.8796700153281465	0.107986
H	0.9059511979899187 0.2481382930517694 0.8747101458905135	0.108492
H	0.8945591598819159 0.1098620950669999 0.8711829015595618	0.100515
H	0.6724488481964515 0.6266680696619140 0.7666358218975081	0.104755
H	0.6568383286169588 0.4880628642284795 0.7673240988814527	0.114167
H	0.8099283504520272 0.4798457469593867 0.9818287820184883	0.114680
H	0.8148041372386436 0.6193696521819531 0.9770684024605953	0.103575
H	0.8456842310922060 0.3727539330041508 0.8796700153281465	0.107993
H	0.5940487490100804 0.2518616799482247 0.8747101458905135	0.108497
H	0.6054408401180841 0.3901379179329976 0.8711829015595618	0.100515
H	0.6266680696619140 0.8275511518035485 0.7666358218975081	0.104756
H	0.4880628642284795 0.8431616713830412 0.7673240988814527	0.114167
H	0.4798457469593867 0.6900716495479728 0.9818287820184883	0.114681
H	0.6193696521819531 0.6851958627613564 0.9770684024605953	0.103575
H	0.3727539330041508 0.6543157689077940 0.8796700153281465	0.107987
H	0.2518616799482247 0.9059511979899187 0.8747101458905135	0.108492
H	0.3901379179329976 0.8945591598819159 0.8711829015595618	0.100517
H	0.8733319303380860 0.6724488481964515 0.7666358218975081	0.104754
H	0.0119371517715147 0.6568383286169588 0.7673240988814527	0.114170
H	0.0201542520406097 0.8099283504520272 0.9818287820184883	0.114676
H	0.8806303478180469 0.8148041372386436 0.9770684024605953	0.103542
H	0.1272460799958538 0.8456842310922060 0.8796700153281465	0.107995
H	0.2481382930517694 0.5940487490100804 0.8747101458905135	0.108496
H	0.1098620950669999 0.6054408401180841 0.8711829015595618	0.100517
H	0.1724488211964527 0.3733319843380902 0.7333641781024919	0.104755
H	0.1568382876169589 0.5119371897715178 0.7326759011185473	0.114174
H	0.3099283504520273 0.5201542530406134 0.5181712489815107	0.114684
H	0.3148041902386448 0.3806303748180458 0.5229315335394065	0.103586
H	0.3456842310922060 0.6272460129958518 0.6203299846718535	0.107992
H	0.0940487420100762 0.7481383470517741 0.6252898541094865	0.108487
H	0.1054408261180902 0.6098621080669977 0.6288170984404382	0.100517
H	0.3275511518035486 0.1266680426619156 0.7333641781024919	0.104756
H	0.3431617523830374 0.9880628102284822 0.7326759011185473	0.114174
H	0.1900716625479703 0.9798457469593866 0.5181712489815107	0.114684
H	0.1851958097613554 0.1193696251819542 0.5229315335394065	0.103587
H	0.1543157829077952 0.8727539870041482 0.6203299846718535	0.107997
H	0.4059512509899196 0.7518616529482259 0.6252898541094865	0.108498
H	0.3945591868819144 0.8901378919330023 0.6288170984404382	0.100519
H	0.3733319843380902 0.3275511518035486 0.7333641781024919	0.104755
H	0.5119371897715178 0.3431617523830374 0.7326759011185473	0.114174
H	0.5201542530406134 0.1900716625479703 0.5181712489815107	0.114686
H	0.3806303748180458 0.1851958097613554 0.5229315335394065	0.103586
H	0.6272460129958518 0.1543157829077952 0.6203299846718535	0.107993
H	0.7481383470517741 0.4059512509899196 0.6252898541094865	0.108491
H	0.6098621080669977 0.3945591868819144 0.6288170984404382	0.100520
H	0.1266680426619156 0.1724488211964527 0.7333641781024919	0.104756
H	0.9880628102284822 0.1568382876169589 0.7326759011185473	0.114175
H	0.9798457469593866 0.3099283504520273 0.5181712489815107	0.114684
H	0.1193696251819542 0.3148041902386448 0.5229315335394065	0.103587
H	0.8727539870041482 0.3456842310922060 0.6203299846718535	0.107999
H	0.7518616529482259 0.0940487420100762 0.6252898541094865	0.108493
H	0.8901378919330023 0.1054408261180902 0.6288170984404382	0.100519
F	0.3087733141238757 0.1620776553796728 0.3784951336041646	-0.660608
F	0.1912267128761229 0.3379223446203273 0.3784951336041646	-0.660607
F	0.3379223446203273 0.3087733141238757 0.3784951336041646	-0.660607
F	0.1620776553796728 0.1912267128761229 0.3784951336041646	-0.660607
F	0.6912266858761245 0.6620776013796754 0.1215048663958355	-0.660607
F	0.8087733141238754 0.8379223986203246 0.1215048663958355	-0.660607
F	0.6620776013796754 0.8087733141238755 0.1215048663958355	-0.660606
F	0.8379223986203246 0.6912266858761245 0.1215048663958355	-0.660609
F	0.6912266858761245 0.8379223986203246 0.6215048343958328	-0.660607
F	0.8087733141238755 0.6620776013796754 0.6215048343958328	-0.660607
F	0.6620776013796754 0.6912266858761245 0.6215048343958328	-0.660607
F	0.8379223986203246 0.8087733141238755 0.6215048343958328	-0.660607
F	0.3087733141238757 0.3379223446203273 0.8784951656041672	-0.660607
F	0.1912267128761229 0.1620776553796728 0.8784951656041672	-0.660608
F	0.3379223446203273 0.1912267128761229 0.8784951656041672	-0.660608
F	0.1620776553796728 0.3087733141238757 0.8784951656041672	-0.660606
F	0.2500000000000000 0.2500000000000000 0.2548947870674190	-0.572011
F	0.2500000000000000 0.2500000000000000 0.5017881910810347	-0.573296
F	0.7500000000000000 0.7500000000000000 0.2451052289325822	-0.572011
F	0.7500000000000000 0.7500000000000000 -0.0017881840810307	-0.573297
F	0.7500000000000000 0.7500000000000000 0.7451051809325783	-0.572012
F	0.7500000000000000 0.7500000000000000 0.4982118409189679	-0.573296
F	0.2500000000000000 0.2500000000000000 0.7548948190674217	-0.572012
F	0.2500000000000000 0.2500000000000000 0.0017881590810320	-0.573296
Fe	0.2500000000000000 0.2500000000000000 0.1283848759911445	0.542724
Fe	0.7500000000000000 0.7500000000000000 0.3716151400088570	0.542735
Fe	0.7500000000000000 0.7500000000000000 0.8716151090088580	0.542737
Fe	0.2500000000000000 0.2500000000000000 0.6283848909911420	0.542726
Ti	0.2500000000000000 0.2500000000000000 0.3782960932984030	2.346966
Ti	0.7500000000000000 0.7500000000000000 0.1217039147015975	2.346966
Ti	0.7500000000000000 0.7500000000000000 0.6217038757015977	2.346966
Ti	0.2500000000000000 0.2500000000000000 0.8782961242984023	2.346966
	  	
