#======================================================================

# CRYSTAL DATA

#----------------------------------------------------------------------

data_VESTA_phase_1


_pd_phase_name                         TIFSIX_2_Cu
_cell_length_a                         13.74123
_cell_length_b                         13.74123
_cell_length_c                         8.11196
_cell_angle_alpha                      90
_cell_angle_beta                       90
_cell_angle_gamma                      90
_symmetry_space_group_name_H-M         P 1
_symmetry_Int_Tables_number            1

loop_
_symmetry_equiv_pos_as_xyz
   x, y, z

loop_
   _atom_site_label
   _atom_site_fract_x
   _atom_site_fract_y
   _atom_site_fract_z
   _atom_site_charge
C	0.5311024428291624 0.6988582861269861 0.1334588918762647	0.101249
C	0.5317198421258329 0.7997877441569482 0.1385669114871573	-0.161303
C	0.4688976271708364 0.3011417138730136 0.1334588918762647	0.101247
C	0.4682801228741675 0.2002122378430503 0.1385669114871573	-0.161301
C	0.3011417138730136 0.5311024428291624 0.1334588918762647	0.101249
C	0.2002122378430503 0.5317198421258329 0.1385669114871573	-0.161303
C	0.6988582861269861 0.4688976271708364 0.1334588918762647	0.101247
C	0.7997877441569482 0.4682801228741675 0.1385669114871573	-0.161301
C	0.4688976271708364 0.6988582861269861 0.8665411081237352	0.101250
C	0.4682801228741675 0.7997877441569482 0.8614330585128400	-0.161302
C	0.5311024428291624 0.3011417138730136 0.8665411081237352	0.101247
C	0.5317198421258329 0.2002122378430503 0.8614330585128400	-0.161300
C	0.6988582861269861 0.5311024428291624 0.8665411081237352	0.101248
C	0.7997877441569482 0.5317198421258329 0.8614330585128400	-0.161300
C	0.3011417138730136 0.4688976271708364 0.8665411081237352	0.101250
C	0.2002122378430503 0.4682801228741675 0.8614330585128400	-0.161302
C	0.5000000000000000 0.1473138993590670 0.0000000000000000	0.168707
C	0.5000000000000000 0.0443421354853027 0.0000000000000000	-0.090676
C	0.5000000000000000 0.8526861006409330 0.0000000000000000	0.168677
C	0.5000000000000000 0.9556578075147033 0.0000000000000000	-0.090434
C	0.8526861006409330 0.5000000000000000 0.0000000000000000	0.168707
C	0.9556578075147033 0.5000000000000000 0.0000000000000000	-0.090677
C	0.1473138993590670 0.5000000000000000 0.0000000000000000	0.168677
C	0.0443421354853027 0.5000000000000000 0.0000000000000000	-0.090434
H	0.5553880899331023 0.6564545639126749 0.2393693571649551	0.106503
H	0.5569838949045259 0.8368429466467989 0.2490744580338572	0.130431
H	0.4446119100668976 0.3435453660873262 0.2393693571649551	0.106503
H	0.4430161400954731 0.1631569833532024 0.2490744580338572	0.130432
H	0.3435453660873262 0.5553880899331023 0.2393693571649551	0.106503
H	0.1631569833532024 0.5569838949045259 0.2490744580338572	0.130431
H	0.6564545639126749 0.4446119100668976 0.2393693571649551	0.106503
H	0.8368429466467989 0.4430161400954731 0.2490744580338572	0.130432
H	0.4446119100668976 0.6564545639126749 0.7606306428350450	0.106503
H	0.4430161400954731 0.8368429466467989 0.7509255719661457	0.130430
H	0.5553880899331023 0.3435453660873262 0.7606306428350450	0.106503
H	0.5569838949045259 0.1631569833532024 0.7509255719661457	0.130430
H	0.6564545639126749 0.5553880899331023 0.7606306428350450	0.106503
H	0.8368429466467989 0.5569838949045259 0.7509255719661457	0.130431
H	0.3435453660873262 0.4446119100668976 0.7606306428350450	0.106503
H	0.1631569833532024 0.4430161400954731 0.7509255719661457	0.130429
Cu	0.5000000000000000 0.5000000000000000 0.0000000000000000	0.737044
Ti	0.5000000000000000 0.5000000000000000 0.5000000000000000	2.330181
F	0.5000000000000000 0.5000000000000000 0.7355380195174934	-0.645527
F	0.5000000000000000 0.5000000000000000 0.2644620104825025	-0.645527
F	0.5977804435962718 0.5977804435962718 0.5000000000000000	-0.653821
F	0.4022195914037275 0.5977804435962718 0.5000000000000000	-0.653821
F	0.4022195914037275 0.4022195914037275 0.5000000000000000	-0.653821
F	0.5977804435962718 0.4022195914037275 0.5000000000000000	-0.653821
N	0.5000000000000000 0.3507919184976043 0.0000000000000000	-0.222120
N	0.5000000000000000 0.6492080465023964 0.0000000000000000	-0.222120
N	0.6492080465023964 0.5000000000000000 0.0000000000000000	-0.222121
N	0.3507919184976043 0.5000000000000000 0.0000000000000000	-0.222120
	  	
