#======================================================================

# CRYSTAL DATA

#----------------------------------------------------------------------

data_VESTA_phase_1


_pd_phase_name                         TIFSIX_2_Zn
_cell_length_a                         13.95709
_cell_length_b                         13.95709
_cell_length_c                         8.00660
_cell_angle_alpha                      90
_cell_angle_beta                       90
_cell_angle_gamma                      90
_symmetry_space_group_name_H-M         P 1
_symmetry_Int_Tables_number            1

loop_
_symmetry_equiv_pos_as_xyz
   x, y, z

loop_
   _atom_site_label
   _atom_site_fract_x
   _atom_site_fract_y
   _atom_site_fract_z
   _atom_site_charge
C	0.5313561292395031 0.7029947896005422 0.1342677173440523	0.102454
C	0.5320734574022865 0.8024210083134957 0.1396411681863270	-0.165723
C	0.4686439407604958 0.2970052103994575 0.1342677173440523	0.102451
C	0.4679265075977141 0.1975789736865028 0.1396411681863270	-0.165721
C	0.2970052103994575 0.5313561292395031 0.1342677173440523	0.102454
C	0.1975789736865028 0.5320734574022865 0.1396411681863270	-0.165723
C	0.7029947896005422 0.4686439407604958 0.1342677173440523	0.102451
C	0.8024210083134957 0.4679265075977141 0.1396411681863270	-0.165721
C	0.4686439407604958 0.7029947896005422 0.8657322826559477	0.102454
C	0.4679265075977141 0.8024210083134957 0.8603588018136703	-0.165722
C	0.5313561292395031 0.2970052103994575 0.8657322826559477	0.102452
C	0.5320734574022865 0.1975789736865028 0.8603588018136703	-0.165720
C	0.7029947896005422 0.5313561292395031 0.8657322826559477	0.102452
C	0.8024210083134957 0.5320734574022865 0.8603588018136703	-0.165720
C	0.2970052103994575 0.4686439407604958 0.8657322826559477	0.102454
C	0.1975789736865028 0.4679265075977141 0.8603588018136703	-0.165722
C	0.5000000000000000 0.1452619242983209 -0.0000000000000000	0.170891
C	0.5000000000000000 0.0437170221039417 -0.0000000000000000	-0.092620
C	0.5000000000000000 0.8547380757016793 -0.0000000000000000	0.170859
C	0.5000000000000000 0.9562829208960644 -0.0000000000000000	-0.092365
C	0.8547380757016793 0.5000000000000000 -0.0000000000000000	0.170891
C	0.9562829208960644 0.5000000000000000 -0.0000000000000000	-0.092621
C	0.1452619242983209 0.5000000000000000 -0.0000000000000000	0.170859
C	0.0437170221039417 0.5000000000000000 -0.0000000000000000	-0.092364
H	0.5558544893280571 0.6609802374620520 0.2409325920572182	0.101191
H	0.5575238622356706 0.8388926146048453 0.2511864288658767	0.128252
H	0.4441455106719431 0.3390196925379496 0.2409325920572182	0.101191
H	0.4424761727643287 0.1611073153951559 0.2511864288658767	0.128254
H	0.3390196925379496 0.5558544893280571 0.2409325920572182	0.101191
H	0.1611073153951559 0.5575238622356706 0.2511864288658767	0.128252
H	0.6609802374620520 0.4441455106719431 0.2409325920572182	0.101191
H	0.8388926146048453 0.4424761727643287 0.2511864288658767	0.128254
H	0.4441455106719431 0.6609802374620520 0.7590674079427815	0.101191
H	0.4424761727643287 0.8388926146048453 0.7488136011341262	0.128251
H	0.5558544893280571 0.3390196925379496 0.7590674079427815	0.101191
H	0.5575238622356706 0.1611073153951559 0.7488136011341262	0.128253
H	0.6609802374620520 0.5558544893280571 0.7590674079427815	0.101191
H	0.8388926146048453 0.5575238622356706 0.7488136011341262	0.128253
H	0.3390196925379496 0.4441455106719431 0.7590674079427815	0.101191
H	0.1611073153951559 0.4424761727643287 0.7488136011341262	0.128251
Zn	0.5000000000000000 0.5000000000000000 -0.0000000000000000	0.761052
Ti	0.5000000000000000 0.5000000000000000 0.5000000000000000	2.324628
F	0.5000000000000000 0.5000000000000000 0.7413998970074167	-0.613292
F	0.5000000000000000 0.5000000000000000 0.2586001329925787	-0.613292
F	0.5958037262011072 0.5958037262011072 0.5000000000000000	-0.646954
F	0.4041963087988920 0.5958037262011072 0.5000000000000000	-0.646954
F	0.4041963087988920 0.4041963087988920 0.5000000000000000	-0.646954
F	0.5958037262011072 0.4041963087988920 0.5000000000000000	-0.646954
N	0.5000000000000000 0.3460984311138818 -0.0000000000000000	-0.228552
N	0.5000000000000000 0.6539015338861189 -0.0000000000000000	-0.228552
N	0.6539015338861189 0.5000000000000000 -0.0000000000000000	-0.228552
N	0.3460984311138818 0.5000000000000000 -0.0000000000000000	-0.228552
	  	
