#======================================================================

# CRYSTAL DATA

#----------------------------------------------------------------------

data_VESTA_phase_1


_pd_phase_name                         TIFSIX_18_Ni
_cell_length_a                         14.00693
_cell_length_b                         13.77463
_cell_length_c                         8.12187
_cell_angle_alpha                      90
_cell_angle_beta                       95.46571
_cell_angle_gamma                      90
_symmetry_space_group_name_H-M         P 1
_symmetry_Int_Tables_number            1

loop_
_symmetry_equiv_pos_as_xyz
   x, y, z

loop_
   _atom_site_label
   _atom_site_fract_x
   _atom_site_fract_y
   _atom_site_fract_z
   _atom_site_charge
F	0.4086507812147426 0.3691138851743922 0.4924888681622951	-0.628395
F	0.5162871372336285 0.4827135713499116 0.7397352723610100	-0.621888
F	0.3992723477902512 0.5614572260941351 0.5084985265380216	-0.613179
F	0.9086508152147379 0.8691138161743903 0.4924888681622951	-0.628395
F	0.0162871632336237 0.9827135363499122 0.7397352723610100	-0.621888
F	0.8992723817902536 0.0614571920941394 0.5084985265380216	-0.613179
F	0.5913491817852583 0.3691138851743922 0.5075111318377049	-0.628395
F	0.4837128597663748 0.4827135713499116 0.2602647276389896	-0.621888
F	0.6007276482097489 0.5614572260941351 0.4915014744619823	-0.613179
F	0.0913492027852562 0.8691138161743903 0.5075111318377049	-0.628395
F	0.9837127247663743 0.9827135363499122 0.2602647276389896	-0.621888
F	0.1007276232097503 0.0614571920941394 0.4915014744619823	-0.613179
C	0.6836867312552779 0.1503740455895028 0.6591142034998394	-0.424673
C	0.7557579007556193 0.1480098969324291 0.8056361860884313	0.210410
C	0.7604276784471689 0.1967576671059875 0.9573825211804197	-0.151410
C	0.6883381861313971 0.2615091105680657 0.0157311681888736	-0.145490
C	0.6735131540558350 0.3606664212176241 0.9735511250792274	0.223289
C	0.7310111178423873 0.4221063959481093 0.8686239113738987	-0.425370
C	0.8938997582549403 0.2096687959559152 0.2027651424645940	-0.434540
C	0.8503491042589345 0.1712116111640671 0.0414433478340280	0.221530
C	0.6204594982428543 0.2394726310144376 0.1264038441606027	0.212249
C	0.5977471700649686 0.1479095486795590 0.2117628775259452	-0.427024
C	0.1836867812552749 0.6503740975895000 0.6591142034998394	-0.424673
C	0.2557579347556226 0.6480098799324243 0.8056361860884313	0.210410
C	0.2604276444471661 0.6967576331059850 0.9573825211804197	-0.151410
C	0.1883381861313971 0.7615091275680638 0.0157311681888736	-0.145490
C	0.1735131370558303 0.8606664552176270 0.9735511250792274	0.223289
C	0.2310111338423816 0.9221063609481096 0.8686239113738987	-0.425370
C	0.3938996572549354 0.7096687099559154 0.2027651424645940	-0.434557
C	0.3503491722589327 0.6712116111640674 0.0414433478340280	0.221534
C	0.1204594732428556 0.7394725450144377 0.1264038441606027	0.212248
C	0.0977472540649684 0.6479096176795611 0.2117628775259452	-0.427024
C	0.3163132657447254 0.1503740455895028 0.3408857975001642	-0.424673
C	0.2442420922443764 0.1480098969324291 0.1943637339115693	0.210410
C	0.2395723505528299 0.1967576671059875 0.0426174548195851	-0.151410
C	0.3116618098686025 0.2615091105680657 0.9842688228111297	-0.145490
C	0.3264869119441701 0.3606664212176241 0.0264489259207735	0.223289
C	0.2689888971576174 0.4221063959481093 0.1313761046261026	-0.425370
C	0.1061003247450631 0.2096687959559152 0.7972349055354100	-0.434564
C	0.1496508747410675 0.1712116111640671 0.9585566401659713	0.221533
C	0.3795405327571448 0.2394726310144376 0.8735961798393919	0.212248
C	0.4022527559350325 0.1479095486795590 0.7882370434740590	-0.427022
C	0.8163132657447254 0.6503740975895000 0.3408857975001642	-0.424673
C	0.7442420922443765 0.6480098799324243 0.1943637339115692	0.210410
C	0.7395723165528343 0.6967576331059850 0.0426174548195851	-0.151412
C	0.8116618098686026 0.7615091275680638 0.9842688228111297	-0.145475
C	0.8264868449441685 0.8606664552176270 0.0264489259207735	0.223287
C	0.7689888801576126 0.9221063609481096 0.1313761046261026	-0.425370
C	0.6061002407450632 0.7096687099559154 0.7972349055354100	-0.434558
C	0.6496508917410652 0.6712116111640674 0.9585566401659713	0.221534
C	0.8795404987571419 0.7394725450144377 0.8735961798393919	0.212251
C	0.9022528229350344 0.6479096176795611 0.7882370434740590	-0.427021
H	0.7177721523919973 0.1718249842840288 0.5483486550441250	0.154188
H	0.6271219569740226 0.2031790489781487 0.6767512233451303	0.142074
H	0.6508410935817780 0.0786512536411761 0.6351348120982651	0.132985
H	0.6853280181646162 0.4651832243743650 0.7794098623431701	0.145948
H	0.7777781888107193 0.3764707124891480 0.8003030328246912	0.139443
H	0.7765078417039245 0.4723235416582562 0.9467067444879265	0.127193
H	0.8630778593121338 0.0635673606291220 0.7061342993143344	0.282367
H	0.9014315336661328 0.1539129522170709 0.2993125460678150	0.155447
H	0.8488397226319696 0.2681561926530588 0.2448054163757123	0.133618
H	0.9656044314417168 0.2392094509845088 0.1895088658155710	0.139631
H	0.5737626614955486 0.1629009029722286 0.3339003815064526	0.147111
H	0.6608784179109076 0.1006632884678710 0.2279138619729036	0.151837
H	0.5403125854118906 0.1072993185806161 0.1398750916938114	0.131662
H	0.5185993867963388 0.3354015716761481 0.2190689496618474	0.270561
H	0.2177722033919982 0.6718248812840310 0.5483486550441250	0.154188
H	0.1271220409740223 0.7031789799781464 0.6767512233451303	0.142074
H	0.1508411435817748 0.5786511936411717 0.6351348120982651	0.132986
H	0.1853280351646136 0.9651831563743585 0.7794098623431701	0.145948
H	0.2777782228107217 0.8764707464891508 0.8003030328246912	0.139443
H	0.2765078747039232 0.9723235416582560 0.9467067444879265	0.127193
H	0.3630778253121379 0.5635674036291227 0.7061342993143344	0.282367
H	0.4014316006661351 0.6539129182170678 0.2993125460678150	0.155450
H	0.3488396546319711 0.7681562276530581 0.2448054163757123	0.133622
H	0.4656044984417113 0.7392095019845021 0.1895088658155710	0.139640
H	0.0737626534955478 0.6629009199722259 0.3339003815064526	0.147111
H	0.1608783839109048 0.6006632454678708 0.2279138619729036	0.151837
H	0.0403126214118937 0.6072992665806191 0.1398750916938114	0.131662
H	0.0185993717963412 0.8354015716761480 0.2190689496618473	0.270561
H	0.2822277786080074 0.1718249842840288 0.4516513769558705	0.154188
H	0.3728779420259730 0.2031790489781487 0.3232488416548712	0.142070
H	0.3491588354182272 0.0786512536411761 0.3648651879017347	0.132988
H	0.3146719768353874 0.4651832243743650 0.2205901056568346	0.145947
H	0.2222218061892771 0.3764707124891480 0.1996969351753059	0.139445
H	0.2234921542960826 0.4723235416582562 0.0532932285120750	0.127192
H	0.1369221416878628 0.0635673606291220 0.2938656056856612	0.282367
H	0.0985683893338640 0.1539129522170709 0.7006874859321879	0.155450
H	0.1511603413680286 0.2681561926530588 0.7551945836242882	0.133623
H	0.0343954975582882 0.2392094509845088 0.8104911661844246	0.139650
H	0.4262373685044540 0.1629009029722286 0.6660996184935477	0.147108
H	0.3391216440890973 0.1006632884678710 0.7720860900270922	0.151835
H	0.4596873795881098 0.1072993185806161 0.8601249483061921	0.131657
H	0.4814005742036616 0.3354015716761481 0.7809310033381521	0.270559
H	0.7822278456080025 0.6718248812840310 0.4516513769558705	0.154188
H	0.8728780430259774 0.7031789799781464 0.3232488416548712	0.142070
H	0.8491588354182268 0.5786511936411717 0.3648651879017347	0.132988
H	0.8146719768353869 0.9651831563743585 0.2205901056568346	0.145947
H	0.7222218061892768 0.8764707464891508 0.1996969351753059	0.139445
H	0.7234921542960823 0.9723235416582560 0.0532932285120750	0.127192
H	0.6369221326878656 0.5635674036291227 0.2938656056856612	0.282367
H	0.5985684983338627 0.6539129182170678 0.7006874859321879	0.155450
H	0.6511602743680266 0.7681562276530581 0.7551945836242882	0.133624
H	0.5343955335582838 0.7392095019845021 0.8104911661844246	0.139644
H	0.9262373015044519 0.6629009199722259 0.6660996184935477	0.147108
H	0.8391215770890955 0.6006632454678708 0.7720860900270922	0.151837
H	0.9596873795881100 0.6072992665806191 0.8601249483061921	0.131657
H	0.9814005402036658 0.8354015716761480 0.7809310033381521	0.270563
N	0.8369280488904890 0.0953582981912643 0.8073943890423292	-0.147842
N	0.6004675260205592 0.3961294365842064 0.0519040096637880	-0.260893
N	0.8956617294087996 0.1084741080522446 0.9482740648832699	-0.260551
N	0.5707690358905941 0.3219261719058009 0.1434560537998758	-0.142582
N	0.3369280488904888 0.5953582211912689 0.8073943890423292	-0.147842
N	0.1004675930205612 0.8961294365842067 0.0519040096637880	-0.260893
N	0.3956617634088020 0.6084741590522451 0.9482740648832699	-0.260552
N	0.0707690278905940 0.8219261369058019 0.1434560537998758	-0.142582
N	0.1630719331095098 0.0953582981912643 0.1926056589576674	-0.147842
N	0.3995323679794391 0.3961294365842064 0.9480959663362101	-0.260893
N	0.1043382405911981 0.1084741080522446 0.0517259151167281	-0.260551
N	0.4292309611094087 0.3219261719058009 0.8565439622001255	-0.142580
N	0.6630719501095074 0.5953582211912689 0.1926056589576674	-0.147842
N	0.8995324689794439 0.8961294365842067 0.9480959663362101	-0.260887
N	0.6043382655912035 0.6084741590522451 0.0517259151167281	-0.260552
N	0.9292309951094049 0.8219261369058019 0.8565439622001255	-0.142605
Ti	0.4999999979999998 0.4690784535987705 0.5000000000000000	2.295948
Ti	-0.0000000000000000 0.9690784535987702 0.5000000000000000	2.295948
Ni	0.5000000000000000 0.5064364691344365 0.0000000000000000	0.828641
Ni	-0.0000000000000000 0.0064364761344406 0.0000000000000000	0.828640
	  	
