#======================================================================

# CRYSTAL DATA

#----------------------------------------------------------------------

data_VESTA_phase_1


_pd_phase_name                         TIFSIX_14_Cd_i
_cell_length_a                         13.69961
_cell_length_b                         13.68748
_cell_length_c                         8.29750
_cell_angle_alpha                      89.95770
_cell_angle_beta                       89.93935
_cell_angle_gamma                      90.16403
_symmetry_space_group_name_H-M         P 1
_symmetry_Int_Tables_number            1

loop_
_symmetry_equiv_pos_as_xyz
   x, y, z

loop_
   _atom_site_label
   _atom_site_fract_x
   _atom_site_fract_y
   _atom_site_fract_z
   _atom_site_charge
C	0.5777232097116515 0.2637941754814255 0.3606220406593586	-0.181649
C	0.4765344357944416 0.2682120830378277 0.3644307612110230	0.108951
C	0.9345572351588776 0.2873061868324487 0.4165853196074217	-0.164880
C	0.0354707565528137 0.2797546768851779 0.4028128545065401	0.115157
C	0.2620195548245463 0.5777116020250214 0.3636419658157860	-0.183689
C	0.2664798339841803 0.4763853869502923 0.3675356570364399	0.109363
C	0.2954975809650144 0.9347217357717762 0.4121170336635218	-0.166509
C	0.2864997703409995 0.0356238394381317 0.3994977226326106	0.113748
C	0.9223660018973230 0.2386010673849112 0.1371762943252736	-0.180522
C	0.0235853335038416 0.2345120646096998 0.1330951021480186	0.108385
C	0.5653577719392497 0.2077022517441673 0.0850576447392183	-0.164440
C	0.4644420147761241 0.2158125265408993 0.0983183827381610	0.115439
C	0.2091194967353353 0.5654151535161003 0.0864270707277242	-0.168486
C	0.2176396646956947 0.4645038539169492 0.0995817214761796	0.113026
C	0.2355822181349827 0.9222577905836084 0.1388358645890127	-0.181508
C	0.2308399240235380 0.0235618204479795 0.1352598229417717	0.110220
C	0.4227072618754661 0.7373331666135349 0.6396951646916256	-0.180542
C	0.5238722785622553 0.7352411022259471 0.6344048591622998	0.107651
C	0.0651351525459257 0.7297353602819171 0.5751215153148637	-0.159046
C	0.9640566280381330 0.7320358535016964 0.5913842852868325	0.117342
C	0.7381114459138106 0.4225502291621893 0.6385878070090644	-0.180704
C	0.7352407379562027 0.5238084899671754 0.6338308703293921	0.109116
C	0.7175694942848426 0.0647708143952612 0.5793254932607443	-0.161683
C	0.7233483121137655 0.9636953629944992 0.5939912623569510	0.116429
C	0.0774360199855658 0.7603684139213119 0.8615728082244548	-0.180613
C	0.9762599546122843 0.7617185905025172 0.8670561258479060	0.109573
C	0.4351730405977747 0.7758607901892632 0.9234661614980312	-0.159771
C	0.5362342129906452 0.7727121117810060 0.9074072306831530	0.118438
C	0.7767793099014099 0.4348021591239482 0.9223203814367174	-0.161487
C	0.7719443771523772 0.5358944176039598 0.9071584578432904	0.115051
C	0.7641839394406436 0.0771343328802700 0.8597538948472651	-0.179483
C	0.7677859533494449 0.9759111559298090 0.8641234413157775	0.110311
C	0.6231539897802502 0.2340461359531504 0.2171111342326054	0.189897
C	0.8768678860810940 0.2643843610138248 0.2826936232926222	0.190924
C	0.2338390724391114 0.6231810806163836 0.2194217080913032	0.194028
C	0.2674938781659941 0.8768722539447422 0.2809886780486620	0.191562
C	0.3773420213032833 0.7575440491571559 0.7879232240035827	0.189771
C	0.1228831632186229 0.7445353325255710 0.7119516689196872	0.190622
C	0.7585955698899475 0.3770543309711678 0.7865370611273425	0.190798
C	0.7392682636708297 0.1225813574314922 0.7136255662104188	0.191017
H	0.6208592290463248 0.2796684504876221 0.4674826292264856	0.105848
H	0.4375735525593067 0.2894651764558853 0.4737341111009009	0.105793
H	0.9013051746271168 0.3096160552680614 0.5297882720851665	0.127552
H	0.0828225640931119 0.2952262796242724 0.5054334234805825	0.101449
H	0.2765667696175683 0.6211378088792470 0.4707885365258224	0.109214
H	0.2864203553946622 0.4373471816740587 0.4774458925717106	0.106103
H	0.3226027561772346 0.9015036559446969 0.5224551090398979	0.128208
H	0.3052833646699327 0.0831281992518864 0.5005004661325430	0.101951
H	0.8791623990738586 0.2254855635220888 0.0293093729640677	0.105413
H	0.0626331773686553 0.2161008562776489 0.0224484261333049	0.106060
H	0.5985080014882678 0.1821649640313058 0.9736368699305319	0.127503
H	0.4169945240742987 0.1977757634216191 0.9969613853992374	0.101390
H	0.1850499002572306 0.5986865115399226 0.9742060425022723	0.127935
H	0.2013086854333294 0.4171191715184137 0.9972612810319263	0.102464
H	0.2182759376156059 0.8788830959943210 0.0328027920812278	0.108038
H	0.2081517957818989 0.0625508687554575 0.0267748954770834	0.105268
H	0.3798408881235873 0.7259707326533020 0.5308787788764234	0.100879
H	0.5628446422315663 0.7203783018867544 0.5223363257898630	0.106758
H	0.0983066248142614 0.7167855922503614 0.4579115843756678	0.126817
H	0.9166607501153834 0.7205339829625104 0.4875269831604570	0.100518
H	0.7276796175249639 0.3795690548295559 0.5295828356358664	0.102049
H	0.7204706341535808 0.5629364412439548 0.5218808595159469	0.106844
H	0.6968256334186066 0.0979508974806212 0.4652904197976847	0.127132
H	0.7074490774262432 0.9162672565911865 0.4916540555850965	0.100169
H	0.1203214951004729 0.7689174934650818 0.9711093268042370	0.100513
H	0.9372296002348791 0.7732338279486711 0.9801551546556622	0.105944
H	0.4021064193699272 0.7922825607245234 0.0395270925103963	0.127058
H	0.5836970530448835 0.7869690065049797 0.0102520976461499	0.099632
H	0.7940020242438175 0.4015660199607748 0.0379152480414909	0.127579
H	0.7852273719495241 0.5832910315597347 0.0105503747938845	0.100728
H	0.7774572690477105 0.1200940513021772 0.9678664193225185	0.102345
H	0.7858526521069217 0.9368622428143890 0.9747717709207899	0.105840
N	0.7745888796570516 0.2730955084361255 0.3008478579147410	-0.100893
N	0.2775524727724612 0.7745006689861430 0.2973259639150611	-0.103319
N	0.7254822706507253 0.2249092610235300 0.1991136196913838	-0.102423
N	0.2240907975611996 0.7254996094234180 0.2029320492895042	-0.102055
N	0.2251736019613056 0.7397023189979793 0.6887173730036047	-0.100762
N	0.7315329470042964 0.2249809179980981 0.6925261284795545	-0.099602
N	0.2750362603594022 0.7629784215391050 0.8110367425497241	-0.100345
N	0.7657361254783928 0.2747067662064832 0.8078746204451986	-0.101935
N	0.4210855495317928 0.2457079625100434 0.2353009734116413	-0.233060
N	0.0789507493938441 0.2536717052989887 0.2637834992633498	-0.234759
N	0.2458181994263341 0.4210097574014188 0.2375082495982480	-0.234294
N	0.2547208596939068 0.0790094679504118 0.2636740778871564	-0.234192
N	0.5794592394924315 0.7524133722063008 0.7657493757486976	-0.232159
N	0.9207583499079119 0.7480133579040465 0.7345155428460867	-0.233563
N	0.7514279836932054 0.5792777281244711 0.7656528016509370	-0.232111
N	0.7481858976781333 0.9204152434300931 0.7336185125362558	-0.232974
F	0.3477066561361680 0.1494932780998336 0.7506785164783826	-0.654351
F	0.1550778314971346 0.3485881733026245 0.7499117303257902	-0.654318
F	0.3489307899563683 0.3442194545105073 0.7811723774397384	-0.660097
F	0.1532373905798443 0.1541219344071367 0.7182694143640872	-0.659730
F	0.6509017236954018 0.8487763395150768 0.2506417108613838	-0.651072
F	0.8471850079188147 0.6537329165422621 0.2489139629884898	-0.651936
F	0.6532423735955614 0.6546752116430373 0.2135840227735617	-0.655647
F	0.8449743855361203 0.8474823111445824 0.2863984357860064	-0.656021
F	0.2670614928320030 0.2642370852849920 0.5188058598419130	-0.630645
F	0.2347311782038075 0.2340025054095659 -0.0187442210205183	-0.630754
F	0.7321379824437034 0.7331918047750320 0.4805271843347991	-0.629452
F	0.7663654505883519 0.7685526878250953 0.0191278546303769	-0.629367
Ti	0.2512677439832181 0.2489119019754010 0.7500294224035590	2.337948
Ti	0.7489474551233293 0.7511713294299797 0.2498599211722915	2.332506
Cd	0.2500339849856839 0.2500039761883662 0.2501115046687570	0.846059
Cd	0.7501119885690709 0.7498317028305529 0.7498480197526898	0.842517
	  	
