#======================================================================

# CRYSTAL DATA

#----------------------------------------------------------------------

data_VESTA_phase_1


_pd_phase_name                         TIFSIX_3_Cu
_cell_length_a                         13.81874
_cell_length_b                         13.81874
_cell_length_c                         8.10608
_cell_angle_alpha                      90
_cell_angle_beta                       90
_cell_angle_gamma                      90
_symmetry_space_group_name_H-M         P 1
_symmetry_Int_Tables_number            1

loop_
_symmetry_equiv_pos_as_xyz
   x, y, z

loop_
   _atom_site_label
   _atom_site_fract_x
   _atom_site_fract_y
   _atom_site_fract_z
   _atom_site_charge
C	0.2699911970204618 0.4496182520297146 0.6381670040980522	0.070759
C	0.2300088029795384 0.0503817519702858 0.6381670040980522	0.070760
C	0.2300088029795384 0.4496182520297146 0.3618329639019450	0.070773
C	0.2699911970204618 0.0503817519702858 0.3618329639019450	0.070774
C	0.0503817519702858 0.2699911970204618 0.3618329639019450	0.070791
C	0.4496182520297146 0.2300088029795384 0.3618329639019450	0.070790
C	0.4496182520297146 0.2699911970204618 0.6381670040980522	0.070804
C	0.0503817519702858 0.2300088029795384 0.6381670040980522	0.070804
C	0.9496181840297158 0.2300088029795384 0.6381670040980522	0.070804
C	0.5503818159702842 0.2699911970204618 0.6381670040980522	0.070805
C	0.5503818159702842 0.2300088029795384 0.3618329639019450	0.070817
C	0.9496181840297158 0.2699911970204618 0.3618329639019450	0.070816
C	0.7300088199795358 0.0503817519702858 0.3618329639019450	0.070790
C	0.7699911800204642 0.4496182520297146 0.3618329639019450	0.070790
C	0.7699911800204642 0.0503817519702858 0.6381670040980522	0.070804
C	0.7300088199795358 0.4496182520297146 0.6381670040980522	0.070803
C	0.4496182520297146 0.7300088199795358 0.6381670040980522	0.070763
C	0.0503817519702858 0.7699911800204642 0.6381670040980522	0.070764
C	0.0503817519702858 0.7300088199795358 0.3618329639019450	0.070778
C	0.4496182520297146 0.7699911800204642 0.3618329639019450	0.070777
C	0.2300088029795384 0.5503818159702842 0.3618329639019450	0.070833
C	0.2699911970204618 0.9496181840297158 0.3618329639019450	0.070833
C	0.2699911970204618 0.5503818159702842 0.6381670040980522	0.070844
C	0.2300088029795384 0.9496181840297158 0.6381670040980522	0.070843
C	0.7699911800204642 0.9496181840297158 0.6381670040980522	0.070804
C	0.7300088199795358 0.5503818159702842 0.6381670040980522	0.070805
C	0.7300088199795358 0.9496181840297158 0.3618329639019450	0.070816
C	0.7699911800204642 0.5503818159702842 0.3618329639019450	0.070817
C	0.5503818159702842 0.7699911800204642 0.3618329639019450	0.070833
C	0.9496181840297158 0.7300088199795358 0.3618329639019450	0.070832
C	0.9496181840297158 0.7699911800204642 0.6381670040980522	0.070843
C	0.5503818159702842 0.7300088199795358 0.6381670040980522	0.070844
H	0.2860739904497457 0.4099166387536020 0.7510104553817760	0.120753
H	0.2139259755502513 0.0900833612463980 0.7510104553817760	0.120753
H	0.2139259755502513 0.4099166387536020 0.2489895136182248	0.120753
H	0.2860739904497457 0.0900833612463980 0.2489895136182248	0.120752
H	0.0900833612463980 0.2860739904497457 0.2489895136182248	0.120750
H	0.4099166387536020 0.2139259755502513 0.2489895136182248	0.120751
H	0.4099166387536020 0.2860739904497457 0.7510104553817760	0.120749
H	0.0900833612463980 0.2139259755502513 0.7510104553817760	0.120749
H	0.9099167067536079 0.2139259755502513 0.7510104553817760	0.120744
H	0.5900832932463921 0.2860739904497457 0.7510104553817760	0.120744
H	0.5900832932463921 0.2139259755502513 0.2489895136182248	0.120743
H	0.9099167067536079 0.2860739904497457 0.2489895136182248	0.120743
H	0.7139259415502558 0.0900833612463980 0.2489895136182248	0.120751
H	0.7860740584497442 0.4099166387536020 0.2489895136182248	0.120750
H	0.7860740584497442 0.0900833612463980 0.7510104553817760	0.120749
H	0.7139259415502558 0.4099166387536020 0.7510104553817760	0.120749
H	0.4099166387536020 0.7139259415502558 0.7510104553817760	0.120753
H	0.0900833612463980 0.7860740584497442 0.7510104553817760	0.120753
H	0.0900833612463980 0.7139259415502558 0.2489895136182248	0.120752
H	0.4099166387536020 0.7860740584497442 0.2489895136182248	0.120752
H	0.2139259755502513 0.5900832932463921 0.2489895136182248	0.120742
H	0.2860739904497457 0.9099167067536079 0.2489895136182248	0.120741
H	0.2860739904497457 0.5900832932463921 0.7510104553817760	0.120740
H	0.2139259755502513 0.9099167067536079 0.7510104553817760	0.120740
H	0.7860740584497442 0.9099167067536079 0.7510104553817760	0.120744
H	0.7139259415502558 0.5900832932463921 0.7510104553817760	0.120744
H	0.7139259415502558 0.9099167067536079 0.2489895136182248	0.120744
H	0.7860740584497442 0.5900832932463921 0.2489895136182248	0.120743
H	0.5900832932463921 0.7860740584497442 0.2489895136182248	0.120741
H	0.9099167067536079 0.7139259415502558 0.2489895136182248	0.120742
H	0.9099167067536079 0.7860740584497442 0.7510104553817760	0.120740
H	0.5900832932463921 0.7139259415502558 0.7510104553817760	0.120740
Cu	0.2500000000000000 0.2500000000000000 0.5000000000000000	0.737401
Cu	0.7500000340000028 0.2500000000000000 0.5000000000000000	0.737403
Cu	0.2500000000000000 0.7500000340000028 0.5000000000000000	0.737403
Cu	0.7500000340000028 0.7500000340000028 0.5000000000000000	0.737405
Ti	0.2500000000000000 0.2500000000000000 0.0000000000000000	2.310717
Ti	0.7500000340000028 0.2500000000000000 0.0000000000000000	2.310704
Ti	0.2500000000000000 0.7500000340000028 0.0000000000000000	2.310704
Ti	0.7500000340000028 0.7500000340000028 0.0000000000000000	2.310693
F	0.2500000000000000 0.2500000000000000 0.7617587942093395	-0.657002
F	0.2500000000000000 0.2500000000000000 0.2382412057906609	-0.657002
F	0.3464797252802166 0.3464797252802166 -0.0135326910931413	-0.629709
F	0.1535202747197835 0.1535202747197835 -0.0135326910931413	-0.629707
F	0.1535202747197835 0.3464797252802166 0.0135327120931395	-0.629708
F	0.3464797252802166 0.1535202747197835 0.0135327120931395	-0.629708
F	0.7500000340000028 0.2500000000000000 0.7617587942093395	-0.657001
F	0.7500000340000028 0.2500000000000000 0.2382412057906609	-0.657001
F	0.8464797592802193 0.3464797252802166 0.0135327120931395	-0.629714
F	0.6535202407197807 0.1535202747197835 0.0135327120931395	-0.629713
F	0.6535202407197807 0.3464797252802166 -0.0135326910931413	-0.629714
F	0.8464797592802193 0.1535202747197835 -0.0135326910931413	-0.629714
F	0.2500000000000000 0.7500000340000028 0.7617587942093395	-0.657001
F	0.2500000000000000 0.7500000340000028 0.2382412057906609	-0.657001
F	0.3464797252802166 0.8464797592802193 0.0135327120931395	-0.629714
F	0.1535202747197835 0.6535202407197807 0.0135327120931395	-0.629712
F	0.1535202747197835 0.8464797592802193 -0.0135326910931413	-0.629714
F	0.3464797252802166 0.6535202407197807 -0.0135326910931413	-0.629714
F	0.7500000340000028 0.7500000340000028 0.7617587942093395	-0.657000
F	0.7500000340000028 0.7500000340000028 0.2382412057906609	-0.657000
F	0.8464797592802193 0.8464797592802193 -0.0135326910931413	-0.629721
F	0.6535202407197807 0.6535202407197807 -0.0135326910931413	-0.629719
F	0.6535202407197807 0.8464797592802193 0.0135327120931395	-0.629719
F	0.8464797592802193 0.6535202407197807 0.0135327120931395	-0.629719
N	0.3995156463408518 0.2500000000000000 0.5000000000000000	-0.186913
N	0.1004843536591482 0.2500000000000000 0.5000000000000000	-0.186913
N	0.2500000000000000 0.3995156463408518 0.5000000000000000	-0.186903
N	0.2500000000000000 0.1004843536591482 0.5000000000000000	-0.186903
N	0.8995156463408516 0.2500000000000000 0.5000000000000000	-0.186917
N	0.6004843536591484 0.2500000000000000 0.5000000000000000	-0.186916
N	0.7500000340000028 0.3995156463408518 0.5000000000000000	-0.186910
N	0.7500000340000028 0.1004843536591482 0.5000000000000000	-0.186910
N	0.3995156463408518 0.7500000340000028 0.5000000000000000	-0.186907
N	0.1004843536591482 0.7500000340000028 0.5000000000000000	-0.186906
N	0.2500000000000000 0.8995156463408516 0.5000000000000000	-0.186921
N	0.2500000000000000 0.6004843536591484 0.5000000000000000	-0.186920
N	0.8995156463408516 0.7500000340000028 0.5000000000000000	-0.186923
N	0.6004843536591484 0.7500000340000028 0.5000000000000000	-0.186922
N	0.7500000340000028 0.8995156463408516 0.5000000000000000	-0.186914
N	0.7500000340000028 0.6004843536591484 0.5000000000000000	-0.186913
	  	
