#======================================================================

# CRYSTAL DATA

#----------------------------------------------------------------------

data_VESTA_phase_1


_pd_phase_name                         TIFSIX_4_Cu_i
_cell_length_a                         23.39904
_cell_length_b                         20.37905
_cell_length_c                         9.54798
_cell_angle_alpha                      90
_cell_angle_beta                       90
_cell_angle_gamma                      90
_symmetry_space_group_name_H-M         P 1
_symmetry_Int_Tables_number            1

loop_
_symmetry_equiv_pos_as_xyz
   x, y, z

loop_
   _atom_site_label
   _atom_site_fract_x
   _atom_site_fract_y
   _atom_site_fract_z
   _atom_site_charge
C	0.4173400490245444 0.5974940680833616 0.6294592586720982	0.100074
C	0.3735467959399899 0.5516418484455625 0.6274826154575819	-0.163980
C	0.2775479371079922 0.4488522714313247 0.6271075604251158	-0.113808
C	0.2313924706108435 0.4061241719722428 0.6258406897105301	-0.112320
C	0.1298080207591858 0.3193294275757970 0.6246677005334257	-0.161816
C	0.0830671794295096 0.2774647268619668 0.6278983885509709	0.093203
C	0.9173401320245412 0.0974940790833659 0.6294592586720982	0.100074
C	0.8735467539399935 0.0516417904455645 0.6274826154575819	-0.163979
C	0.7775479581079975 0.9488523184313251 0.6271075604251158	-0.113808
C	0.7313924506108419 0.9061242179722396 0.6258406897105301	-0.112319
C	0.6298080207591860 0.8193294745757976 0.6246677005334257	-0.161816
C	0.5830671644295047 0.7774648198619635 0.6278983885509709	0.093203
C	0.5826599509754550 0.4025058859166347 0.1294592666720986	0.100075
C	0.6264532460600065 0.4483581975544416 0.1274826304575790	-0.163980
C	0.7224520418920025 0.5511476815686749 0.1271075684251168	-0.113807
C	0.7686075493891581 0.5938758280277571 0.1258406977105311	-0.112320
C	0.8701919792408140 0.6806705724242027 0.1246677075334293	-0.161816
C	0.9169328355704953 0.7225352271380369 0.1278984035509686	0.093203
C	0.0826599619754600 0.9025059789166388 0.1294592666720986	0.100074
C	0.1264532040600103 0.9483581055544408 0.1274826304575790	-0.163981
C	0.2224520838920058 0.0511477285686755 0.1271075684251168	-0.113807
C	0.2686075083891583 0.0938758050277590 0.1258406977105311	-0.112320
C	0.3701920212408175 0.1806705834242001 0.1246677075334293	-0.161815
C	0.4169328355704954 0.2225352971380352 0.1278984035509686	0.093203
C	0.5826599509754550 0.5974940680833616 0.8705407103279028	0.100074
C	0.6264532460600065 0.5516418484455625 0.8725173535424191	-0.163980
C	0.7224520418920025 0.4488522714313247 0.8728924705748832	-0.113807
C	0.7686075493891581 0.4061241719722428 0.8741593412894689	-0.112320
C	0.8701919792408140 0.3193294275757970 0.8753323304665733	-0.161817
C	0.9169328355704953 0.2774647268619668 0.8721016424490281	0.093203
C	0.0826599619754600 0.0974940790833659 0.8705407103279028	0.100074
C	0.1264532040600103 0.0516417904455645 0.8725173535424191	-0.163980
C	0.2224520838920058 0.9488523184313251 0.8728924705748832	-0.113808
C	0.2686075083891583 0.9061242179722396 0.8741593412894689	-0.112320
C	0.3701920212408175 0.8193294745757976 0.8753323304665733	-0.161817
C	0.4169328355704954 0.7774648198619635 0.8721016424490281	0.093203
C	0.4173400490245444 0.4025058859166347 0.3705407413279018	0.100074
C	0.3735467959399899 0.4483581975544416 0.3725173535424195	-0.163980
C	0.2775479371079922 0.5511476815686749 0.3728924395748837	-0.113807
C	0.2313924706108435 0.5938758280277571 0.3741592792894706	-0.112320
C	0.1298080207591858 0.6806705724242027 0.3753322684665688	-0.161816
C	0.0830671794295096 0.7225352271380369 0.3721015804490301	0.093203
C	0.9173401320245412 0.9025059789166388 0.3705407413279018	0.100074
C	0.8735467539399935 0.9483581055544408 0.3725173535424195	-0.163980
C	0.7775479581079975 0.0511477285686755 0.3728924395748837	-0.113807
C	0.7313924506108419 0.0938758050277590 0.3741592792894706	-0.112320
C	0.6298080207591860 0.1806705834242001 0.3753322684665688	-0.161816
C	0.5830671644295047 0.2225352971380352 0.3721015804490301	0.093203
C	0.5826599509754550 0.4025058859166347 0.3705407413279018	0.100075
C	0.6264532460600065 0.4483581975544416 0.3725173535424195	-0.163980
C	0.7224520418920025 0.5511476815686749 0.3728924395748837	-0.113807
C	0.7686075493891581 0.5938758280277571 0.3741592792894706	-0.112320
C	0.8701919792408140 0.6806705724242027 0.3753322684665688	-0.161817
C	0.9169328355704953 0.7225352271380369 0.3721015804490301	0.093202
C	0.0826599619754600 0.9025059789166388 0.3705407413279018	0.100074
C	0.1264532040600103 0.9483581055544408 0.3725173535424195	-0.163981
C	0.2224520838920058 0.0511477285686755 0.3728924395748837	-0.113807
C	0.2686075083891583 0.0938758050277590 0.3741592792894706	-0.112320
C	0.3701920212408175 0.1806705834242001 0.3753322684665688	-0.161817
C	0.4169328355704954 0.2225352971380352 0.3721015804490301	0.093202
C	0.4173400490245444 0.5974940680833616 0.8705407103279028	0.100074
C	0.3735467959399899 0.5516418484455625 0.8725173535424191	-0.163980
C	0.2775479371079922 0.4488522714313247 0.8728924705748832	-0.113808
C	0.2313924706108435 0.4061241719722428 0.8741593412894689	-0.112320
C	0.1298080207591858 0.3193294275757970 0.8753323304665733	-0.161817
C	0.0830671794295096 0.2774647268619668 0.8721016424490281	0.093203
C	0.9173401320245412 0.0974940790833659 0.8705407103279028	0.100074
C	0.8735467539399935 0.0516417904455645 0.8725173535424191	-0.163979
C	0.7775479581079975 0.9488523184313251 0.8728924705748832	-0.113808
C	0.7313924506108419 0.9061242179722396 0.8741593412894689	-0.112319
C	0.6298080207591860 0.8193294745757976 0.8753323304665733	-0.161817
C	0.5830671644295047 0.7774648198619635 0.8721016424490281	0.093203
C	0.4173400490245444 0.4025058859166347 0.1294592666720986	0.100075
C	0.3735467959399899 0.4483581975544416 0.1274826304575790	-0.163980
C	0.2775479371079922 0.5511476815686749 0.1271075684251168	-0.113807
C	0.2313924706108435 0.5938758280277571 0.1258406977105311	-0.112320
C	0.1298080207591858 0.6806705724242027 0.1246677075334293	-0.161818
C	0.0830671794295096 0.7225352271380369 0.1278984035509686	0.093202
C	0.9173401320245412 0.9025059789166388 0.1294592666720986	0.100075
C	0.8735467539399935 0.9483581055544408 0.1274826304575790	-0.163980
C	0.7775479581079975 0.0511477285686755 0.1271075684251168	-0.113807
C	0.7313924506108419 0.0938758050277590 0.1258406977105311	-0.112320
C	0.6298080207591860 0.1806705834242001 0.1246677075334293	-0.161817
C	0.5830671644295047 0.2225352971380352 0.1278984035509686	0.093202
C	0.5826599509754550 0.5974940680833616 0.6294592586720982	0.100075
C	0.6264532460600065 0.5516418484455625 0.6274826154575819	-0.163980
C	0.7224520418920025 0.4488522714313247 0.6271075604251158	-0.113807
C	0.7686075493891581 0.4061241719722428 0.6258406897105301	-0.112320
C	0.8701919792408140 0.3193294275757970 0.6246677005334257	-0.161818
C	0.9169328355704953 0.2774647268619668 0.6278983885509710	0.093203
C	0.0826599619754600 0.0974940790833659 0.6294592586720982	0.100074
C	0.1264532040600103 0.0516417904455645 0.6274826154575819	-0.163980
C	0.2224520838920058 0.9488523184313251 0.6271075604251158	-0.113808
C	0.2686075083891583 0.9061242179722396 0.6258406897105301	-0.112320
C	0.3701920212408175 0.8193294745757976 0.6246677005334257	-0.161818
C	0.4169328355704954 0.7774648198619635 0.6278983885509709	0.093203
C	0.3493213186725797 0.5248296802546868 0.7500000149999977	0.120098
C	0.3022057753600285 0.4746510494044352 0.7500000149999977	0.073036
C	0.2056579003236516 0.3843669341529421 0.7500000149999977	0.065241
C	0.1551726764914486 0.3410078724572936 0.7500000149999977	0.103383
C	0.8493212766725837 0.0248296632546888 0.7500000149999977	0.120097
C	0.8022058373600266 0.9746510024044344 0.7500000149999977	0.073035
C	0.7056579003236513 0.8843669571529407 0.7500000149999977	0.065241
C	0.6551726764914483 0.8410078034572913 0.7500000149999977	0.103383
C	0.6506786813274199 0.4751703657453099 0.2500000000000000	0.120098
C	0.6977941626399734 0.5253489505955653 0.2500000000000000	0.073035
C	0.7943420996763487 0.6156330898470597 0.2500000000000000	0.065241
C	0.8448273645085587 0.6589921045427082 0.2500000000000000	0.103383
C	0.1506786923274176 0.9751704127453102 0.2500000000000000	0.120098
C	0.1977942456399693 0.0253489535955617 0.2500000000000000	0.073035
C	0.2943420996763484 0.1156330428470593 0.2500000000000000	0.065241
C	0.3448273235085514 0.1589921385427109 0.2500000000000000	0.103383
C	0.6506786813274199 0.5248296802546868 0.7500000149999977	0.120098
C	0.6977941626399734 0.4746510494044352 0.7500000149999977	0.073035
C	0.7943420996763487 0.3843669341529421 0.7500000149999977	0.065241
C	0.8448273645085587 0.3410078724572936 0.7500000149999977	0.103383
C	0.1506786923274176 0.0248296632546888 0.7500000149999977	0.120098
C	0.1977942456399693 0.9746510024044344 0.7500000149999977	0.073036
C	0.2943420996763484 0.8843669571529407 0.7500000149999977	0.065241
C	0.3448273235085514 0.8410078034572913 0.7500000149999977	0.103383
C	0.3493213186725797 0.4751703657453099 0.2500000000000000	0.120098
C	0.3022057753600285 0.5253489505955653 0.2500000000000000	0.073035
C	0.2056579003236516 0.6156330898470597 0.2500000000000000	0.065241
C	0.1551726764914486 0.6589921045427082 0.2500000000000000	0.103383
C	0.8493212766725837 0.9751704127453102 0.2500000000000000	0.120098
C	0.8022058373600266 0.0253489535955617 0.2500000000000000	0.073035
C	0.7056579003236513 0.1156330428470593 0.2500000000000000	0.065241
C	0.6551726764914483 0.1589921385427109 0.2500000000000000	0.103383
H	0.4354162066683361 0.6167676039019276 0.5321728864536752	0.115050
H	0.3602261090411968 0.5387602423385680 0.5233795919176198	0.106299
H	0.2937981526025720 0.4609295256386349 0.5251878816411029	0.085454
H	0.2157439178954321 0.3899937015088021 0.5240299002542471	0.104312
H	0.1458404922423133 0.3338943155465011 0.5224089771368916	0.122460
H	0.0630319019987142 0.2591223349674398 0.5319220027408730	0.115596
H	0.9354161646683329 0.1167676389019268 0.5321728864536752	0.115050
H	0.8602260680411971 0.0387601783385628 0.5233795919176198	0.106299
H	0.7937981316025735 0.9609295256386351 0.5251878816411029	0.085454
H	0.7157438758954289 0.8899936325088066 0.5240299002542471	0.104312
H	0.6458404822423128 0.8338943155465014 0.5224089771368916	0.122460
H	0.5630319329987136 0.7591223119674416 0.5319220027408730	0.115596
H	0.5645837933316636 0.3832323960980727 0.0321729484536735	0.115050
H	0.6397738909588031 0.4612398046614324 0.0233795919176198	0.106299
H	0.7062018683974265 0.5390704283613611 0.0251879436411012	0.085454
H	0.7842561241045711 0.6100062754911929 0.0240298392542460	0.104312
H	0.8541595177576872 0.6661056384534948 0.0224089771368917	0.122459
H	0.9369680260012866 0.7408776880325584 0.0319219717408740	0.115596
H	0.0645837993316643 0.8832323960980724 0.0321729484536735	0.115050
H	0.1397739319588029 0.9612398046614323 0.0233795919176198	0.106299
H	0.2062018683974261 0.0390704713613614 0.0251879436411012	0.085454
H	0.2842560821045679 0.1100063094911955 0.0240298392542460	0.104312
H	0.3541595177576874 0.1661056614534934 0.0224089771368917	0.122459
H	0.4369680670012869 0.2408776650325601 0.0319219717408739	0.115596
H	0.5645837933316636 0.6167676039019276 -0.0321729054536734	0.115050
H	0.6397738909588031 0.5387602423385680 -0.0233796189176257	0.106299
H	0.7062018683974265 0.4609295256386349 -0.0251878996410973	0.085454
H	0.7842561241045711 0.3899937015088020 -0.0240298932542433	0.104311
H	0.8541595177576872 0.3338943155465011 -0.0224089771368919	0.122459
H	0.9369680260012866 0.2591223349674398 -0.0319220097408771	0.115596
H	0.0645837993316643 0.1167676389019268 -0.0321729054536734	0.115050
H	0.1397739319588029 0.0387601783385628 -0.0233796189176257	0.106299
H	0.2062018683974261 0.9609295256386351 -0.0251878996410973	0.085454
H	0.2842560821045679 0.8899936325088066 -0.0240298932542433	0.104312
H	0.3541595177576874 0.8338943155465014 -0.0224089771368919	0.122460
H	0.4369680670012869 0.7591223119674416 -0.0319220097408771	0.115596
H	0.4354162066683361 0.3832323960980727 0.4678270825463257	0.115050
H	0.3602261090411968 0.4612398046614324 0.4766204390823792	0.106299
H	0.2937981526025720 0.5390704283613611 0.4748120873588981	0.085454
H	0.2157439178954321 0.6100062754911929 0.4759700687457534	0.104312
H	0.1458404922423133 0.6661056384534948 0.4775909918631093	0.122459
H	0.0630319019987142 0.7408776880325584 0.4680779972591270	0.115596
H	0.9354161646683329 0.8832323960980724 0.4678270825463257	0.115050
H	0.8602260680411971 0.9612398046614323 0.4766204390823792	0.106299
H	0.7937981316025735 0.0390704713613614 0.4748120873588981	0.085454
H	0.7157438758954289 0.1100063094911955 0.4759700687457534	0.104312
H	0.6458404822423128 0.1661056614534934 0.4775909918631093	0.122459
H	0.5630319329987136 0.2408776650325601 0.4680779972591270	0.115595
H	0.5645837933316636 0.3832323960980727 0.4678270825463257	0.115050
H	0.6397738909588031 0.4612398046614324 0.4766204390823792	0.106299
H	0.7062018683974265 0.5390704283613611 0.4748120873588981	0.085454
H	0.7842561241045711 0.6100062754911929 0.4759700687457534	0.104312
H	0.8541595177576872 0.6661056384534948 0.4775909918631093	0.122459
H	0.9369680260012866 0.7408776880325584 0.4680779972591270	0.115596
H	0.0645837993316643 0.8832323960980724 0.4678270825463257	0.115050
H	0.1397739319588029 0.9612398046614323 0.4766204390823792	0.106299
H	0.2062018683974261 0.0390704713613614 0.4748120873588981	0.085454
H	0.2842560821045679 0.1100063094911955 0.4759700687457534	0.104312
H	0.3541595177576874 0.1661056614534934 0.4775909918631093	0.122459
H	0.4369680670012869 0.2408776650325601 0.4680779972591270	0.115595
H	0.4354162066683361 0.6167676039019276 -0.0321729054536734	0.115050
H	0.3602261090411968 0.5387602423385680 -0.0233796189176257	0.106299
H	0.2937981526025720 0.4609295256386349 -0.0251878996410973	0.085454
H	0.2157439178954321 0.3899937015088020 -0.0240298932542433	0.104312
H	0.1458404922423133 0.3338943155465011 -0.0224089771368919	0.122459
H	0.0630319019987142 0.2591223349674398 -0.0319220097408771	0.115596
H	0.9354161646683329 0.1167676389019268 -0.0321729054536734	0.115050
H	0.8602260680411971 0.0387601783385628 -0.0233796189176257	0.106299
H	0.7937981316025735 0.9609295256386351 -0.0251878996410973	0.085454
H	0.7157438758954289 0.8899936325088066 -0.0240298932542433	0.104312
H	0.6458404822423128 0.8338943155465014 -0.0224089771368919	0.122459
H	0.5630319329987136 0.7591223119674416 -0.0319220097408771	0.115596
H	0.4354162066683361 0.3832323960980727 0.0321729484536735	0.115050
H	0.3602261090411968 0.4612398046614324 0.0233795919176198	0.106299
H	0.2937981526025720 0.5390704283613611 0.0251879436411012	0.085454
H	0.2157439178954321 0.6100062754911929 0.0240298392542460	0.104312
H	0.1458404922423133 0.6661056384534948 0.0224089771368917	0.122459
H	0.0630319019987142 0.7408776880325584 0.0319219717408739	0.115596
H	0.9354161646683329 0.8832323960980724 0.0321729484536735	0.115050
H	0.8602260680411971 0.9612398046614323 0.0233795919176198	0.106299
H	0.7937981316025735 0.0390704713613614 0.0251879436411012	0.085454
H	0.7157438758954289 0.1100063094911955 0.0240298392542460	0.104312
H	0.6458404822423128 0.1661056614534934 0.0224089771368917	0.122459
H	0.5630319329987136 0.2408776650325601 0.0319219717408740	0.115596
H	0.5645837933316636 0.6167676039019276 0.5321728864536752	0.115050
H	0.6397738909588031 0.5387602423385680 0.5233795919176198	0.106299
H	0.7062018683974265 0.4609295256386349 0.5251878816411029	0.085454
H	0.7842561241045711 0.3899937015088021 0.5240299002542471	0.104312
H	0.8541595177576872 0.3338943155465011 0.5224089771368917	0.122460
H	0.9369680260012866 0.2591223349674398 0.5319220027408730	0.115596
H	0.0645837993316643 0.1167676389019268 0.5321728864536752	0.115050
H	0.1397739319588029 0.0387601783385628 0.5233795919176198	0.106299
H	0.2062018683974261 0.9609295256386351 0.5251878816411029	0.085454
H	0.2842560821045679 0.8899936325088066 0.5240299002542471	0.104312
H	0.3541595177576874 0.8338943155465014 0.5224089771368917	0.122460
H	0.4369680670012869 0.7591223119674416 0.5319220027408730	0.115596
Cu	0.5000000000000000 0.6884328819445358 0.7500000149999977	0.663033
Cu	0.0000000000000000 0.1884329399445336 0.7500000149999977	0.663034
Cu	0.5000000000000000 0.3115670480554656 0.2500000000000000	0.663034
Cu	0.0000000000000000 0.8115671180554642 0.2500000000000000	0.663033
F	0.5000000000000000 0.6845997848901798 0.4571959721701511	-0.671029
F	0.0000000000000000 0.1845998198901792 0.4571959721701511	-0.671033
F	0.5000000000000000 0.3154001921098146 0.9571959721701511	-0.671033
F	0.0000000000000000 0.8154002151098202 0.9571959721701511	-0.671029
F	0.5000000000000000 0.6845997848901798 0.0428040138298480	-0.671029
F	0.0000000000000000 0.1845998198901792 0.0428040138298480	-0.671033
F	0.5000000000000000 0.3154001921098146 0.5428039978298465	-0.671033
F	0.0000000000000000 0.8154002151098202 0.5428039978298465	-0.671029
F	0.4423500248212546 0.7484655741152534 0.2500000000000000	-0.673915
F	0.5570723347875366 0.6171477041988519 0.2500000000000000	-0.666090
F	0.9423500248212547 0.2484655741152528 0.2500000000000000	-0.673900
F	0.0570723557875419 0.1171477041988518 0.2500000000000000	-0.666090
F	0.5576499341787454 0.2515344028847487 0.7500000149999977	-0.673900
F	0.4429276652124634 0.3828522958011482 0.7500000149999977	-0.666090
F	0.0576499861787498 0.7515344258847466 0.7500000149999977	-0.673915
F	0.9429276652124634 0.8828522958011481 0.7500000149999977	-0.666090
F	0.5576499341787454 0.7484655741152534 0.2500000000000000	-0.673916
F	0.4429276652124634 0.6171477041988519 0.2500000000000000	-0.666090
F	0.0576499861787498 0.2484655741152528 0.2500000000000000	-0.673901
F	0.9429276652124634 0.1171477041988518 0.2500000000000000	-0.666090
F	0.4423500248212546 0.2515344028847487 0.7500000149999977	-0.673900
F	0.5570723347875366 0.3828522958011482 0.7500000149999977	-0.666090
F	0.9423500248212547 0.7515344258847466 0.7500000149999977	-0.673915
F	0.0570723557875419 0.8828522958011481 0.7500000149999977	-0.666090
N	0.4393669485336248 0.6201345418244685 0.7500000149999977	-0.215049
N	0.5606063916586391 0.7566152584413374 0.7500000149999977	-0.223855
N	0.9393669075336172 0.1201345298244676 0.7500000149999977	-0.215049
N	0.0606063656586373 0.2566152354413314 0.7500000149999977	-0.223855
N	0.5606330514663759 0.3798654581755314 0.2500000000000000	-0.215049
N	0.4393936083413607 0.2433847645586684 0.2500000000000000	-0.223855
N	0.0606330514663754 0.8798654581755315 0.2500000000000000	-0.215048
N	0.9393936493413607 0.7433847415586626 0.2500000000000000	-0.223855
N	0.5606330514663759 0.6201345418244685 0.7500000149999977	-0.215049
N	0.4393936083413607 0.7566152584413374 0.7500000149999977	-0.223855
N	0.0606330514663754 0.1201345298244676 0.7500000149999977	-0.215048
N	0.9393936493413607 0.2566152354413314 0.7500000149999977	-0.223855
N	0.4393669485336248 0.3798654581755314 0.2500000000000000	-0.215048
N	0.5606063916586391 0.2433847645586684 0.2500000000000000	-0.223855
N	0.9393669075336172 0.8798654581755315 0.2500000000000000	-0.215049
N	0.0606063656586373 0.7433847415586626 0.2500000000000000	-0.223855
Ti	0.5000000000000000 0.6832384865640608 0.2500000000000000	2.351234
Ti	0.0000000000000000 0.1832385105640626 0.2500000000000000	2.351211
Ti	0.5000000000000000 0.3167614664359389 0.7500000149999977	2.351211
Ti	0.0000000000000000 0.8167615134359392 0.7500000149999977	2.351234
	  	
