#======================================================================

# CRYSTAL DATA

#----------------------------------------------------------------------

data_VESTA_phase_1


_pd_phase_name                         TIFSIX_5_Co_i
_cell_length_a                         19.61274
_cell_length_b                         19.61274
_cell_length_c                         16.14535
_cell_angle_alpha                      90
_cell_angle_beta                       90
_cell_angle_gamma                      90
_symmetry_space_group_name_H-M         P 1
_symmetry_Int_Tables_number            1

loop_
_symmetry_equiv_pos_as_xyz
   x, y, z

loop_
   _atom_site_label
   _atom_site_fract_x
   _atom_site_fract_y
   _atom_site_fract_z
   _atom_site_charge
F	0.3240678918509678 0.1875265572554810 0.3513381325413183	-0.659118
F	0.1759320961490311 0.3124734427445189 0.3513381325413183	-0.659122
F	0.3124734427445189 0.3240678918509678 0.3513381325413183	-0.659120
F	0.1875265572554810 0.1759320961490310 0.3513381325413183	-0.659120
F	0.6759321321490267 0.6875265812554829 0.1486618674586818	-0.659119
F	0.8240678678509733 0.8124734187445171 0.1486618674586818	-0.659120
F	0.6875265812554829 0.8240678678509733 0.1486618674586818	-0.659121
F	0.8124734187445171 0.6759321321490267 0.1486618674586818	-0.659118
F	0.6759321321490267 0.8124734187445171 0.6486618994586845	-0.659122
F	0.8240678678509733 0.6875265812554829 0.6486618994586845	-0.659118
F	0.6875265812554829 0.6759321321490267 0.6486618994586845	-0.659119
F	0.8124734187445171 0.8240678678509733 0.6486618994586845	-0.659120
F	0.3240678918509678 0.3124734427445189 0.8513381005413155	-0.659121
F	0.1759320961490310 0.1875265572554810 0.8513381005413155	-0.659120
F	0.3124734427445189 0.1759320961490310 0.8513381005413155	-0.659119
F	0.1875265572554810 0.3240678918509678 0.8513381005413155	-0.659122
F	0.2500000000000000 0.2500000000000000 0.4691457547016545	-0.619389
F	0.2500000000000000 0.2500000000000000 0.2334029379104879	-0.619946
F	0.7500000000000000 0.7500000000000000 0.0308542722983444	-0.619387
F	0.7500000000000000 0.7500000000000000 0.2665970460895106	-0.619943
F	0.7500000000000000 0.7500000000000000 0.5308542762983446	-0.619385
F	0.7500000000000000 0.7500000000000000 0.7665970460895108	-0.619944
F	0.2500000000000000 0.2500000000000000 0.9691457237016554	-0.619388
F	0.2500000000000000 0.2500000000000000 0.7334029539104892	-0.619948
N	0.3503169514022987 0.2476932664272933 0.6014615374814403	-0.192413
N	0.1496830485977013 0.2523067335727067 0.6014615374814403	-0.192411
N	0.2523067335727067 0.3503169514022987 0.6014615374814403	-0.192411
N	0.2476932664272933 0.1496830485977013 0.6014615374814403	-0.192413
N	0.6496830725977034 0.7476932424272914 0.8985384625185597	-0.192344
N	0.8503169274022966 0.7523067575727086 0.8985384625185597	-0.192339
N	0.7476932424272914 0.8503169274022966 0.8985384625185597	-0.192343
N	0.7523067575727086 0.6496830725977034 0.8985384625185597	-0.192341
N	0.6496830725977034 0.7523067575727086 0.3985384935185586	-0.192340
N	0.8503169274022966 0.7476932424272914 0.3985384935185586	-0.192340
N	0.7476932424272914 0.6496830725977034 0.3985384935185586	-0.192342
N	0.7523067575727086 0.8503169274022966 0.3985384935185586	-0.192338
N	0.3503169514022987 0.2523067335727067 0.1014615374814402	-0.192409
N	0.1496830485977013 0.2476932664272933 0.1014615374814402	-0.192412
N	0.2523067335727067 0.1496830485977013 0.1014615374814402	-0.192409
N	0.2476932664272933 0.3503169514022987 0.1014615374814402	-0.192412
C	0.3842105116908226 0.2185724830464240 0.6651768073555463	0.095310
C	0.4548870102285144 0.2171844645490451 0.6685756714743495	-0.173395
C	0.4934749522811293 0.2471179510550048 0.6050973264193276	0.103565
C	0.4573337463117350 0.2768906300385900 0.5393477979800477	-0.176036
C	0.3865565986467546 0.2761042024696030 0.5391774059460650	0.095622
C	0.5685203244697437 0.2478018603190695 0.6080923710809799	0.054468
C	0.6050960255894045 0.1911030103200681 0.6376793658485252	-0.129511
C	0.6759343444789868 0.1918870540639569 0.6402666786963136	-0.127097
C	0.7125009678658560 0.2497825180815685 0.6147141577912445	0.071058
C	0.6760266077730914 0.3068106578937445 0.5863264730867712	-0.122380
C	0.6052374185999528 0.3055878438434558 0.5822659701998252	-0.124933
C	0.1157894643091825 0.2814275409535780 0.6651768073555463	0.095303
C	0.0451129297714877 0.2828155594509569 0.6685756714743495	-0.173393
C	0.0065250267188725 0.2528820489449952 0.6050973264193276	0.103562
C	0.0426662806882638 0.2231093699614102 0.5393477979800477	-0.176031
C	0.1134433653532425 0.2238958215303989 0.5391774059460650	0.095619
C	0.9314796275302595 0.2521981156809286 0.6080923710809799	0.054468
C	0.8949040224105924 0.3088970246799315 0.6376793658485252	-0.129509
C	0.8240656555210132 0.3081129579360369 0.6402666786963136	-0.127095
C	0.7874990321341440 0.2502174579184295 0.6147141577912445	0.071048
C	0.8239734392269089 0.1931893421062557 0.5863264730867712	-0.122375
C	0.8947626774000480 0.1944121911565436 0.5822659701998252	-0.124933
C	0.2814275409535780 0.3842105116908226 0.6651768073555463	0.095304
C	0.2828155594509569 0.4548870102285144 0.6685756714743495	-0.173392
C	0.2528820489449952 0.4934749522811293 0.6050973264193276	0.103563
C	0.2231093699614102 0.4573337463117350 0.5393477979800477	-0.176033
C	0.2238958215303989 0.3865565986467546 0.5391774059460650	0.095622
C	0.2521981156809286 0.5685203244697437 0.6080923710809799	0.054467
C	0.3088970246799315 0.6050960255894045 0.6376793658485252	-0.129512
C	0.3081129579360369 0.6759343444789868 0.6402666786963136	-0.127097
C	0.2502174579184295 0.7125009678658560 0.6147141577912445	0.071056
C	0.1931893421062557 0.6760266077730914 0.5863264730867712	-0.122379
C	0.1944121911565436 0.6052374185999528 0.5822659701998252	-0.124935
C	0.2185724830464240 0.1157894643091825 0.6651768073555463	0.095308
C	0.2171844645490451 0.0451129297714877 0.6685756714743495	-0.173394
C	0.2471179510550048 0.0065250267188725 0.6050973264193276	0.103564
C	0.2768906300385900 0.0426662806882638 0.5393477979800477	-0.176033
C	0.2761042024696030 0.1134433653532425 0.5391774059460650	0.095619
C	0.2478018603190695 0.9314796275302595 0.6080923710809799	0.054469
C	0.1911030103200681 0.8949040224105924 0.6376793658485252	-0.129509
C	0.1918870540639569 0.8240656555210132 0.6402666786963136	-0.127094
C	0.2497825180815685 0.7874990321341440 0.6147141577912445	0.071051
C	0.3068106578937445 0.8239734392269089 0.5863264730867712	-0.122376
C	0.3055878438434558 0.8947626774000480 0.5822659701998252	-0.124933
C	0.6157894643091827 0.7185725310464208 0.8348231926444537	0.095301
C	0.5451129417714886 0.7171844885490395 0.8314243285256505	-0.173430
C	0.5065250477188707 0.7471179990550015 0.8949026735806724	0.103573
C	0.5426663496882660 0.7768905820385857 0.9606522020199523	-0.176033
C	0.6134434253532400 0.7761042264695979 0.9608225940539350	0.095601
C	0.4314796755302566 0.7478019323190680 0.8919076289190201	0.054468
C	0.3949039744105957 0.6911029753200686 0.8623206341514748	-0.129509
C	0.3240655835210074 0.6918870180639614 0.8597333213036864	-0.127096
C	0.2874990801341482 0.7497825420815707 0.8852858422087555	0.071056
C	0.3239733442269046 0.8068106578937444 0.9136735269132288	-0.122378
C	0.3947626054000420 0.8055877728434535 0.9177340298001748	-0.124930
C	0.8842105356908173 0.7814274689535792 0.8348231926444537	0.095299
C	0.9548870582285114 0.7828155114509605 0.8314243285256505	-0.173425
C	0.9934750002811261 0.7528820009449985 0.8949026735806724	0.103572
C	0.9573336983117380 0.7231094179614143 0.9606522020199523	-0.176030
C	0.8865565746467600 0.7238957735304021 0.9608225940539350	0.095593
C	0.0685203604697392 0.7521980676809320 0.8919076289190201	0.054466
C	0.1050960135894033 0.8088970246799314 0.8623206341514748	-0.129511
C	0.1759343924789906 0.8081129339360418 0.8597333213036864	-0.127096
C	0.2125009198658519 0.7502174579184293 0.8852858422087555	0.071050
C	0.1760266317730935 0.6931893421062556 0.9136735269132288	-0.122377
C	0.1052373945999580 0.6944121801565462 0.9177340298001748	-0.124934
C	0.7185725310464208 0.8842105356908173 0.8348231926444537	0.095306
C	0.7171844885490395 0.9548870582285114 0.8314243285256505	-0.173427
C	0.7471179990550015 0.9934750002811261 0.8949026735806724	0.103572
C	0.7768905820385857 0.9573336983117380 0.9606522020199523	-0.176033
C	0.7761042264695979 0.8865565746467600 0.9608225940539350	0.095594
C	0.7478019323190680 0.0685203604697392 0.8919076289190201	0.054466
C	0.6911029753200686 0.1050960135894033 0.8623206341514748	-0.129512
C	0.6918870180639614 0.1759343924789906 0.8597333213036864	-0.127095
C	0.7497825420815707 0.2125009198658519 0.8852858422087555	0.071056
C	0.8068106578937444 0.1760266317730935 0.9136735269132288	-0.122377
C	0.8055877728434535 0.1052373945999580 0.9177340298001748	-0.124933
C	0.7814274689535792 0.6157894643091827 0.8348231926444537	0.095294
C	0.7828155114509605 0.5451129417714886 0.8314243285256505	-0.173428
C	0.7528820009449985 0.5065250477188707 0.8949026735806724	0.103573
C	0.7231094179614143 0.5426663496882660 0.9606522020199523	-0.176028
C	0.7238957735304021 0.6134434253532400 0.9608225940539350	0.095600
C	0.7521980676809320 0.4314796755302566 0.8919076289190201	0.054468
C	0.8088970246799314 0.3949039744105957 0.8623206341514748	-0.129509
C	0.8081129339360418 0.3240655835210074 0.8597333213036864	-0.127096
C	0.7502174579184293 0.2874990801341482 0.8852858422087555	0.071049
C	0.6931893421062556 0.3239733442269046 0.9136735269132288	-0.122377
C	0.6944121801565462 0.3947626054000420 0.9177340298001748	-0.124932
C	0.6157894643091827 0.7814274689535792 0.3348232236444527	0.095297
C	0.5451129417714886 0.7828155114509605 0.3314243285256505	-0.173428
C	0.5065250477188707 0.7528820009449985 0.3949026735806723	0.103572
C	0.5426663496882660 0.7231094179614143 0.4606522330199584	-0.176028
C	0.6134434253532400 0.7238957735304021 0.4608225940539354	0.095600
C	0.4314796755302566 0.7521980676809320 0.3919076289190200	0.054467
C	0.3949039744105957 0.8088970246799314 0.3623206031514757	-0.129508
C	0.3240655835210074 0.8081129339360418 0.3597333523036852	-0.127097
C	0.2874990801341482 0.7502174579184293 0.3852857482087553	0.071057
C	0.3239733442269046 0.6931893421062556 0.4136735579132277	-0.122376
C	0.3947626054000420 0.6944121801565462 0.4177340298001751	-0.124933
C	0.8842105356908173 0.7185725310464208 0.3348232236444527	0.095304
C	0.9548870582285114 0.7171844885490395 0.3314243285256505	-0.173425
C	0.9934750002811261 0.7471179990550015 0.3949026735806723	0.103574
C	0.9573336983117380 0.7768905820385857 0.4606522330199584	-0.176034
C	0.8865565746467600 0.7761042264695979 0.4608225940539354	0.095595
C	0.0685203604697392 0.7478019323190680 0.3919076289190200	0.054467
C	0.1050960135894033 0.6911029753200686 0.3623206031514757	-0.129511
C	0.1759343924789906 0.6918870180639614 0.3597333523036852	-0.127097
C	0.2125009198658519 0.7497825420815707 0.3852857482087553	0.071050
C	0.1760266317730935 0.8068106578937444 0.4136735579132277	-0.122379
C	0.1052373945999580 0.8055877728434535 0.4177340298001751	-0.124933
C	0.7185725310464208 0.6157894643091827 0.3348232236444527	0.095302
C	0.7171844885490395 0.5451129417714886 0.3314243285256505	-0.173429
C	0.7471179990550015 0.5065250477188707 0.3949026735806723	0.103574
C	0.7768905820385857 0.5426663496882660 0.4606522330199584	-0.176030
C	0.7761042264695979 0.6134434253532400 0.4608225940539354	0.095599
C	0.7478019323190680 0.4314796755302566 0.3919076289190200	0.054468
C	0.6911029753200686 0.3949039744105957 0.3623206031514757	-0.129508
C	0.6918870180639614 0.3240655835210074 0.3597333523036852	-0.127096
C	0.7497825420815707 0.2874990801341482 0.3852857482087553	0.071059
C	0.8068106578937444 0.3239733442269046 0.4136735579132277	-0.122377
C	0.8055877728434535 0.3947626054000420 0.4177340298001751	-0.124932
C	0.7814274689535792 0.8842105356908173 0.3348232236444527	0.095298
C	0.7828155114509605 0.9548870582285114 0.3314243285256505	-0.173422
C	0.7528820009449985 0.9934750002811261 0.3949026735806723	0.103572
C	0.7231094179614143 0.9573336983117380 0.4606522330199584	-0.176031
C	0.7238957735304021 0.8865565746467600 0.4608225940539353	0.095594
C	0.7521980676809320 0.0685203604697392 0.3919076289190200	0.054467
C	0.8088970246799314 0.1050960135894033 0.3623206031514757	-0.129512
C	0.8081129339360418 0.1759343924789906 0.3597333523036852	-0.127097
C	0.7502174579184293 0.2125009198658519 0.3852857482087553	0.071048
C	0.6931893421062556 0.1760266317730935 0.4136735579132277	-0.122378
C	0.6944121801565462 0.1052373945999580 0.4177340298001751	-0.124935
C	0.3842105116908226 0.2814275409535780 0.1651767923555486	0.095305
C	0.4548870102285144 0.2828155594509569 0.1685756404743505	-0.173393
C	0.4934749522811293 0.2528820489449952 0.1050973264193277	0.103564
C	0.4573337463117350 0.2231093699614102 0.0393477629800483	-0.176031
C	0.3865565986467546 0.2238958215303989 0.0391773979460641	0.095621
C	0.5685203244697437 0.2521981156809286 0.1080923630809792	0.054467
C	0.6050960255894045 0.3088970246799315 0.1376793658485252	-0.129511
C	0.6759343444789868 0.3081129579360369 0.1402666316963135	-0.127098
C	0.7125009678658560 0.2502174579184295 0.1147142287912465	0.071058
C	0.6760266077730914 0.1931893421062558 0.0863264570867699	-0.122378
C	0.6052374185999528 0.1944121911565436 0.0822659851998226	-0.124934
C	0.1157894643091825 0.2185724830464240 0.1651767923555486	0.095308
C	0.0451129297714877 0.2171844645490451 0.1685756404743505	-0.173393
C	0.0065250267188725 0.2471179510550048 0.1050973264193277	0.103563
C	0.0426662806882638 0.2768906300385900 0.0393477629800483	-0.176034
C	0.1134433653532425 0.2761042024696030 0.0391773979460641	0.095620
C	0.9314796275302595 0.2478018603190695 0.1080923630809792	0.054469
C	0.8949040224105924 0.1911030103200681 0.1376793658485252	-0.129510
C	0.8240656555210132 0.1918870540639569 0.1402666316963135	-0.127095
C	0.7874990321341440 0.2497825180815685 0.1147142287912465	0.071048
C	0.8239734392269089 0.3068106578937445 0.0863264570867699	-0.122376
C	0.8947626774000480 0.3055878438434558 0.0822659851998226	-0.124930
C	0.2814275409535780 0.1157894643091825 0.1651767923555486	0.095301
C	0.2828155594509569 0.0451129297714877 0.1685756404743505	-0.173390
C	0.2528820489449952 0.0065250267188725 0.1050973264193277	0.103564
C	0.2231093699614102 0.0426662806882638 0.0393477629800483	-0.176030
C	0.2238958215303989 0.1134433653532425 0.0391773979460641	0.095620
C	0.2521981156809286 0.9314796275302595 0.1080923630809792	0.054469
C	0.3088970246799315 0.8949040224105924 0.1376793658485252	-0.129510
C	0.3081129579360369 0.8240656555210132 0.1402666316963135	-0.127097
C	0.2502174579184295 0.7874990321341440 0.1147142287912465	0.071058
C	0.1931893421062557 0.8239734392269089 0.0863264570867699	-0.122378
C	0.1944121911565436 0.8947626774000480 0.0822659851998226	-0.124932
C	0.2185724830464240 0.3842105116908226 0.1651767923555486	0.095312
C	0.2171844645490451 0.4548870102285144 0.1685756404743505	-0.173394
C	0.2471179510550048 0.4934749522811293 0.1050973264193277	0.103564
C	0.2768906300385900 0.4573337463117350 0.0393477629800483	-0.176034
C	0.2761042024696030 0.3865565986467546 0.0391773979460641	0.095621
C	0.2478018603190695 0.5685203244697437 0.1080923630809792	0.054468
C	0.1911030103200681 0.6050960255894045 0.1376793658485252	-0.129513
C	0.1918870540639569 0.6759343444789868 0.1402666316963135	-0.127095
C	0.2497825180815685 0.7125009678658560 0.1147142287912465	0.071048
C	0.3068106578937445 0.6760266077730914 0.0863264570867699	-0.122376
C	0.3055878438434558 0.6052374185999528 0.0822659851998226	-0.124933
H	0.3535201816581351 0.1973595085765791 0.7152086920343136	0.107526
H	0.4796285354556994 0.1944567607152204 0.7223186412414228	0.118297
H	0.4841268764134812 0.2996335918636103 0.4870752758206630	0.118162
H	0.3575765790536528 0.2977400380523437 0.4878850936347373	0.107590
H	0.5773682690871201 0.1456379081374825 0.6573157855749059	0.100247
H	0.7035785942661292 0.1476213572657416 0.6635137098106959	0.102639
H	0.7037447977698252 0.3516557070188213 0.5649335498393399	0.102858
H	0.5777103038721839 0.3502896441980302 0.5599344116048779	0.103798
H	0.1464797823418620 0.3026405154234227 0.7152086920343136	0.107526
H	0.0203714705442940 0.3055432632847814 0.7223186412414228	0.118299
H	0.0158731125865214 0.2003664201363906 0.4870752758206630	0.118159
H	0.1424234449463491 0.2022599499476553 0.4878850936347373	0.107590
H	0.9226317779128802 0.3543620918625174 0.6573157855749059	0.100247
H	0.7964214057338708 0.3523786307342573 0.6635137098106959	0.102638
H	0.7962552022301748 0.1483443049811796 0.5649335498393399	0.102862
H	0.9222896961278161 0.1497103438019759 0.5599344116048779	0.103801
H	0.3026405154234227 0.3535201816581351 0.7152086920343136	0.107527
H	0.3055432632847814 0.4796285354556994 0.7223186412414228	0.118299
H	0.2003664201363906 0.4841268764134812 0.4870752758206630	0.118161
H	0.2022599499476552 0.3575765790536528 0.4878850936347373	0.107590
H	0.3543620918625174 0.5773682690871201 0.6573157855749059	0.100248
H	0.3523786307342573 0.7035785942661292 0.6635137098106959	0.102638
H	0.1483443049811796 0.7037447977698252 0.5649335498393399	0.102861
H	0.1497103438019759 0.5777103038721839 0.5599344116048779	0.103803
H	0.1973595085765791 0.1464797823418620 0.7152086920343136	0.107525
H	0.1944567607152204 0.0203714705442940 0.7223186412414228	0.118297
H	0.2996335918636103 0.0158731125865214 0.4870752758206630	0.118160
H	0.2977400380523437 0.1424234449463491 0.4878850936347373	0.107590
H	0.1456379081374825 0.9226317779128802 0.6573157855749059	0.100250
H	0.1476213572657416 0.7964214057338708 0.6635137098106959	0.102639
H	0.3516557070188213 0.7962552022301748 0.5649335498393399	0.102860
H	0.3502896441980302 0.9222896961278161 0.5599344116048779	0.103800
H	0.6464797703418609 0.6973595085765795 0.7847913079656864	0.107513
H	0.5203714165442966 0.6944567367152185 0.7776813587585772	0.118304
H	0.5158731235865187 0.7996335918636105 0.0129247091793323	0.118160
H	0.6424234209463473 0.7977400140523413 0.0121149343652652	0.107589
H	0.4226317309128800 0.6456379081374826 0.8426842144250941	0.100251
H	0.2964214297338727 0.6476213692657424 0.8364862901893041	0.102639
H	0.2962552022301745 0.8516557070188213 0.9350664501606601	0.102860
H	0.4222897441278125 0.8502896681980254 0.9400655883951221	0.103800
H	0.8535202776581360 0.8026405394234245 0.7847913079656864	0.107514
H	0.9796284874557025 0.8055432632847815 0.7776813587585772	0.118302
H	0.9841268284134844 0.7003664081363895 0.0129247091793323	0.118161
H	0.8575764830536519 0.7022599859476587 0.0121149343652652	0.107599
H	0.0773682690871199 0.8543620918625174 0.8426842144250941	0.100247
H	0.2035785702661273 0.8523786307342576 0.8364862901893041	0.102636
H	0.2037447977698257 0.6483443409811755 0.9350664501606601	0.102860
H	0.0777102978721838 0.6497103318019746 0.9400655883951221	0.103799
H	0.6973595085765795 0.8535202776581360 0.7847913079656864	0.107513
H	0.6944567367152185 0.9796284874557025 0.7776813587585772	0.118302
H	0.7996335918636105 0.9841268284134844 0.0129247091793323	0.118162
H	0.7977400140523413 0.8575764830536519 0.0121149343652652	0.107599
H	0.6456379081374826 0.0773682690871199 0.8426842144250941	0.100251
H	0.6476213692657424 0.2035785702661273 0.8364862901893041	0.102638
H	0.8516557070188213 0.2037447977698257 0.9350664501606601	0.102859
H	0.8502896681980254 0.0777102978721838 0.9400655883951221	0.103801
H	0.8026405394234245 0.6464797703418609 0.7847913079656864	0.107514
H	0.8055432632847815 0.5203714165442966 0.7776813587585772	0.118304
H	0.7003664081363895 0.5158731235865187 0.0129247091793323	0.118158
H	0.7022599859476587 0.6424234209463473 0.0121149343652652	0.107589
H	0.8543620918625174 0.4226317309128800 0.8426842144250941	0.100250
H	0.8523786307342576 0.2964214297338727 0.8364862901893041	0.102637
H	0.6483443409811755 0.2962552022301745 0.9350664501606601	0.102861
H	0.6497103318019746 0.4222897441278125 0.9400655883951221	0.103803
H	0.6464797703418609 0.8026405394234245 0.2847913399656817	0.107513
H	0.5203714165442966 0.8055432632847815 0.2776813897585763	0.118302
H	0.5158731235865187 0.7003664081363895 0.5129246931793381	0.118156
H	0.6424234209463473 0.7022599859476587 0.5121149063652631	0.107590
H	0.4226317309128800 0.8543620918625174 0.3426841834250953	0.100249
H	0.2964214297338727 0.8523786307342576 0.3364862581893014	0.102638
H	0.2962552022301745 0.6483443409811755 0.4350664811606589	0.102863
H	0.4222897441278125 0.6497103318019746 0.4400656503951198	0.103802
H	0.8535202776581360 0.6973595085765795 0.2847913399656817	0.107514
H	0.9796284874557025 0.6944567367152185 0.2776813897585763	0.118297
H	0.9841268284134844 0.7996335918636105 0.5129246931793381	0.118159
H	0.8575764830536519 0.7977400140523413 0.5121149063652631	0.107598
H	0.0773682690871199 0.6456379081374826 0.3426841834250953	0.100246
H	0.2035785702661273 0.6476213692657424 0.3364862581893014	0.102638
H	0.2037447977698257 0.8516557070188213 0.4350664811606589	0.102857
H	0.0777102978721838 0.8502896681980254 0.4400656503951198	0.103799
H	0.6973595085765795 0.6464797703418609 0.2847913399656817	0.107512
H	0.6944567367152185 0.5203714165442966 0.2776813897585763	0.118300
H	0.7996335918636105 0.5158731235865187 0.5129246931793381	0.118157
H	0.7977400140523413 0.6424234209463473 0.5121149063652631	0.107590
H	0.6456379081374826 0.4226317309128800 0.3426841834250953	0.100252
H	0.6476213692657424 0.2964214297338727 0.3364862581893014	0.102639
H	0.8516557070188213 0.2962552022301745 0.4350664811606589	0.102860
H	0.8502896681980254 0.4222897441278125 0.4400656503951198	0.103801
H	0.8026405394234245 0.8535202776581360 0.2847913399656817	0.107514
H	0.8055432632847815 0.9796284874557025 0.2776813897585763	0.118300
H	0.7003664081363895 0.9841268284134844 0.5129246931793381	0.118158
H	0.7022599859476587 0.8575764830536519 0.5121149063652631	0.107598
H	0.8543620918625174 0.0773682690871199 0.3426841834250953	0.100248
H	0.8523786307342576 0.2035785702661273 0.3364862581893014	0.102637
H	0.6483443409811755 0.2037447977698257 0.4350664811606589	0.102859
H	0.6497103318019746 0.0777102978721838 0.4400656503951198	0.103804
H	0.3535201816581351 0.3026405154234227 0.2152086920343138	0.107527
H	0.4796285354556994 0.3055432632847814 0.2223186562414274	0.118296
H	0.4841268764134812 0.2003664201363906 0.9870753378206680	0.118158
H	0.3575765790536528 0.2022599499476553 0.9878850626347379	0.107591
H	0.5773682690871201 0.3543620918625174 0.1573158005749033	0.100250
H	0.7035785942661292 0.3523786307342573 0.1635137568106960	0.102637
H	0.7037447977698252 0.1483443049811796 0.0649335108393402	0.102860
H	0.5777103038721839 0.1497103438019759 0.0599343726048784	0.103800
H	0.1464797823418620 0.1973595085765791 0.2152086920343138	0.107525
H	0.0203714705442940 0.1944567607152204 0.2223186562414274	0.118295
H	0.0158731125865214 0.2996335918636103 0.9870753378206680	0.118157
H	0.1424234449463491 0.2977400380523437 0.9878850626347379	0.107589
H	0.9226317779128802 0.1456379081374825 0.1573158005749033	0.100252
H	0.7964214057338708 0.1476213572657416 0.1635137568106960	0.102638
H	0.7962552022301748 0.3516557070188213 0.0649335108393402	0.102859
H	0.9222896961278161 0.3502896441980302 0.0599343726048784	0.103801
H	0.3026405154234227 0.1464797823418620 0.2152086920343138	0.107526
H	0.3055432632847814 0.0203714705442940 0.2223186562414274	0.118296
H	0.2003664201363906 0.0158731125865214 0.9870753378206680	0.118156
H	0.2022599499476552 0.1424234449463491 0.9878850626347379	0.107589
H	0.3543620918625174 0.9226317779128802 0.1573158005749033	0.100252
H	0.3523786307342573 0.7964214057338708 0.1635137568106960	0.102638
H	0.1483443049811796 0.7962552022301748 0.0649335108393402	0.102861
H	0.1497103438019759 0.9222896961278161 0.0599343726048784	0.103804
H	0.1973595085765791 0.3535201816581351 0.2152086920343138	0.107525
H	0.1944567607152204 0.4796285354556994 0.2223186562414274	0.118296
H	0.2996335918636103 0.4841268764134812 0.9870753378206680	0.118160
H	0.2977400380523437 0.3575765790536528 0.9878850626347379	0.107591
H	0.1456379081374825 0.5773682690871201 0.1573158005749033	0.100255
H	0.1476213572657416 0.7035785942661292 0.1635137568106960	0.102637
H	0.3516557070188213 0.7037447977698252 0.0649335108393402	0.102858
H	0.3502896441980302 0.5777103038721839 0.0599343726048784	0.103802
Co	0.2500000000000000 0.2500000000000000 0.6008015529562639	0.600918
Co	0.7500000000000000 0.7500000000000000 0.8991984470437361	0.600860
Co	0.7500000000000000 0.7500000000000000 0.3991983850437379	0.600855
Co	0.2500000000000000 0.2500000000000000 0.1008015759562625	0.600913
Ti	0.2500000000000000 0.2500000000000000 0.3513718295417214	2.333386
Ti	0.7500000000000000 0.7500000000000000 0.1486281854582763	2.333386
Ti	0.7500000000000000 0.7500000000000000 0.6486282634582753	2.333386
Ti	0.2500000000000000 0.2500000000000000 0.8513717365417247	2.333386
	  	
