#======================================================================

# CRYSTAL DATA

#----------------------------------------------------------------------

data_VESTA_phase_1


_pd_phase_name                         TIFSIX_16_Co_i
_cell_length_a                         24.79382
_cell_length_b                         24.79382
_cell_length_c                         8.05252
_cell_angle_alpha                      90
_cell_angle_beta                       90
_cell_angle_gamma                      90
_symmetry_space_group_name_H-M         P 1
_symmetry_Int_Tables_number            1

loop_
_symmetry_equiv_pos_as_xyz
   x, y, z

loop_
   _atom_site_label
   _atom_site_fract_x
   _atom_site_fract_y
   _atom_site_fract_z
   _atom_site_charge
C	0.4784897710500318 0.3925326855015696 0.3715061491270947	0.092265
C	0.4777280065974188 0.3365927341774378 0.3673068975338896	-0.165022
C	0.9546860513730149 0.6145282121832290 0.9428154778073298	-0.126196
C	0.9547992642661021 0.5585100657129628 0.9436359118083005	-0.126298
C	0.5215102669499643 0.6074673524984263 0.3715061491270947	0.092265
C	0.5222719934025812 0.6634073038225580 0.3673068975338896	-0.165022
C	0.0453138726269860 0.3854717488167708 0.9428154778073298	-0.126196
C	0.0452007547338956 0.4414899722870406 0.9436359118083005	-0.126298
C	0.6074673524984263 0.4784897710500318 0.3715061491270947	0.092265
C	0.6634073038225580 0.4777280065974188 0.3673068975338896	-0.165022
C	0.3854717488167708 0.9546860513730149 0.9428154778073298	-0.126195
C	0.4414899722870406 0.9547992642661021 0.9436359118083005	-0.126298
C	0.3925326855015696 0.5215102669499643 0.3715061491270947	0.092265
C	0.3365927341774378 0.5222719934025812 0.3673068975338896	-0.165022
C	0.6145282121832290 0.0453138726269860 0.9428154778073298	-0.126196
C	0.5585100657129628 0.0452007547338956 0.9436359118083005	-0.126299
C	0.5215102669499643 0.3925326855015696 0.6284938508729052	0.092265
C	0.5222719934025812 0.3365927341774378 0.6326930704661077	-0.165022
C	0.0453138726269860 0.6145282121832290 0.0571845341926711	-0.126195
C	0.0452007547338956 0.5585100657129628 0.0563640641916974	-0.126298
C	0.4784897710500318 0.6074673524984263 0.6284938508729052	0.092265
C	0.4777280065974188 0.6634073038225580 0.6326930704661077	-0.165022
C	0.9546860513730149 0.3854717488167708 0.0571845341926711	-0.126195
C	0.9547992642661021 0.4414899722870406 0.0563640641916974	-0.126298
C	0.3925326855015696 0.4784897710500318 0.6284938508729052	0.092265
C	0.3365927341774378 0.4777280065974188 0.6326930704661077	-0.165022
C	0.6145282121832290 0.9546860513730149 0.0571845341926711	-0.126195
C	0.5585100657129628 0.9547992642661021 0.0563640641916974	-0.126299
C	0.6074673524984263 0.5215102669499643 0.6284938508729052	0.092265
C	0.6634073038225580 0.5222719934025812 0.6326930704661077	-0.165022
C	0.3854717488167708 0.0453138726269860 0.0571845341926711	-0.126195
C	0.4414899722870406 0.0452007547338956 0.0563640641916974	-0.126298
C	0.5453139106269891 0.8854717108167753 0.5571845541926658	-0.126194
C	0.5452007357338979 0.9414899722870403 0.5563640561916968	-0.126298
C	0.0215102209499675 0.1074672954984323 0.1284938508729052	0.092268
C	0.0222719914025811 0.1634072658225621 0.1326930864661091	-0.165021
C	0.4546861273730140 0.1145282601832262 0.5571845541926658	-0.126194
C	0.4547992262661061 0.0585100127129618 0.5563640561916968	-0.126298
C	0.9784897330500357 0.8925326475015737 0.1284938508729052	0.092191
C	0.9777280065974188 0.8365927341774381 0.1326930864661091	-0.165013
C	0.1145282601832262 0.5453139106269891 0.5571845541926658	-0.126194
C	0.0585100127129618 0.5452007357338979 0.5563640561916968	-0.126298
C	0.8925326475015737 0.0215102209499675 0.1284938508729052	0.092190
C	0.8365927341774381 0.0222719914025811 0.1326930864661091	-0.165013
C	0.8854717108167753 0.4546861273730140 0.5571845541926658	-0.126194
C	0.9414899722870403 0.4547992262661061 0.5563640561916968	-0.126298
C	0.1074672954984323 0.9784897330500357 0.1284938508729052	0.092268
C	0.1634072658225621 0.9777280065974188 0.1326930864661091	-0.165021
C	0.4546861273730140 0.8854717108167753 0.4428154778073300	-0.126194
C	0.4547992262661061 0.9414899722870403 0.4436359438083032	-0.126298
C	0.9784897330500357 0.1074672954984323 0.8715061811270903	0.092269
C	0.9777280065974188 0.1634072658225621 0.8673068975338897	-0.165021
C	0.5453139106269891 0.1145282601832262 0.4428154778073300	-0.126194
C	0.5452007357338979 0.0585100127129618 0.4436359438083032	-0.126298
C	0.0215102209499675 0.8925326475015737 0.8715061811270903	0.092191
C	0.0222719914025811 0.8365927341774381 0.8673068975338897	-0.165013
C	0.8854717108167753 0.5453139106269891 0.4428154778073300	-0.126194
C	0.9414899722870403 0.5452007357338979 0.4436359438083032	-0.126298
C	0.1074672954984323 0.0215102209499675 0.8715061811270903	0.092268
C	0.1634072658225621 0.0222719914025811 0.8673068975338897	-0.165021
C	0.1145282601832262 0.4546861273730140 0.4428154778073300	-0.126194
C	0.0585100127129618 0.4547992262661061 0.4436359438083032	-0.126298
C	0.8925326475015737 0.9784897330500357 0.8715061811270903	0.092191
C	0.8365927341774381 0.9777280065974188 0.8673068975338897	-0.165013
C	0.5000000000000000 0.3071519075132814 0.5000000000000000	0.173422
C	0.5000000000000000 0.2499292315305688 0.5000000000000000	-0.118675
C	0.5000000000000000 0.2007176265972146 0.5000000000000000	-0.090358
C	0.5000000000000000 0.1434929901478176 0.5000000000000000	0.124569
C	0.5000000000000000 0.0296453872996145 0.5000000000000000	0.067197
C	0.0000000000000000 0.8071518885132763 0.0000000000000000	0.173419
C	0.0000000000000000 0.7499292115305674 0.0000000000000000	-0.118674
C	0.0000000000000000 0.7007175885972182 0.0000000000000000	-0.090359
C	0.0000000000000000 0.6434929521478143 0.0000000000000000	0.124570
C	0.0000000000000000 0.5296454012996156 0.0000000000000000	0.067197
C	0.5000000000000000 0.6928480734867205 0.5000000000000000	0.173422
C	0.5000000000000000 0.7500708264694287 0.5000000000000000	-0.118675
C	0.5000000000000000 0.7992823734027857 0.5000000000000000	-0.090359
C	0.5000000000000000 0.8565070098521825 0.5000000000000000	0.124570
C	0.5000000000000000 0.9703545987003844 0.5000000000000000	0.067198
C	0.0000000000000000 0.1928480924867186 0.0000000000000000	0.173422
C	0.0000000000000000 0.2500707684694313 0.0000000000000000	-0.118675
C	0.0000000000000000 0.2992823534027840 0.0000000000000000	-0.090358
C	0.0000000000000000 0.3565070098521824 0.0000000000000000	0.124570
C	0.0000000000000000 0.4703546367003874 0.0000000000000000	0.067198
C	0.6928480734867205 0.5000000000000000 0.5000000000000000	0.173422
C	0.7500708264694287 0.5000000000000000 0.5000000000000000	-0.118675
C	0.7992823734027857 0.5000000000000000 0.5000000000000000	-0.090359
C	0.8565070098521825 0.5000000000000000 0.5000000000000000	0.124570
C	0.9703545987003844 0.5000000000000000 0.5000000000000000	0.067197
C	0.1928480924867186 0.0000000000000000 0.0000000000000000	0.173422
C	0.2500707684694313 0.0000000000000000 0.0000000000000000	-0.118675
C	0.2992823534027840 0.0000000000000000 0.0000000000000000	-0.090358
C	0.3565070098521824 0.0000000000000000 0.0000000000000000	0.124570
C	0.4703546367003874 0.0000000000000000 0.0000000000000000	0.067197
C	0.3071519075132814 0.5000000000000000 0.5000000000000000	0.173422
C	0.2499292315305688 0.5000000000000000 0.5000000000000000	-0.118675
C	0.2007176265972146 0.5000000000000000 0.5000000000000000	-0.090358
C	0.1434929901478176 0.5000000000000000 0.5000000000000000	0.124569
C	0.0296453872996145 0.5000000000000000 0.5000000000000000	0.067198
C	0.8071518885132763 0.0000000000000000 0.0000000000000000	0.173419
C	0.7499292115305674 0.0000000000000000 0.0000000000000000	-0.118674
C	0.7007175885972182 0.0000000000000000 0.0000000000000000	-0.090359
C	0.6434929521478143 0.0000000000000000 0.0000000000000000	0.124570
C	0.5296454012996156 0.0000000000000000 0.0000000000000000	0.067198
H	0.4622170242775362 0.4160909588831196 0.2687668678889676	0.108787
H	0.4601580369208651 0.3158873727567988 0.2611307042452526	0.129718
H	0.9197687203905234 0.6366561962551968 0.8968986996561288	0.112174
H	0.9199413220725770 0.5365690220851161 0.8958460018861841	0.107709
H	0.5377829757224638 0.5839090411168805 0.2687668678889676	0.108787
H	0.5398420010791379 0.6841127032432002 0.2611307042452526	0.129718
H	0.0802312606094789 0.3633438037448031 0.8968986996561288	0.112174
H	0.0800587069274221 0.4634310169148835 0.8958460018861841	0.107709
H	0.5839090411168805 0.4622170242775362 0.2687668678889676	0.108787
H	0.6841127032432002 0.4601580369208651 0.2611307042452526	0.129718
H	0.3633438037448031 0.9197687203905234 0.8968986996561288	0.112174
H	0.4634310169148835 0.9199413220725770 0.8958460018861841	0.107709
H	0.4160909588831196 0.5377829757224638 0.2687668678889676	0.108787
H	0.3158873727567988 0.5398420010791379 0.2611307042452526	0.129718
H	0.6366561962551968 0.0802312606094789 0.8968986996561288	0.112174
H	0.5365690220851161 0.0800587069274221 0.8958460018861841	0.107709
H	0.5377829757224638 0.4160909588831196 0.7312331161110306	0.108787
H	0.5398420010791379 0.3158873727567988 0.7388692957547472	0.129717
H	0.0802312606094789 0.6366561962551968 0.1031012763438693	0.112173
H	0.0800587069274221 0.5365690220851161 0.1041539981138157	0.107709
H	0.4622170242775362 0.5839090411168805 0.7312331161110306	0.108787
H	0.4601580369208651 0.6841127032432002 0.7388692957547472	0.129717
H	0.9197687203905234 0.3633438037448031 0.1031012763438693	0.112172
H	0.9199413220725770 0.4634310169148835 0.1041539981138157	0.107709
H	0.4160909588831196 0.4622170242775362 0.7312331161110306	0.108787
H	0.3158873727567988 0.4601580369208651 0.7388692957547472	0.129717
H	0.6366561962551968 0.9197687203905234 0.1031012763438693	0.112173
H	0.5365690220851161 0.9199413220725770 0.1041539981138157	0.107709
H	0.5839090411168805 0.5377829757224638 0.7312331161110306	0.108787
H	0.6841127032432002 0.5398420010791379 0.7388692957547472	0.129717
H	0.3633438037448031 0.0802312606094789 0.1031012763438693	0.112173
H	0.4634310169148835 0.0800587069274221 0.1041539981138157	0.107709
H	0.5802312796094766 0.8633438037448032 0.6031012683438686	0.112170
H	0.5800586779274230 0.9634310169148835 0.6041540301138185	0.107709
H	0.0377829857224648 0.0839090121168814 0.2312331321110322	0.108787
H	0.0398420060791349 0.1841126462431991 0.2388693277547428	0.129717
H	0.4197687583905260 0.1366562252551958 0.6031012683438686	0.112170
H	0.4199412830725772 0.0365690070851113 0.6041540301138185	0.107709
H	0.9622170242775362 0.9160910358831152 0.2312331321110322	0.108798
H	0.9601579989208621 0.8158874107568022 0.2388693277547428	0.129717
H	0.1366562252551958 0.5802312796094766 0.6031012683438686	0.112170
H	0.0365690070851113 0.5800586779274230 0.6041540301138185	0.107709
H	0.9160910358831152 0.0377829857224648 0.2312331321110322	0.108798
H	0.8158874107568022 0.0398420060791349 0.2388693277547428	0.129717
H	0.8633438037448032 0.4197687583905260 0.6031012683438686	0.112170
H	0.9634310169148835 0.4199412830725772 0.6041540301138185	0.107709
H	0.0839090121168814 0.9622170242775362 0.2312331321110322	0.108787
H	0.1841126462431991 0.9601579989208621 0.2388693277547428	0.129717
H	0.4197687583905260 0.8633438037448032 0.3968986996561287	0.112169
H	0.4199412830725772 0.9634310169148835 0.3958460338861799	0.107709
H	0.9622170242775362 0.0839090121168814 0.7687668518889668	0.108787
H	0.9601579989208621 0.1841126462431991 0.7611306722452572	0.129716
H	0.5802312796094766 0.1366562252551958 0.3968986996561287	0.112169
H	0.5800586779274230 0.0365690070851113 0.3958460338861799	0.107709
H	0.0377829857224648 0.9160910358831152 0.7687668518889668	0.108798
H	0.0398420060791349 0.8158874107568022 0.7611306722452572	0.129716
H	0.8633438037448032 0.5802312796094766 0.3968986996561287	0.112169
H	0.9634310169148835 0.5800586779274230 0.3958460338861799	0.107709
H	0.0839090121168814 0.0377829857224648 0.7687668518889668	0.108787
H	0.1841126462431991 0.0398420060791349 0.7611306722452572	0.129716
H	0.1366562252551958 0.4197687583905260 0.3968986996561287	0.112169
H	0.0365690070851113 0.4199412830725772 0.3958460338861799	0.107709
H	0.9160910358831152 0.9622170242775362 0.7687668518889668	0.108798
H	0.8158874107568022 0.9601579989208621 0.7611306722452572	0.129716
Co	0.5000000000000000 0.5000000000000000 0.5000000000000000	0.605474
Co	0.0000000000000000 0.0000000000000000 0.0000000000000000	0.605649
Ti	0.5000000000000000 0.5000000000000000 0.0000000000000000	2.321291
Ti	0.0000000000000000 0.0000000000000000 0.5000000000000000	2.321297
F	0.5000000000000000 0.5000000000000000 0.2364223994880333	-0.618720
F	0.0000000000000000 0.0000000000000000 0.7364223674880378	-0.618736
F	0.5000000000000000 0.5000000000000000 0.7635775365119685	-0.618720
F	0.0000000000000000 0.0000000000000000 0.2635776005119667	-0.618736
F	0.5542112795200239 0.5542112795200239 0.0000000000000000	-0.655209
F	0.0542112325200237 0.0542112325200237 0.5000000000000000	-0.655209
F	0.4457887964799822 0.4457887964799822 0.0000000000000000	-0.655209
F	0.9457887584799792 0.9457887584799792 0.5000000000000000	-0.655210
F	0.4457887964799822 0.5542112795200239 0.0000000000000000	-0.655209
F	0.9457887584799792 0.0542112325200237 0.5000000000000000	-0.655209
F	0.5542112795200239 0.4457887964799822 0.0000000000000000	-0.655209
F	0.0542112325200237 0.9457887584799792 0.5000000000000000	-0.655209
N	0.5000000000000000 0.4202744737924043 0.5000000000000000	-0.189546
N	0.0000000000000000 0.9202745117924073 0.0000000000000000	-0.189492
N	0.5000000000000000 0.5797255262075958 0.5000000000000000	-0.189546
N	0.0000000000000000 0.0797255352075928 0.0000000000000000	-0.189573
N	0.5797255262075958 0.5000000000000000 0.5000000000000000	-0.189546
N	0.0797255352075928 0.0000000000000000 0.0000000000000000	-0.189573
N	0.4202744737924043 0.5000000000000000 0.5000000000000000	-0.189546
N	0.9202745117924073 0.0000000000000000 0.0000000000000000	-0.189492
	  	
