#======================================================================

# CRYSTAL DATA

#----------------------------------------------------------------------

data_VESTA_phase_1


_pd_phase_name                         TIFSIX_6_Zn_i
_cell_length_a                         17.80460
_cell_length_b                         17.80460
_cell_length_c                         15.64102
_cell_angle_alpha                      90
_cell_angle_beta                       90
_cell_angle_gamma                      90
_symmetry_space_group_name_H-M         P 1
_symmetry_Int_Tables_number            1

loop_
_symmetry_equiv_pos_as_xyz
   x, y, z

loop_
   _atom_site_label
   _atom_site_fract_x
   _atom_site_fract_y
   _atom_site_fract_z
   _atom_site_charge
N	0.2439405223678442 0.1294669853804070 0.1281103392649906	-0.234013
N	0.2560594776321559 0.3705330286195944 0.1281103392649906	-0.234012
N	0.3705330286195944 0.2439405223678442 0.1281103392649906	-0.234013
N	0.1294669853804070 0.2560594776321559 0.1281103392649906	-0.234013
N	0.7560594506321570 0.6294669983804115 0.3718896457350117	-0.233994
N	0.7439405493678430 0.8705330016195885 0.3718896457350117	-0.234011
N	0.6294669983804115 0.7439405493678430 0.3718896457350117	-0.233993
N	0.8705330016195885 0.7560594506321570 0.3718896457350117	-0.234013
N	0.7560594506321570 0.8705330016195885 0.8718896457350119	-0.234013
N	0.7439405493678430 0.6294669983804115 0.8718896457350119	-0.233995
N	0.6294669983804115 0.7560594506321570 0.8718896457350119	-0.233995
N	0.8705330016195885 0.7439405493678430 0.8718896457350119	-0.234013
N	0.2439405223678442 0.3705330286195944 0.6281103542649881	-0.234013
N	0.2560594776321559 0.1294669853804070 0.6281103542649881	-0.234014
N	0.3705330286195944 0.2560594776321559 0.6281103542649881	-0.234014
N	0.1294669853804070 0.2439405223678442 0.6281103542649881	-0.234013
C	0.2007163611900646 0.0934566759079748 0.1855199985670246	0.102710
C	0.1924741568123823 0.0158599485815891 0.1849907795640384	-0.179740
C	0.2324944989210811 0.9729645763920042 0.1251297270048064	0.110160
C	0.2785496305819567 0.0112775183085222 0.0668861034095957	-0.178018
C	0.2817466103256455 0.0892344752677716 0.0694027642496081	0.105635
C	0.2266092160555142 0.8904839805203111 0.1238526446264614	0.059880
C	0.2908312382571713 0.8466387481901581 0.1209174801641353	-0.173031
C	0.2863163601276506 0.7674322268589191 0.1220561917161932	0.084707
C	0.1485143058350092 0.7784509637811584 0.1246512141036417	-0.122614
C	0.1548279835137609 0.8554092970407378 0.1268150734887412	-0.135392
C	0.2992835988099390 0.4065433370920227 0.1855199985670246	0.102708
C	0.3075258031876145 0.4841400324184128 0.1849907795640384	-0.179739
C	0.2675055010789189 0.5270354236079958 0.1251297270048064	0.110161
C	0.2214503824180407 0.4887224786914738 0.0668861034095957	-0.178019
C	0.2182534036743558 0.4107655317322326 0.0694027642496081	0.105633
C	0.2733907839444859 0.6095160194796889 0.1238526446264614	0.059879
C	0.2091688027428286 0.6533612518098419 0.1209174801641353	-0.173029
C	0.2136836128723508 0.7325677731410809 0.1220561917161932	0.084704
C	0.3514856801649895 0.7215490362188416 0.1246512141036417	-0.122616
C	0.3451720164862391 0.6445907029592622 0.1268150734887412	-0.135392
C	0.4065433370920227 0.2007163611900646 0.1855199985670246	0.102710
C	0.4841400324184128 0.1924741568123823 0.1849907795640384	-0.179739
C	0.5270354236079958 0.2324944989210811 0.1251297270048064	0.110160
C	0.4887224786914738 0.2785496305819567 0.0668861034095957	-0.178017
C	0.4107655317322326 0.2817466103256455 0.0694027642496081	0.105634
C	0.6095160194796889 0.2266092160555142 0.1238526446264614	0.059880
C	0.6533612518098419 0.2908312382571713 0.1209174801641353	-0.173030
C	0.7325677731410809 0.2863163601276506 0.1220561917161932	0.084707
C	0.7215490362188416 0.1485143058350092 0.1246512141036417	-0.122614
C	0.6445907029592622 0.1548279835137609 0.1268150734887412	-0.135392
C	0.0934566759079748 0.2992835988099390 0.1855199985670246	0.102709
C	0.0158599485815891 0.3075258031876145 0.1849907795640384	-0.179739
C	0.9729645763920042 0.2675055010789189 0.1251297270048064	0.110161
C	0.0112775183085222 0.2214503824180407 0.0668861034095957	-0.178019
C	0.0892344752677716 0.2182534036743558 0.0694027642496081	0.105635
C	0.8904839805203111 0.2733907839444859 0.1238526446264614	0.059879
C	0.8466387481901581 0.2091688027428286 0.1209174801641353	-0.173031
C	0.7674322268589191 0.2136836128723508 0.1220561917161932	0.084704
C	0.7784509637811584 0.3514856801649895 0.1246512141036417	-0.122617
C	0.8554092970407378 0.3451720164862391 0.1268150734887412	-0.135393
C	0.7992836518099330 0.5934566629079775 0.3144800174329768	0.102705
C	0.8075258561876153 0.5158599135815827 0.3150091894359626	-0.179745
C	0.7675055010789189 0.4729645763920042 0.3748702409951910	0.110206
C	0.7214503424180444 0.5112775753085235 0.4331139005904047	-0.178193
C	0.7182533636743526 0.5892345222677720 0.4305972757503883	0.105714
C	0.7733908639444854 0.3904840335203122 0.3761473473735381	0.059877
C	0.7091687887428275 0.3466386951901573 0.3790825118358639	-0.173028
C	0.7136836398723496 0.2674321468589196 0.3779438082838069	0.084707
C	0.8514857071649955 0.2784509367811599 0.3753487698963569	-0.122614
C	0.8451719634862382 0.3554092710407355 0.3731849585112615	-0.135394
C	0.7007163481900670 0.9065433370920225 0.3144800174329768	0.102708
C	0.6924741438123847 0.9841400324184129 0.3150091894359626	-0.179740
C	0.7324944989210811 0.0270354296079962 0.3748702409951910	0.110162
C	0.7785496575819556 0.9887224786914739 0.4331139005904047	-0.178018
C	0.7817466363256474 0.9107655847322333 0.4305972757503883	0.105633
C	0.7266091360555146 0.1095159934796865 0.3761473473735381	0.059879
C	0.7908312112571725 0.1533612918098381 0.3790825118358639	-0.173030
C	0.7863163601276504 0.2325678261410817 0.3779438082838069	0.084704
C	0.6485142928350045 0.2215490502188425 0.3753487698963569	-0.122617
C	0.6548280365137618 0.1445907029592622 0.3731849585112615	-0.135391
C	0.5934566629079775 0.7007163481900670 0.3144800174329768	0.102705
C	0.5158599135815827 0.6924741438123847 0.3150091894359626	-0.179746
C	0.4729645763920042 0.7324944989210811 0.3748702409951910	0.110207
C	0.5112775753085235 0.7785496575819556 0.4331139005904047	-0.178191
C	0.5892345222677720 0.7817466363256474 0.4305972757503883	0.105714
C	0.3904840335203122 0.7266091360555146 0.3761473473735381	0.059877
C	0.3466386951901573 0.7908312112571725 0.3790825118358639	-0.173029
C	0.2674321468589196 0.7863163601276504 0.3779438082838069	0.084706
C	0.2784509367811599 0.6485142928350045 0.3753487698963569	-0.122614
C	0.3554092710407355 0.6548280365137618 0.3731849585112615	-0.135394
C	0.9065433370920225 0.7992836518099330 0.3144800174329768	0.102709
C	0.9841400324184129 0.8075258561876153 0.3150091894359626	-0.179738
C	0.0270354296079962 0.7675055010789189 0.3748702409951910	0.110160
C	0.9887224786914739 0.7214503424180444 0.4331139005904047	-0.178019
C	0.9107655847322333 0.7182533636743526 0.4305972757503883	0.105635
C	0.1095159934796865 0.7733908639444854 0.3761473473735381	0.059880
C	0.1533612918098381 0.7091687887428275 0.3790825118358639	-0.173029
C	0.2325678261410817 0.7136836398723496 0.3779438082838069	0.084704
C	0.2215490502188425 0.8514857071649955 0.3753487698963569	-0.122616
C	0.1445907029592622 0.8451719634862382 0.3731849585112615	-0.135391
C	0.7992836518099330 0.9065433370920225 0.8144799854329742	0.102708
C	0.8075258561876153 0.9841400324184129 0.8150092524359640	-0.179739
C	0.7675055010789189 0.0270354296079962 0.8748703049951893	0.110161
C	0.7214503424180444 0.9887224786914739 0.9331138695904057	-0.178019
C	0.7182533636743526 0.9107655847322333 0.9305972437503855	0.105633
C	0.7733908639444854 0.1095159934796865 0.8761473473735379	0.059805
C	0.7091687887428275 0.1533612918098381 0.8790825438358666	-0.174118
C	0.7136836398723496 0.2325678261410817 0.8779438402838020	0.087116
C	0.8514857071649955 0.2215490502188425 0.8753488328963588	-0.123725
C	0.8451719634862382 0.1445907029592622 0.8731849905112570	-0.135477
C	0.7007163481900670 0.5934566629079775 0.8144799854329742	0.102704
C	0.6924741438123847 0.5158599135815827 0.8150092524359640	-0.179745
C	0.7324944989210811 0.4729645763920042 0.8748703049951893	0.110206
C	0.7785496575819556 0.5112775753085235 0.9331138695904057	-0.178191
C	0.7817466363256474 0.5892345222677720 0.9305972437503855	0.105714
C	0.7266091360555146 0.3904840335203122 0.8761473473735379	0.059803
C	0.7908312112571725 0.3466386951901573 0.8790825438358666	-0.174118
C	0.7863163601276504 0.2674321468589196 0.8779438402838020	0.087112
C	0.6485142928350045 0.2784509367811599 0.8753488328963588	-0.123726
C	0.6548280365137618 0.3554092710407355 0.8731849905112570	-0.135479
C	0.5934566629079775 0.7992836518099330 0.8144799854329742	0.102704
C	0.5158599135815827 0.8075258561876153 0.8150092524359640	-0.179744
C	0.4729645763920042 0.7675055010789189 0.8748703049951893	0.110207
C	0.5112775753085235 0.7214503424180444 0.9331138695904057	-0.178192
C	0.5892345222677720 0.7182533636743526 0.9305972437503855	0.105714
C	0.3904840335203122 0.7733908639444854 0.8761473473735379	0.059803
C	0.3466386951901573 0.7091687887428275 0.8790825438358666	-0.174119
C	0.2674321468589196 0.7136836398723496 0.8779438402838020	0.087116
C	0.2784509367811599 0.8514857071649955 0.8753488328963588	-0.123725
C	0.3554092710407355 0.8451719634862382 0.8731849905112570	-0.135479
C	0.9065433370920225 0.7007163481900670 0.8144799854329742	0.102710
C	0.9841400324184129 0.6924741438123847 0.8150092524359640	-0.179739
C	0.0270354296079962 0.7324944989210811 0.8748703049951893	0.110160
C	0.9887224786914739 0.7785496575819556 0.9331138695904057	-0.178017
C	0.9107655847322333 0.7817466363256474 0.9305972437503855	0.105634
C	0.1095159934796865 0.7266091360555146 0.8761473473735379	0.059805
C	0.1533612918098381 0.7908312112571725 0.8790825438358666	-0.174118
C	0.2325678261410817 0.7863163601276504 0.8779438402838020	0.087113
C	0.2215490502188425 0.6485142928350045 0.8753488328963588	-0.123725
C	0.1445907029592622 0.6548280365137618 0.8731849905112570	-0.135478
C	0.2007163611900646 0.4065433370920227 0.6855200145670258	0.102708
C	0.1924741568123823 0.4841400324184128 0.6849907475640360	-0.179739
C	0.2324944989210811 0.5270354236079958 0.6251296950048107	0.110161
C	0.2785496305819567 0.4887224786914738 0.5668861304095943	-0.178018
C	0.2817466103256455 0.4107655317322326 0.5694027562496145	0.105634
C	0.2266092160555142 0.6095160194796889 0.6238526526264621	0.059805
C	0.2908312382571713 0.6533612518098419 0.6209174561641334	-0.174121
C	0.2863163601276506 0.7325677731410809 0.6220561597161980	0.087116
C	0.1485143058350092 0.7215490362188416 0.6246511671036412	-0.123724
C	0.1548279835137609 0.6445907029592622 0.6268150094887430	-0.135477
C	0.2992835988099390 0.0934566759079748 0.6855200145670258	0.102710
C	0.3075258031876145 0.0158599485815891 0.6849907475640360	-0.179739
C	0.2675055010789189 0.9729645763920042 0.6251296950048107	0.110160
C	0.2214503824180407 0.0112775183085222 0.5668861304095943	-0.178019
C	0.2182534036743558 0.0892344752677716 0.5694027562496145	0.105635
C	0.2733907839444859 0.8904839805203111 0.6238526526264621	0.059805
C	0.2091688027428286 0.8466387481901581 0.6209174561641334	-0.174120
C	0.2136836128723508 0.7674322268589191 0.6220561597161980	0.087114
C	0.3514856801649895 0.7784509637811584 0.6246511671036412	-0.123725
C	0.3451720164862391 0.8554092970407378 0.6268150094887430	-0.135479
C	0.4065433370920227 0.2992835988099390 0.6855200145670258	0.102708
C	0.4841400324184128 0.3075258031876145 0.6849907475640360	-0.179737
C	0.5270354236079958 0.2675055010789189 0.6251296950048107	0.110160
C	0.4887224786914738 0.2214503824180407 0.5668861304095943	-0.178018
C	0.4107655317322326 0.2182534036743558 0.5694027562496145	0.105635
C	0.6095160194796889 0.2733907839444859 0.6238526526264621	0.059806
C	0.6533612518098419 0.2091688027428286 0.6209174561641334	-0.174120
C	0.7325677731410809 0.2136836128723508 0.6220561597161980	0.087117
C	0.7215490362188416 0.3514856801649895 0.6246511671036412	-0.123724
C	0.6445907029592622 0.3451720164862391 0.6268150094887430	-0.135478
C	0.0934566759079748 0.2007163611900646 0.6855200145670258	0.102710
C	0.0158599485815891 0.1924741568123823 0.6849907475640360	-0.179740
C	0.9729645763920042 0.2324944989210811 0.6251296950048107	0.110161
C	0.0112775183085222 0.2785496305819567 0.5668861304095943	-0.178018
C	0.0892344752677716 0.2817466103256455 0.5694027562496145	0.105634
C	0.8904839805203111 0.2266092160555142 0.6238526526264621	0.059805
C	0.8466387481901581 0.2908312382571713 0.6209174561641334	-0.174121
C	0.7674322268589191 0.2863163601276506 0.6220561597161980	0.087113
C	0.7784509637811584 0.1485143058350092 0.6246511671036412	-0.123725
C	0.8554092970407378 0.1548279835137609 0.6268150094887430	-0.135479
H	0.1730422805621365 0.1281690594915083 0.2336939557230249	0.102835
H	0.1568719231950078 0.9886675290064987 0.2325479511002690	0.114127
H	0.3099402493092068 0.9804675190759674 0.0183361489876597	0.114665
H	0.3143799866232068 0.1209518715180801 0.0225938475546875	0.101646
H	0.3461046289740475 0.8732301284608370 0.1202734811356845	0.108660
H	0.0933312876159155 0.7517385503378782 0.1253105816688174	0.109160
H	0.1047806849306322 0.8907278775703981 0.1288702522119158	0.100271
H	0.3269576924378649 0.3718309675084976 0.2336939557230249	0.102834
H	0.3431281168049883 0.5113324709935013 0.2325479511002690	0.114127
H	0.1900597636907906 0.5195324809240326 0.0183361489876597	0.114665
H	0.1856200133767930 0.3790481284819199 0.0225938475546875	0.101646
H	0.1538953850259537 0.6267698715391630 0.1202734811356845	0.108657
H	0.4066687053840806 0.7482614496621218 0.1253105816688174	0.109160
H	0.3952193280693724 0.6092721224296019 0.1288702522119158	0.100272
H	0.3718309675084976 0.1730422805621365 0.2336939557230249	0.102834
H	0.5113324709935013 0.1568719231950078 0.2325479511002690	0.114128
H	0.5195324809240326 0.3099402493092068 0.0183361489876597	0.114665
H	0.3790481284819199 0.3143799866232068 0.0225938475546875	0.101646
H	0.6267698715391630 0.3461046289740475 0.1202734811356845	0.108661
H	0.7482614496621218 0.0933312876159155 0.1253105816688174	0.109160
H	0.6092721224296019 0.1047806849306322 0.1288702522119158	0.100273
H	0.1281690594915083 0.3269576924378649 0.2336939557230249	0.102835
H	0.9886675290064987 0.3431281168049883 0.2325479511002690	0.114126
H	0.9804675190759674 0.1900597636907906 0.0183361489876597	0.114665
H	0.1209518715180801 0.1856200133767930 0.0225938475546875	0.101646
H	0.8732301284608370 0.1538953850259537 0.1202734811356845	0.108658
H	0.7517385503378782 0.4066687053840806 0.1253105816688174	0.109161
H	0.8907278775703981 0.3952193280693724 0.1288702522119158	0.100273
H	0.8269576924378649 0.6281690864915069 0.2663060602769762	0.102835
H	0.8431280358049922 0.4886675830064959 0.2674520488997310	0.114127
H	0.6900597506907932 0.4804675190759677 0.4816638530123405	0.114699
H	0.6856200663767937 0.6209518985180790 0.4774061504453123	0.101656
H	0.6538953710259525 0.3732300744608399 0.3797265268643161	0.108661
H	0.9066686523840796 0.2517385773378768 0.3746894103311820	0.109161
H	0.8952193010693738 0.3907279035703933 0.3711297557880848	0.100272
H	0.6730423075621351 0.8718309135084931 0.2663060602769762	0.102834
H	0.6568719641950078 0.0113324329934982 0.2674520488997310	0.114127
H	0.8099402493092068 0.0195324799240288 0.4816638530123405	0.114665
H	0.8143799336232063 0.8790481014819210 0.4774061504453123	0.101645
H	0.8461046289740475 0.1267699385391648 0.3797265268643161	0.108659
H	0.5933312946159196 0.2482613956621174 0.3746894103311820	0.109157
H	0.6047806989306262 0.1092721094296043 0.3711297557880848	0.100270
H	0.6281690864915069 0.6730423075621351 0.2663060602769762	0.102835
H	0.4886675830064959 0.6568719641950078 0.2674520488997310	0.114128
H	0.4804675190759677 0.8099402493092068 0.4816638530123405	0.114698
H	0.6209518985180790 0.8143799336232063 0.4774061504453123	0.101656
H	0.3732300744608399 0.8461046289740475 0.3797265268643161	0.108663
H	0.2517385773378768 0.5933312946159196 0.3746894103311820	0.109159
H	0.3907279035703933 0.6047806989306262 0.3711297557880848	0.100272
H	0.8718309135084931 0.8269576924378649 0.2663060602769762	0.102834
H	0.0113324329934982 0.8431280358049922 0.2674520488997310	0.114127
H	0.0195324799240288 0.6900597506907932 0.4816638530123405	0.114666
H	0.8790481014819210 0.6856200663767937 0.4774061504453123	0.101645
H	0.1267699385391648 0.6538953710259525 0.3797265268643161	0.108659
H	0.2482613956621174 0.9066686523840796 0.3746894103311820	0.109158
H	0.1092721094296043 0.8952193010693738 0.3711297557880848	0.100273
H	0.8269576924378649 0.8718309135084931 0.7663060292769776	0.102834
H	0.8431280358049922 0.0113324329934982 0.7674520638997355	0.114127
H	0.6900597506907932 0.0195324799240288 0.9816638840123394	0.114663
H	0.6856200663767937 0.8790481014819210 0.9774060864453142	0.101646
H	0.6538953710259525 0.1267699385391648 0.8797264948643136	0.108620
H	0.9066686523840796 0.2482613956621174 0.8746893473311805	0.109143
H	0.8952193010693738 0.1092721094296043 0.8711297237880823	0.100272
H	0.6730423075621351 0.6281690864915069 0.7663060292769776	0.102835
H	0.6568719641950078 0.4886675830064959 0.7674520638997355	0.114127
H	0.8099402493092068 0.4804675190759677 0.9816638840123394	0.114697
H	0.8143799336232063 0.6209518985180790 0.9774060864453142	0.101656
H	0.8461046289740475 0.3732300744608399 0.8797264948643136	0.108619
H	0.5933312946159196 0.2517385773378768 0.8746893473311805	0.109139
H	0.6047806989306262 0.3907279035703933 0.8711297237880823	0.100272
H	0.6281690864915069 0.8269576924378649 0.7663060292769776	0.102836
H	0.4886675830064959 0.8431280358049922 0.7674520638997355	0.114127
H	0.4804675190759677 0.6900597506907932 0.9816638840123394	0.114698
H	0.6209518985180790 0.6856200663767937 0.9774060864453142	0.101656
H	0.3732300744608399 0.6538953710259525 0.8797264948643136	0.108622
H	0.2517385773378768 0.9066686523840796 0.8746893473311805	0.109143
H	0.3907279035703933 0.8952193010693738 0.8711297237880823	0.100273
H	0.8718309135084931 0.6730423075621351 0.7663060292769776	0.102834
H	0.0113324329934982 0.6568719641950078 0.7674520638997355	0.114128
H	0.0195324799240288 0.8099402493092068 0.9816638840123394	0.114663
H	0.8790481014819210 0.8143799336232063 0.9774060864453142	0.101646
H	0.1267699385391648 0.8461046289740475 0.8797264948643136	0.108619
H	0.2482613956621174 0.5933312946159196 0.8746893473311805	0.109139
H	0.1092721094296043 0.6047806989306262 0.8711297237880823	0.100273
H	0.1730422805621365 0.3718309675084976 0.7336939707230224	0.102834
H	0.1568719231950078 0.5113324709935013 0.7325479361002645	0.114127
H	0.3099402493092068 0.5195324809240326 0.5183361469876596	0.114663
H	0.3143799866232068 0.3790481284819199 0.5225938495546876	0.101646
H	0.3461046289740475 0.6267698715391630 0.6202735051356864	0.108622
H	0.0933312876159155 0.7482614496621218 0.6253106526688195	0.109141
H	0.1047806849306322 0.6092721224296019 0.6288702762119177	0.100270
H	0.3269576924378649 0.1281690594915083 0.7336939707230224	0.102835
H	0.3431281168049883 0.9886675290064987 0.7325479361002645	0.114127
H	0.1900597636907906 0.9804675190759674 0.5183361469876596	0.114663
H	0.1856200133767930 0.1209518715180801 0.5225938495546876	0.101647
H	0.1538953850259537 0.8732301284608370 0.6202735051356864	0.108617
H	0.4066687053840806 0.7517385503378782 0.6253106526688195	0.109140
H	0.3952193280693724 0.8907278775703981 0.6288702762119177	0.100273
H	0.3718309675084976 0.3269576924378649 0.7336939707230224	0.102834
H	0.5113324709935013 0.3431281168049883 0.7325479361002645	0.114127
H	0.5195324809240326 0.1900597636907906 0.5183361469876596	0.114664
H	0.3790481284819199 0.1856200133767930 0.5225938495546876	0.101646
H	0.6267698715391630 0.1538953850259537 0.6202735051356864	0.108622
H	0.7482614496621218 0.4066687053840806 0.6253106526688195	0.109143
H	0.6092721224296019 0.3952193280693724 0.6288702762119177	0.100273
H	0.1281690594915083 0.1730422805621365 0.7336939707230224	0.102835
H	0.9886675290064987 0.1568719231950078 0.7325479361002645	0.114128
H	0.9804675190759674 0.3099402493092068 0.5183361469876596	0.114663
H	0.1209518715180801 0.3143799866232068 0.5225938495546876	0.101647
H	0.8732301284608370 0.3461046289740475 0.6202735051356864	0.108620
H	0.7517385503378782 0.0933312876159155 0.6253106526688195	0.109138
H	0.8907278775703981 0.1047806849306322 0.6288702762119177	0.100272
F	0.3094830184895500 0.1615286579547760 0.3785464237388433	-0.664789
F	0.1905170085104487 0.3384713420452241 0.3785464237388433	-0.664788
F	0.3384713420452241 0.3094830184895500 0.3785464237388433	-0.664788
F	0.1615286579547760 0.1905170085104487 0.3785464237388433	-0.664789
F	0.6905169815104499 0.6615286039547785 0.1214535762611568	-0.664789
F	0.8094830184895501 0.8384713960452215 0.1214535762611568	-0.664788
F	0.6615286039547785 0.8094830184895501 0.1214535762611568	-0.664788
F	0.8384713960452215 0.6905169815104499 0.1214535762611568	-0.664790
F	0.6905169815104499 0.8384713960452215 0.6214535442611538	-0.664788
F	0.8094830184895501 0.6615286039547785 0.6214535442611538	-0.664789
F	0.6615286039547785 0.6905169815104499 0.6214535442611538	-0.664789
F	0.8384713960452215 0.8094830184895501 0.6214535442611538	-0.664789
F	0.3094830184895500 0.3384713420452241 0.8785464557388462	-0.664788
F	0.1905170085104487 0.1615286579547760 0.8785464557388462	-0.664789
F	0.3384713420452241 0.1905170085104487 0.8785464557388462	-0.664790
F	0.1615286579547760 0.3094830184895500 0.8785464557388462	-0.664788
F	0.2500000000000000 0.2500000000000000 0.2565310529880330	-0.613063
F	0.2500000000000000 0.2500000000000000 0.5002945751467865	-0.613469
F	0.7500000000000000 0.7500000000000000 0.2434689630119683	-0.613062
F	0.7500000000000000 0.7500000000000000 -0.0002945681467827	-0.613469
F	0.7500000000000000 0.7500000000000000 0.7434689150119644	-0.613063
F	0.7500000000000000 0.7500000000000000 0.4997054568532157	-0.613469
F	0.2500000000000000 0.2500000000000000 0.7565310849880356	-0.613063
F	0.2500000000000000 0.2500000000000000 0.0002945431467841	-0.613469
Zn	0.2500000000000000 0.2500000000000000 0.1286154329571755	0.766159
Zn	0.7500000000000000 0.7500000000000000 0.3713845830428257	0.766154
Zn	0.7500000000000000 0.7500000000000000 0.8713845520428269	0.766156
Zn	0.2500000000000000 0.2500000000000000 0.6286154479571731	0.766161
Ti	0.2500000000000000 0.2500000000000000 0.3784091262367351	2.352965
Ti	0.7500000000000000 0.7500000000000000 0.1215908817632657	2.352966
Ti	0.7500000000000000 0.7500000000000000 0.6215908427632660	2.352965
Ti	0.2500000000000000 0.2500000000000000 0.8784091572367340	2.352965
	  	
