#======================================================================

# CRYSTAL DATA

#----------------------------------------------------------------------

data_VESTA_phase_1


_pd_phase_name                         TIFSIX_2_Fe
_cell_length_a                         14.03496
_cell_length_b                         14.03496
_cell_length_c                         7.97353
_cell_angle_alpha                      90
_cell_angle_beta                       90
_cell_angle_gamma                      90
_symmetry_space_group_name_H-M         P 1
_symmetry_Int_Tables_number            1

loop_
_symmetry_equiv_pos_as_xyz
   x, y, z

loop_
   _atom_site_label
   _atom_site_fract_x
   _atom_site_fract_y
   _atom_site_fract_z
   _atom_site_charge
C	0.5313113402567419 0.7050015402715132 0.1346113434929178	0.097453
C	0.5318775546271747 0.8038318013823379 0.1403091741922498	-0.166302
C	0.4686887297432571 0.2949984597284872 0.1346113434929178	0.097522
C	0.4681224103728261 0.1961681806176607 0.1403091741922498	-0.166315
C	0.2949984597284872 0.5313113402567419 0.1346113434929178	0.097524
C	0.1961681806176607 0.5318775546271747 0.1403091741922498	-0.166318
C	0.7050015402715132 0.4686887297432571 0.1346113434929178	0.097450
C	0.8038318013823379 0.4681224103728261 0.1403091741922498	-0.166299
C	0.4686887297432571 0.7050015402715132 0.8653886565070823	0.097451
C	0.4681224103728261 0.8038318013823379 0.8596907958077475	-0.166301
C	0.5313113402567419 0.2949984597284872 0.8653886565070823	0.097521
C	0.5318775546271747 0.1961681806176607 0.8596907958077475	-0.166315
C	0.7050015402715132 0.5313113402567419 0.8653886565070823	0.097449
C	0.8038318013823379 0.5318775546271747 0.8596907958077475	-0.166299
C	0.2949984597284872 0.4686887297432571 0.8653886565070823	0.097522
C	0.1961681806176607 0.4681224103728261 0.8596907958077475	-0.166317
C	0.5000000000000000 0.1442167222592661 0.0000000000000000	0.166315
C	0.5000000000000000 0.0434460477868916 0.0000000000000000	-0.093071
C	0.5000000000000000 0.8557832777407341 0.0000000000000000	0.166280
C	0.5000000000000000 0.9565538952131142 0.0000000000000000	-0.092829
C	0.8557832777407341 0.5000000000000000 0.0000000000000000	0.166310
C	0.9565538952131142 0.5000000000000000 0.0000000000000000	-0.093071
C	0.1442167222592661 0.5000000000000000 0.0000000000000000	0.166285
C	0.0434460477868916 0.5000000000000000 0.0000000000000000	-0.092829
H	0.5562278537320250 0.6634054805344849 0.2416289931483216	0.103785
H	0.5573448431445837 0.8403456345079668 0.2518933673791082	0.128712
H	0.4437721462679746 0.3365944494655166 0.2416289931483216	0.103753
H	0.4426551918554157 0.1596542954920344 0.2518933673791082	0.128715
H	0.3365944494655166 0.5562278537320250 0.2416289931483216	0.103753
H	0.1596542954920344 0.5573448431445837 0.2518933673791082	0.128715
H	0.6634054805344849 0.4437721462679746 0.2416289931483216	0.103785
H	0.8403456345079668 0.4426551918554157 0.2518933673791082	0.128712
H	0.4437721462679746 0.6634054805344849 0.7583710068516780	0.103785
H	0.4426551918554157 0.8403456345079668 0.7481066626208941	0.128710
H	0.5562278537320250 0.3365944494655166 0.7583710068516780	0.103753
H	0.5573448431445837 0.1596542954920344 0.7481066626208941	0.128713
H	0.6634054805344849 0.5562278537320250 0.7583710068516780	0.103785
H	0.8403456345079668 0.5573448431445837 0.7481066626208941	0.128711
H	0.3365944494655166 0.4437721462679746 0.7583710068516780	0.103753
H	0.1596542954920344 0.4426551918554157 0.7481066626208941	0.128712
Fe	0.5000000000000000 0.5000000000000000 0.0000000000000000	0.557673
Ti	0.5000000000000000 0.5000000000000000 0.5000000000000000	2.326804
F	0.5000000000000000 0.5000000000000000 0.7455655475499453	-0.581575
F	0.5000000000000000 0.5000000000000000 0.2544344824500498	-0.581575
F	0.5948207433852233 0.5948207433852233 0.5000000000000000	-0.642937
F	0.4051792916147754 0.5948207433852233 0.5000000000000000	-0.642935
F	0.4051792916147754 0.4051792916147754 0.5000000000000000	-0.642934
F	0.5948207433852233 0.4051792916147754 0.5000000000000000	-0.642935
N	0.5000000000000000 0.3442374903356916 0.0000000000000000	-0.188093
N	0.5000000000000000 0.6557624746643094 0.0000000000000000	-0.188033
N	0.6557624746643094 0.5000000000000000 0.0000000000000000	-0.188034
N	0.3442374903356916 0.5000000000000000 0.0000000000000000	-0.188093
	  	
