#======================================================================

# CRYSTAL DATA

#----------------------------------------------------------------------

data_VESTA_phase_1


_pd_phase_name                         TIFSIX_15_Ni_i
_cell_length_a                         29.78552
_cell_length_b                         28.95540
_cell_length_c                         8.00783
_cell_angle_alpha                      90
_cell_angle_beta                       90
_cell_angle_gamma                      90
_symmetry_space_group_name_H-M         P 1
_symmetry_Int_Tables_number            1

loop_
_symmetry_equiv_pos_as_xyz
   x, y, z

loop_
   _atom_site_label
   _atom_site_fract_x
   _atom_site_fract_y
   _atom_site_fract_z
   _atom_site_charge
C	0.9338369249270175 0.1031373674095631 0.8945751671378698	0.109433
C	0.9017861231957400 0.0683967000176058 0.9005503574691268	-0.164701
C	0.7699848131846210 0.9363329991653075 0.9022847844271003	-0.115054
C	0.7357006554687386 0.9040575135779210 0.9020399907137897	-0.116524
C	0.5676674364762333 0.7410830665306218 0.8944479536485862	0.105153
C	0.6014173790756231 0.7740763251857881 0.9001877933859945	-0.167725
C	0.4338369569270128 0.6031373834095642 0.8945751671378698	0.109433
C	0.4017861551957425 0.5683966630176063 0.9005503574691268	-0.164701
C	0.2699847491846227 0.4363330321653067 0.9022847844271003	-0.115032
C	0.2357006234687363 0.4040575795779263 0.9020399907137897	-0.116527
C	0.0676674604762352 0.2410830495306238 0.8944479536485862	0.105153
C	0.1014173550756212 0.2740763581857876 0.9001877933859945	-0.167725
C	0.0661630430729871 0.8968626165904358 0.3945751981378691	0.109433
C	0.0982138528042582 0.9316033369823937 0.4005503894691226	-0.164701
C	0.2300152028153805 0.0636669638346931 0.4022848464270983	-0.115031
C	0.2642993605312623 0.0959424364220750 0.4020399907137897	-0.116528
C	0.4323325315237640 0.2589169834693753 0.3944479846485848	0.105152
C	0.3985826209243767 0.2259236418142124 0.4001877933859943	-0.167725
C	0.5661630750729825 0.3968626495904347 0.3945751981378691	0.109432
C	0.5982138768042600 0.4316033369823937 0.4005503894691226	-0.164701
C	0.7300151868153790 0.5636670008346925 0.4022848464270983	-0.115054
C	0.7642993445312614 0.5959424864220790 0.4020399907137897	-0.116525
C	0.9323325635237667 0.7589169334693782 0.3944479846485848	0.105152
C	0.8985826209243769 0.7259236748142119 0.4001877933859943	-0.167725
C	0.0661630430729871 0.1031373674095631 0.6054248018621312	0.109433
C	0.0982138528042582 0.0683967000176058 0.5994495485308725	-0.164701
C	0.2300152028153805 0.9363329991653075 0.5977151845729007	-0.115032
C	0.2642993605312623 0.9040575135779210 0.5979600402862093	-0.116527
C	0.4323325315237640 0.7410830665306218 0.6055519523514131	0.105153
C	0.3985826209243767 0.7740763251857881 0.5998121756140065	-0.167725
C	0.5661630750729825 0.6031373834095642 0.6054248018621312	0.109433
C	0.5982138768042600 0.5683966630176063 0.5994495485308725	-0.164701
C	0.7300151868153790 0.4363330321653067 0.5977151845729007	-0.115054
C	0.7642993445312614 0.4040575795779263 0.5979600402862093	-0.116524
C	0.9323325635237667 0.2410830495306238 0.6055519523514131	0.105153
C	0.8985826209243769 0.2740763581857876 0.5998121756140065	-0.167725
C	0.9338369249270175 0.8968626165904358 0.1054248178621323	0.109434
C	0.9017861231957400 0.9316033369823937 0.0994495875308721	-0.164701
C	0.7699848131846210 0.0636669638346931 0.0977151845729008	-0.115054
C	0.7357006554687386 0.0959424364220750 0.0979600252862044	-0.116525
C	0.5676674364762333 0.2589169834693753 0.1055520073514145	0.105152
C	0.6014173790756231 0.2259236418142124 0.0998122216140034	-0.167724
C	0.4338369569270128 0.3968626495904347 0.1054248178621323	0.109432
C	0.4017861551957425 0.4316033369823937 0.0994495875308721	-0.164701
C	0.2699847491846227 0.5636670008346925 0.0977151845729008	-0.115031
C	0.2357006234687363 0.5959424864220790 0.0979600252862044	-0.116528
C	0.0676674604762352 0.7589169334693782 0.1055520073514145	0.105152
C	0.1014173550756212 0.7259236748142119 0.0998122216140034	-0.167725
C	0.0661630430729871 0.8968626165904358 0.1054248178621323	0.109433
C	0.0982138528042582 0.9316033369823937 0.0994495875308721	-0.164701
C	0.2300152028153805 0.0636669638346931 0.0977151845729008	-0.115031
C	0.2642993605312623 0.0959424364220750 0.0979600252862044	-0.116528
C	0.4323325315237640 0.2589169834693753 0.1055520073514145	0.105152
C	0.3985826209243767 0.2259236418142124 0.0998122216140034	-0.167725
C	0.5661630750729825 0.3968626495904347 0.1054248178621323	0.109432
C	0.5982138768042600 0.4316033369823937 0.0994495875308721	-0.164701
C	0.7300151868153790 0.5636670008346925 0.0977151845729008	-0.115053
C	0.7642993445312614 0.5959424864220790 0.0979600252862044	-0.116525
C	0.9323325635237667 0.7589169334693782 0.1055520073514145	0.105152
C	0.8985826209243769 0.7259236748142119 0.0998122216140034	-0.167725
C	0.9338369249270175 0.1031373674095631 0.6054248018621312	0.109433
C	0.9017861231957400 0.0683967000176058 0.5994495485308725	-0.164700
C	0.7699848131846210 0.9363329991653075 0.5977151845729007	-0.115054
C	0.7357006554687386 0.9040575135779210 0.5979600402862093	-0.116524
C	0.5676674364762333 0.7410830665306218 0.6055519523514131	0.105153
C	0.6014173790756231 0.7740763251857881 0.5998121756140065	-0.167725
C	0.4338369569270128 0.6031373834095642 0.6054248018621312	0.109433
C	0.4017861551957425 0.5683966630176063 0.5994495485308725	-0.164700
C	0.2699847491846227 0.4363330321653067 0.5977151845729007	-0.115032
C	0.2357006234687363 0.4040575795779263 0.5979600402862093	-0.116528
C	0.0676674604762352 0.2410830495306238 0.6055519523514131	0.105153
C	0.1014173550756212 0.2740763581857876 0.5998121756140065	-0.167725
C	0.9338369249270175 0.8968626165904358 0.3945751981378691	0.109433
C	0.9017861231957400 0.9316033369823937 0.4005503894691226	-0.164701
C	0.7699848131846210 0.0636669638346931 0.4022848464270983	-0.115053
C	0.7357006554687386 0.0959424364220750 0.4020399907137897	-0.116525
C	0.5676674364762333 0.2589169834693753 0.3944479846485848	0.105152
C	0.6014173790756231 0.2259236418142124 0.4001877933859943	-0.167725
C	0.4338369569270128 0.3968626495904347 0.3945751981378691	0.109432
C	0.4017861551957425 0.4316033369823937 0.4005503894691226	-0.164701
C	0.2699847491846227 0.5636670008346925 0.4022848464270983	-0.115031
C	0.2357006234687363 0.5959424864220790 0.4020399907137897	-0.116528
C	0.0676674604762352 0.7589169334693782 0.3944479846485848	0.105152
C	0.1014173550756212 0.7259236748142119 0.4001877933859943	-0.167725
C	0.0661630430729871 0.1031373674095631 0.8945751671378698	0.109433
C	0.0982138528042582 0.0683967000176058 0.9005503574691268	-0.164701
C	0.2300152028153805 0.9363329991653075 0.9022847844271003	-0.115031
C	0.2642993605312623 0.9040575135779210 0.9020399907137897	-0.116528
C	0.4323325315237640 0.7410830665306218 0.8944479536485862	0.105153
C	0.3985826209243767 0.7740763251857881 0.9001877933859945	-0.167726
C	0.5661630750729825 0.6031373834095642 0.8945751671378698	0.109433
C	0.5982138768042600 0.5683966630176063 0.9005503574691268	-0.164701
C	0.7300151868153790 0.4363330321653067 0.9022847844271003	-0.115054
C	0.7642993445312614 0.4040575795779263 0.9020399907137897	-0.116525
C	0.9323325635237667 0.2410830495306238 0.8944479536485862	0.105153
C	0.8985826209243769 0.2740763581857876 0.9001877933859945	-0.167725
C	0.6535258937572594 0.8251839163451066 0.7500000160000013	-0.104710
C	0.8849020953175099 0.0502742748159708 0.7500000160000013	0.162208
C	0.8221965678568391 0.9862198650259546 0.7500000160000013	-0.098396
C	0.6192090921087103 0.7915309701995148 0.7500000160000013	0.170192
C	0.7876145159411744 0.9529494032121637 0.7500000160000013	0.127316
C	0.7179883463105795 0.8873288467918349 0.7500000160000013	0.138840
C	0.6832833530110775 0.8541556233474695 0.7500000160000013	-0.099473
C	0.8516452313351711 0.0155295289354944 0.7500000160000013	-0.106174
C	0.1535258777572582 0.3251839163451065 0.7500000160000013	-0.104711
C	0.3849019993175090 0.5502742868159719 0.7500000160000013	0.162201
C	0.3221965678568389 0.4862198650259548 0.7500000160000013	-0.098506
C	0.1192090841087097 0.2915309701995152 0.7500000160000013	0.170192
C	0.2876144839411791 0.4529494032121638 0.7500000160000013	0.127359
C	0.2179883303105782 0.3873288797918341 0.7500000160000013	0.138842
C	0.1832833200110782 0.3541555903474706 0.7500000160000013	-0.099473
C	0.3516451993351689 0.5155295239354900 0.7500000160000013	-0.106133
C	0.3464741382427431 0.1748160836548935 0.2500000000000000	-0.104710
C	0.1150979766824960 0.9497257131840281 0.2500000000000000	0.162201
C	0.1778034321431611 0.0137801309740450 0.2500000000000000	-0.098506
C	0.3807909078912897 0.2084690138004837 0.2500000000000000	0.170192
C	0.2123855000588266 0.0470505887878355 0.2500000000000000	0.127359
C	0.2820116536894207 0.1126711122081654 0.2500000000000000	0.138842
C	0.3167166799889217 0.1458443766525302 0.2500000000000000	-0.099473
C	0.1483548006648313 0.9844704430645108 0.2500000000000000	-0.106134
C	0.8464741062427406 0.6748160836548934 0.2500000000000000	-0.104710
C	0.6150979046824901 0.4497257461840275 0.2500000000000000	0.162208
C	0.6778034321431609 0.5137801349740454 0.2500000000000000	-0.098395
C	0.8807909078912897 0.7084690298004852 0.2500000000000000	0.170192
C	0.7123854840588256 0.5470506297878355 0.2500000000000000	0.127315
C	0.7820116536894205 0.6126711532081651 0.2500000000000000	0.138841
C	0.8167166469889225 0.6458443766525305 0.2500000000000000	-0.099473
C	0.6483547686648289 0.4844704430645103 0.2500000000000000	-0.106175
C	0.3464741382427431 0.8251839163451066 0.7500000160000013	-0.104711
C	0.1150979766824960 0.0502742748159708 0.7500000160000013	0.162201
C	0.1778034321431611 0.9862198650259546 0.7500000160000013	-0.098506
C	0.3807909078912897 0.7915309701995148 0.7500000160000013	0.170192
C	0.2123855000588266 0.9529494032121637 0.7500000160000013	0.127359
C	0.2820116536894207 0.8873288467918349 0.7500000160000013	0.138842
C	0.3167166799889217 0.8541556233474695 0.7500000160000013	-0.099473
C	0.1483548006648313 0.0155295289354944 0.7500000160000013	-0.106133
C	0.8464741062427406 0.3251839163451065 0.7500000160000013	-0.104711
C	0.6150979046824901 0.5502742868159719 0.7500000160000013	0.162208
C	0.6778034321431609 0.4862198650259548 0.7500000160000013	-0.098396
C	0.8807909078912897 0.2915309701995152 0.7500000160000013	0.170192
C	0.7123854840588256 0.4529494032121638 0.7500000160000013	0.127316
C	0.7820116536894205 0.3873288797918341 0.7500000160000013	0.138840
C	0.8167166469889225 0.3541555903474706 0.7500000160000013	-0.099473
C	0.6483547686648289 0.5155295239354900 0.7500000160000013	-0.106174
C	0.6535258937572594 0.1748160836548934 0.2500000000000000	-0.104710
C	0.8849020953175099 0.9497257131840281 0.2500000000000000	0.162208
C	0.8221965678568391 0.0137801309740450 0.2500000000000000	-0.098395
C	0.6192090921087103 0.2084690138004837 0.2500000000000000	0.170191
C	0.7876145159411744 0.0470505887878355 0.2500000000000000	0.127315
C	0.7179883463105795 0.1126711122081654 0.2500000000000000	0.138841
C	0.6832833530110775 0.1458443766525302 0.2500000000000000	-0.099473
C	0.8516452313351711 0.9844704430645108 0.2500000000000000	-0.106175
C	0.1535258777572582 0.6748160836548934 0.2500000000000000	-0.104710
C	0.3849019993175090 0.4497257461840275 0.2500000000000000	0.162202
C	0.3221965678568389 0.5137801349740454 0.2500000000000000	-0.098505
C	0.1192090841087097 0.7084690298004852 0.2500000000000000	0.170192
C	0.2876144839411791 0.5470506297878355 0.2500000000000000	0.127359
C	0.2179883303105782 0.6126711532081651 0.2500000000000000	0.138842
C	0.1832833200110782 0.6458443766525305 0.2500000000000000	-0.099473
C	0.3516451993351689 0.4844704430645103 0.2500000000000000	-0.106134
H	0.9471396575678104 0.1176000542571884 0.0095622887086258	0.092711
H	0.8899680492320476 0.0555413702815727 0.0205418864881389	0.122194
H	0.7837006581864031 0.9492523506237580 0.0193632286341378	0.106660
H	0.7220434212429832 0.8911875045302373 0.0191267539205600	0.115503
H	0.5536559581010702 0.7273969207141732 0.0095285827437505	0.092932
H	0.6138566220879882 0.7861004001502668 0.0203054604857319	0.126391
H	0.4471397535678107 0.6176000702571899 0.0095622887086258	0.092711
H	0.3899679852320492 0.5555413992815786 0.0205418864881390	0.122195
H	0.2837006581864031 0.4492523506237581 0.0193632286341378	0.106657
H	0.2220434372429843 0.3911876035302420 0.0191267539205599	0.115502
H	0.0536559661010708 0.2273969697141739 0.0095285827437505	0.092932
H	0.1138566380879827 0.2861003341502684 0.0203054604857319	0.126391
H	0.0528602824321850 0.8823999297428101 0.5095623177086245	0.092711
H	0.1100319987679493 0.9444586007184214 0.5205419214881379	0.122195
H	0.2162993738135997 0.0507476663762469 0.5193632606341402	0.106656
H	0.2779565787570170 0.1088124214697636 0.5191267499205592	0.115502
H	0.4463440418989300 0.2726030132858282 0.5095285827437507	0.092932
H	0.3861433779120115 0.2138996168497311 0.5203054914857308	0.126391
H	0.5528603424321896 0.3823999297428102 0.5095623177086245	0.092712
H	0.6100319507679524 0.4444586337184276 0.5205419214881379	0.122195
H	0.7162993418135969 0.5507476493762420 0.5193632606341402	0.106660
H	0.7779565787570168 0.6088124954697627 0.5191267499205592	0.115503
H	0.9463440418989298 0.7726030792858268 0.5095285827437507	0.092932
H	0.8861433779120118 0.7138995998497332 0.5203054914857308	0.126391
H	0.0528602824321850 0.1176000542571884 0.4904377132913744	0.092711
H	0.1100319987679493 0.0555413702815727 0.4794580785118546	0.122195
H	0.2162993738135997 0.9492523506237580 0.4806367713658621	0.106657
H	0.2779565787570170 0.8911875045302373 0.4808732500794403	0.115503
H	0.4463440418989300 0.7273969207141732 0.4904714492562521	0.092932
H	0.3861433779120115 0.7861004001502668 0.4796945395142681	0.126391
H	0.5528603424321896 0.6176000702571899 0.4904377132913744	0.092711
H	0.6100319507679524 0.5555413992815786 0.4794580785118546	0.122194
H	0.7162993418135969 0.4492523506237581 0.4806367713658621	0.106660
H	0.7779565787570168 0.3911876035302420 0.4808732500794403	0.115503
H	0.9463440418989298 0.2273969697141739 0.4904714492562521	0.092932
H	0.8861433779120118 0.2861003341502684 0.4796945395142681	0.126391
H	0.9471396575678104 0.8823999297428101 0.9904377132913745	0.092711
H	0.8899680492320476 0.9444586007184214 0.9794580475118559	0.122195
H	0.7837006581864031 0.0507476663762469 0.9806367713658625	0.106660
H	0.7220434212429832 0.1088124214697636 0.9808732190794347	0.115503
H	0.5536559581010702 0.2726030132858282 0.9904714172562493	0.092932
H	0.6138566220879882 0.2138996168497311 0.9796945395142682	0.126391
H	0.4471397535678107 0.3823999297428102 0.9904377132913745	0.092712
H	0.3899679852320492 0.4444586337184276 0.9794580475118559	0.122195
H	0.2837006581864031 0.5507476493762420 0.9806367713658625	0.106657
H	0.2220434372429843 0.6088124954697627 0.9808732190794347	0.115503
H	0.0536559661010708 0.7726030792858268 0.9904714172562493	0.092932
H	0.1138566380879827 0.7138995998497332 0.9796945395142682	0.126391
H	0.0528602824321850 0.8823999297428101 0.9904377132913745	0.092711
H	0.1100319987679493 0.9444586007184214 0.9794580475118559	0.122195
H	0.2162993738135997 0.0507476663762469 0.9806367713658625	0.106657
H	0.2779565787570170 0.1088124214697636 0.9808732190794347	0.115505
H	0.4463440418989300 0.2726030132858282 0.9904714172562493	0.092932
H	0.3861433779120115 0.2138996168497311 0.9796945395142682	0.126392
H	0.5528603424321896 0.3823999297428102 0.9904377132913745	0.092712
H	0.6100319507679524 0.4444586337184276 0.9794580475118559	0.122194
H	0.7162993418135969 0.5507476493762420 0.9806367713658625	0.106660
H	0.7779565787570168 0.6088124954697627 0.9808732190794347	0.115505
H	0.9463440418989298 0.7726030792858268 0.9904714172562493	0.092932
H	0.8861433779120118 0.7138995998497332 0.9796945395142682	0.126392
H	0.9471396575678104 0.1176000542571884 0.4904377132913744	0.092711
H	0.8899680492320476 0.0555413702815727 0.4794580785118546	0.122194
H	0.7837006581864031 0.9492523506237580 0.4806367713658621	0.106660
H	0.7220434212429832 0.8911875045302373 0.4808732500794403	0.115505
H	0.5536559581010702 0.7273969207141732 0.4904714492562521	0.092932
H	0.6138566220879882 0.7861004001502668 0.4796945395142681	0.126392
H	0.4471397535678107 0.6176000702571899 0.4904377132913744	0.092711
H	0.3899679852320492 0.5555413992815786 0.4794580785118546	0.122195
H	0.2837006581864031 0.4492523506237581 0.4806367713658621	0.106657
H	0.2220434372429843 0.3911876035302420 0.4808732500794403	0.115505
H	0.0536559661010708 0.2273969697141739 0.4904714492562521	0.092932
H	0.1138566380879827 0.2861003341502684 0.4796945395142681	0.126392
H	0.9471396575678104 0.8823999297428101 0.5095623177086245	0.092711
H	0.8899680492320476 0.9444586007184214 0.5205419214881379	0.122194
H	0.7837006581864031 0.0507476663762469 0.5193632606341402	0.106660
H	0.7220434212429832 0.1088124214697636 0.5191267499205592	0.115505
H	0.5536559581010702 0.2726030132858282 0.5095285827437507	0.092932
H	0.6138566220879882 0.2138996168497311 0.5203054914857308	0.126392
H	0.4471397535678107 0.3823999297428102 0.5095623177086245	0.092712
H	0.3899679852320492 0.4444586337184276 0.5205419214881379	0.122195
H	0.2837006581864031 0.5507476493762420 0.5193632606341402	0.106657
H	0.2220434372429843 0.6088124954697627 0.5191267499205592	0.115504
H	0.0536559661010708 0.7726030792858268 0.5095285827437507	0.092932
H	0.1138566380879827 0.7138995998497332 0.5203054914857308	0.126392
H	0.0528602824321850 0.1176000542571884 0.0095622887086258	0.092711
H	0.1100319987679493 0.0555413702815727 0.0205418864881389	0.122195
H	0.2162993738135997 0.9492523506237580 0.0193632286341378	0.106657
H	0.2779565787570170 0.8911875045302373 0.0191267539205599	0.115504
H	0.4463440418989300 0.7273969207141732 0.0095285827437505	0.092932
H	0.3861433779120115 0.7861004001502668 0.0203054604857319	0.126392
H	0.5528603424321896 0.6176000702571899 0.0095622887086258	0.092711
H	0.6100319507679524 0.5555413992815786 0.0205418864881389	0.122194
H	0.7162993418135969 0.4492523506237581 0.0193632286341378	0.106660
H	0.7779565787570168 0.3911876035302420 0.0191267539205599	0.115505
H	0.9463440418989298 0.2273969697141739 0.0095285827437505	0.092932
H	0.8861433779120118 0.2861003341502684 0.0203054604857319	0.126392
Ni	0.5000000000000000 0.6728885815500865 0.7500000160000013	0.792694
Ni	0.0000000000000000 0.1728885985500841 0.7500000160000013	0.792693
Ni	0.5000000000000000 0.3271114184499136 0.2500000000000000	0.792694
Ni	0.0000000000000000 0.8271114184499135 0.2500000000000000	0.792694
Ti	0.5000000000000000 0.6728496399454761 0.2500000000000000	2.312653
Ti	0.0000000000000000 0.1728496399454762 0.2500000000000000	2.312653
Ti	0.5000000000000000 0.3271503920545266 0.7500000160000013	2.312680
Ti	0.0000000000000000 0.8271503600545239 0.7500000160000013	2.312653
F	0.5000000000000000 0.7378830622197492 0.2500000000000000	-0.634271
F	0.5000000000000000 0.6078464749508338 0.2500000000000000	-0.630672
F	0.0000000000000000 0.2378830132197488 0.2500000000000000	-0.634271
F	0.0000000000000000 0.1078464589508324 0.2500000000000000	-0.630672
F	0.5000000000000000 0.2621169867802511 0.7500000160000013	-0.634275
F	0.5000000000000000 0.3921534920491672 0.7500000160000013	-0.630687
F	0.0000000000000000 0.7621169377802508 0.7500000160000013	-0.634271
F	0.0000000000000000 0.8921535250491662 0.7500000160000013	-0.630673
F	0.5632698546396604 0.6729502272307133 0.2500000000000000	-0.633423
F	0.0632698746396617 0.1729502602307125 0.2500000000000000	-0.633423
F	0.4367301133603375 0.3270497067692884 0.7500000160000013	-0.633423
F	0.9367301453603396 0.8270497727692867 0.7500000160000013	-0.633423
F	0.4367301133603375 0.6729502272307133 0.2500000000000000	-0.633423
F	0.9367301453603395 0.1729502602307125 0.2500000000000000	-0.633423
F	0.5632698546396604 0.3270497067692884 0.7500000160000013	-0.633423
F	0.0632698746396617 0.8270497727692867 0.7500000160000013	-0.633423
F	0.5000000000000000 0.6729509361417183 0.4940124107825996	-0.613221
F	0.0000000000000000 0.1729509531417164 0.4940124107825997	-0.613221
F	0.5000000000000000 0.3270490968582807 -0.0059875892174002	-0.613225
F	0.0000000000000000 0.8270490638582817 -0.0059875892174002	-0.613222
F	0.5000000000000000 0.6729509361417183 0.0059875852174000	-0.613221
F	0.0000000000000000 0.1729509531417164 0.0059875852174000	-0.613221
F	0.5000000000000000 0.3270490968582807 0.5059875572174046	-0.613225
F	0.0000000000000000 0.8270490638582817 0.5059875572174046	-0.613221
N	0.5507292085805084 0.7244905945660423 0.7500000160000013	-0.238601
N	0.9498831501533551 0.1205669419493757 0.7500000160000013	-0.238707
N	0.0507291725805055 0.2244905785660410 0.7500000160000013	-0.238601
N	0.4498831501533548 0.6205669259493743 0.7500000160000013	-0.238707
N	0.4492708554194898 0.2755094054339577 0.2500000000000000	-0.238601
N	0.0501168578466459 0.8794330740506257 0.2500000000000000	-0.238707
N	0.9492707914194916 0.7755094054339577 0.2500000000000000	-0.238601
N	0.5501168498466449 0.3794330740506257 0.2500000000000000	-0.238707
N	0.4492708554194898 0.7244905945660423 0.7500000160000013	-0.238601
N	0.0501168578466459 0.1205669419493757 0.7500000160000013	-0.238707
N	0.9492707914194916 0.2244905785660410 0.7500000160000013	-0.238601
N	0.5501168498466449 0.6205669259493743 0.7500000160000013	-0.238707
N	0.5507292085805084 0.2755094054339577 0.2500000000000000	-0.238601
N	0.9498831501533551 0.8794330740506257 0.2500000000000000	-0.238707
N	0.0507291725805055 0.7755094054339577 0.2500000000000000	-0.238601
N	0.4498831501533548 0.3794330740506257 0.2500000000000000	-0.238707
	  	
