#======================================================================

# CRYSTAL DATA

#----------------------------------------------------------------------

data_VESTA_phase_1


_pd_phase_name                         TIFSIX_7_Ni
_cell_length_a                         19.10496
_cell_length_b                         19.10496
_cell_length_c                         8.04942
_cell_angle_alpha                      90
_cell_angle_beta                       90
_cell_angle_gamma                      90
_symmetry_space_group_name_H-M         P 1
_symmetry_Int_Tables_number            1

loop_
_symmetry_equiv_pos_as_xyz
   x, y, z

loop_
   _atom_site_label
   _atom_site_fract_x
   _atom_site_fract_y
   _atom_site_fract_z
   _atom_site_charge
C	0.6658945989262745 0.8711333807626288 0.6969526355192419	0.104488
C	0.6147063351758969 0.9227591653311151 0.7015870844843097	-0.174344
C	0.5798420204025351 0.8876369925293869 0.4280709127808295	-0.170150
C	0.6314588777037363 0.8366688562083615 0.4336640229162093	0.101322
C	0.8341054010737255 0.6288666192373712 0.6969526355192419	0.104488
C	0.8852937148241001 0.5772408856688855 0.7015870844843097	-0.174344
C	0.9201578785974672 0.6123630584706067 0.4280709127808295	-0.170150
C	0.8685411222962637 0.6633311437916385 0.4336640229162093	0.101321
C	0.6288666192373712 0.6658945989262745 0.6969526355192419	0.104488
C	0.5772408856688855 0.6147063351758969 0.7015870844843097	-0.174343
C	0.6123630584706067 0.5798420204025351 0.4280709127808295	-0.170149
C	0.6633311437916385 0.6314588777037363 0.4336640229162093	0.101322
C	0.8711333807626288 0.8341054010737255 0.6969526355192419	0.104488
C	0.9227591653311151 0.8852937148241001 0.7015870844843097	-0.174343
C	0.8876369925293869 0.9201578785974672 0.4280709127808295	-0.170149
C	0.8366688562083615 0.8685411222962637 0.4336640229162093	0.101322
C	0.3341053760737271 0.3711333307626247 0.3030473944807604	0.104488
C	0.3852936648241033 0.4227591653311152 0.2984129455156928	-0.174343
C	0.4201579795974647 0.3876369415293931 0.5719290872191705	-0.170150
C	0.3685410712962703 0.3366688562083617 0.5663360070837931	0.101322
C	0.1658946239262729 0.1288666562373777 0.3030473944807604	0.104488
C	0.1147063351758969 0.0772408346688847 0.2984129455156928	-0.174343
C	0.0798420014025301 0.1123630584706069 0.5719290872191705	-0.170150
C	0.1314589287037297 0.1633311317916374 0.5663360070837931	0.101322
C	0.3711333307626247 0.1658946239262729 0.3030473944807604	0.104488
C	0.4227591653311152 0.1147063351758969 0.2984129455156928	-0.174343
C	0.3876369415293931 0.0798420014025301 0.5719290872191705	-0.170149
C	0.3366688562083617 0.1314589287037297 0.5663360070837931	0.101322
C	0.1288666562373777 0.3341053760737271 0.3030473944807604	0.104488
C	0.0772408346688847 0.3852936648241033 0.2984129455156928	-0.174343
C	0.1123630584706069 0.4201579795974647 0.5719290872191705	-0.170149
C	0.1633311317916374 0.3685410712962703 0.5663360070837931	0.101322
C	0.4327897472037113 0.0703202752461787 0.4357659792412674	0.138685
C	0.4872585910333026 0.0168295891748800 0.4323352022479839	-0.121357
C	0.0672102527962887 0.4296797177538244 0.4357659792412674	0.138685
C	0.0127413769666947 0.4831703468251217 0.4323352022479839	-0.121357
C	0.4296797177538244 0.4327897472037113 0.4357659792412674	0.138685
C	0.4831703468251217 0.4872585910333026 0.4323352022479839	-0.121357
C	0.0703202752461787 0.0672102527962887 0.4357659792412674	0.138685
C	0.0168295891748800 0.0127413769666947 0.4323352022479839	-0.121357
C	0.5672102527962888 0.5703202822461756 0.5642340207587321	0.138683
C	0.5127414599666906 0.5168296031748743 0.5676648267520150	-0.121336
C	0.9327896972037142 0.9296796677538203 0.5642340207587321	0.138683
C	0.9872585910333029 0.9831704478251264 0.5676648267520150	-0.121335
C	0.5703202822461756 0.9327896972037142 0.5642340207587321	0.138683
C	0.5168296031748743 0.9872585910333029 0.5676648267520150	-0.121335
C	0.9296796677538203 0.5672102527962888 0.5642340207587321	0.138683
C	0.9831704478251264 0.5127414599666906 0.5676648267520150	-0.121335
H	0.7002535798732143 0.8623774822892700 0.8027061443731066	0.101886
H	0.6101303100856301 0.9551684532421629 0.8125422056210651	0.118022
H	0.5466149824101290 0.8905178615524152 0.3183402051036106	0.118690
H	0.6398269790390656 0.8016664608891249 0.3290059213059443	0.101023
H	0.7997464201267857 0.6376225177107300 0.8027061443731066	0.101886
H	0.8898696899143699 0.5448315977578377 0.8125422056210651	0.118022
H	0.9533850685898717 0.6094821894475855 0.3183402051036106	0.118690
H	0.8601730209609344 0.6983335391108751 0.3290059213059443	0.101023
H	0.6376225177107300 0.7002535798732143 0.8027061443731066	0.101886
H	0.5448315977578377 0.6101303100856301 0.8125422056210651	0.118021
H	0.6094821894475855 0.5466149824101290 0.3183402051036106	0.118689
H	0.6983335391108751 0.6398269790390656 0.3290059213059443	0.101023
H	0.8623774822892700 0.7997464201267857 0.8027061443731066	0.101886
H	0.9551684532421629 0.8898696899143699 0.8125422056210651	0.118021
H	0.8905178615524152 0.9533850685898717 0.3183402051036106	0.118690
H	0.8016664608891249 0.8601730209609344 0.3290059213059443	0.101023
H	0.2997464461267879 0.3623774062892709 0.1972938406268957	0.101886
H	0.3898696139143638 0.4551684022421622 0.1874577503789313	0.118021
H	0.4533850685898714 0.3905178615524149 0.6816597648963940	0.118689
H	0.3601730459609401 0.3016664868891272 0.6709940786940556	0.101023
H	0.2002535668732097 0.1376226197107312 0.1972938406268957	0.101886
H	0.1101303610856306 0.0448316137578391 0.1874577503789313	0.118021
H	0.0466149254101280 0.1094821644475872 0.6816597648963940	0.118689
H	0.1398269790390655 0.1983335011108721 0.6709940786940556	0.101023
H	0.3623774062892709 0.2002535668732097 0.1972938406268957	0.101886
H	0.4551684022421622 0.1101303610856306 0.1874577503789313	0.118021
H	0.3905178615524149 0.0466149254101280 0.6816597648963940	0.118689
H	0.3016664868891272 0.1398269790390655 0.6709940786940556	0.101023
H	0.1376226197107312 0.2997464461267879 0.1972938406268957	0.101886
H	0.0448316137578391 0.3898696139143638 0.1874577503789313	0.118021
H	0.1094821644475872 0.4533850685898714 0.6816597648963940	0.118689
H	0.1983335011108721 0.3601730459609401 0.6709940786940556	0.101023
H	0.5059709560937122 0.0021113958377730 0.3087316526115197	0.103516
H	0.9940290949062884 0.4978885761622246 0.3087316526115197	0.103516
H	0.4978885761622246 0.5059709560937122 0.3087316526115197	0.103516
H	0.0021113958377730 0.9940290949062884 0.3087316526115197	0.103516
H	0.4940290439062881 0.5021113738377783 0.6912683773884760	0.103514
H	0.0059709470937149 0.9978885761622247 0.6912683773884760	0.103514
H	0.5021113738377783 0.0059709470937149 0.6912683773884760	0.103514
H	0.9978885761622247 0.4940290439062881 0.6912683773884760	0.103514
Ni	0.2500000000000000 0.2500000000000000 0.4342219213685100	0.783627
Ni	0.7500000000000000 0.7500000000000000 0.5657780786314897	0.783627
Ti	0.2500000000000000 0.2500000000000000 0.9352357084273358	2.321867
Ti	0.7500000000000000 0.7500000000000000 0.0647642765726666	2.321867
F	0.2500000000000000 0.2500000000000000 0.1778549325952511	-0.622962
F	0.2500000000000000 0.2500000000000000 0.6922619066325270	-0.622385
F	0.7500000000000000 0.7500000000000000 0.8221450974047512	-0.622962
F	0.7500000000000000 0.7500000000000000 0.3077380933674733	-0.622385
F	0.3205164102360510 0.3192270431503127 0.9358032308952640	-0.645225
F	0.1794836147639477 0.1807729818496859 0.9358032308952640	-0.645225
F	0.1807729818496859 0.3205164102360510 0.9358032308952640	-0.645225
F	0.3192270431503127 0.1794836147639477 0.9358032308952640	-0.645225
F	0.6794836147639476 0.8192270431503127 0.0641967691047362	-0.645225
F	0.8205163852360524 0.6807729568496873 0.0641967691047362	-0.645225
F	0.8192270431503127 0.8205163852360524 0.0641967691047362	-0.645225
F	0.6807729568496873 0.6794836147639476 0.0641967691047362	-0.645225
N	0.3284222223813921 0.1742491924272881 0.4345758999802412	-0.241602
N	0.1715778026186064 0.3257508325727104 0.4345758999802412	-0.241602
N	0.3257508325727104 0.3284222223813921 0.4345758999802412	-0.241602
N	0.1742491924272881 0.1715778026186064 0.4345758999802412	-0.241602
N	0.6715777776186078 0.6742491674272897 0.5654241000197586	-0.241602
N	0.8284222223813922 0.8257508325727103 0.5654241000197586	-0.241602
N	0.6742491674272897 0.8284222223813922 0.5654241000197586	-0.241602
N	0.8257508325727103 0.6715777776186078 0.5654241000197586	-0.241602
	  	
