#======================================================================

# CRYSTAL DATA

#----------------------------------------------------------------------

data_VESTA_phase_1


_pd_phase_name                         TIFSIX_2_Cd
_cell_length_a                         14.30308
_cell_length_b                         14.30308
_cell_length_c                         8.26786
_cell_angle_alpha                      90
_cell_angle_beta                       90
_cell_angle_gamma                      90
_symmetry_space_group_name_H-M         P 1
_symmetry_Int_Tables_number            1

loop_
_symmetry_equiv_pos_as_xyz
   x, y, z

loop_
   _atom_site_label
   _atom_site_fract_x
   _atom_site_fract_y
   _atom_site_fract_z
   _atom_site_charge
C	0.5299652192483483 0.7106335663245377 0.1308706524970841	0.100803
C	0.5309820230574335 0.8077356174118826 0.1359227364590660	-0.164871
C	0.4700348507516501 0.2893664336754623 0.1308706524970841	0.100794
C	0.4690179419425674 0.1922643645881158 0.1359227364590660	-0.164842
C	0.2893664336754623 0.5299652192483483 0.1308706524970841	0.100804
C	0.1922643645881158 0.5309820230574335 0.1359227364590660	-0.164871
C	0.7106335663245377 0.4700348507516501 0.1308706524970841	0.100794
C	0.8077356174118826 0.4690179419425674 0.1359227364590660	-0.164842
C	0.4700348507516501 0.7106335663245377 0.8691293475029158	0.100797
C	0.4690179419425674 0.8077356174118826 0.8640772335409316	-0.164844
C	0.5299652192483483 0.2893664336754623 0.8691293475029158	0.100801
C	0.5309820230574335 0.1922643645881158 0.8640772335409316	-0.164868
C	0.7106335663245377 0.5299652192483483 0.8691293475029158	0.100802
C	0.8077356174118826 0.5309820230574335 0.8640772335409316	-0.164868
C	0.2893664336754623 0.4700348507516501 0.8691293475029158	0.100797
C	0.1922643645881158 0.4690179419425674 0.8640772335409316	-0.164844
C	0.5000000000000000 0.1415883272799181 0.0000000000000000	0.170581
C	0.5000000000000000 0.0426139794226732 0.0000000000000000	-0.092740
C	0.5000000000000000 0.8584116727200816 0.0000000000000000	0.170551
C	0.5000000000000000 0.9573859635773327 0.0000000000000000	-0.092501
C	0.8584116727200816 0.5000000000000000 0.0000000000000000	0.170581
C	0.9573859635773327 0.5000000000000000 0.0000000000000000	-0.092740
C	0.1415883272799181 0.5000000000000000 0.0000000000000000	0.170551
C	0.0426139794226732 0.5000000000000000 0.0000000000000000	-0.092500
H	0.5531672886702224 0.6692793686925232 0.2346758038042115	0.105239
H	0.5556855115443428 0.8435486036631565 0.2439498473581971	0.129616
H	0.4468327113297780 0.3307205613074779 0.2346758038042115	0.105239
H	0.4443145234556568 0.1564513263368455 0.2439498473581971	0.129602
H	0.3307205613074779 0.5531672886702224 0.2346758038042115	0.105239
H	0.1564513263368455 0.5556855115443428 0.2439498473581971	0.129616
H	0.6692793686925232 0.4468327113297780 0.2346758038042115	0.105239
H	0.8435486036631565 0.4443145234556568 0.2439498473581971	0.129602
H	0.4468327113297780 0.6692793686925232 0.7653241961957883	0.105239
H	0.4443145234556568 0.8435486036631565 0.7560501826418056	0.129601
H	0.5531672886702224 0.3307205613074779 0.7653241961957883	0.105239
H	0.5556855115443428 0.1564513263368455 0.7560501826418056	0.129616
H	0.6692793686925232 0.5531672886702224 0.7653241961957883	0.105239
H	0.8435486036631565 0.5556855115443428 0.7560501826418056	0.129617
H	0.3307205613074779 0.4468327113297780 0.7653241961957883	0.105239
H	0.1564513263368455 0.4443145234556568 0.7560501826418056	0.129600
Cd	0.5000000000000000 0.5000000000000000 0.0000000000000000	0.852853
Ti	0.5000000000000000 0.5000000000000000 0.5000000000000000	2.346117
F	0.5000000000000000 0.5000000000000000 0.7322860796358025	-0.628213
F	0.5000000000000000 0.5000000000000000 0.2677139503641927	-0.628213
F	0.5937098972700844 0.5937098972700844 0.5000000000000000	-0.664101
F	0.4062901377299149 0.5937098972700844 0.5000000000000000	-0.664101
F	0.4062901377299149 0.4062901377299149 0.5000000000000000	-0.664101
F	0.5937098972700844 0.4062901377299149 0.5000000000000000	-0.664101
N	0.5000000000000000 0.3368914151678293 0.0000000000000000	-0.241064
N	0.5000000000000000 0.6631085498321715 0.0000000000000000	-0.241063
N	0.6631085498321715 0.5000000000000000 0.0000000000000000	-0.241064
N	0.3368914151678293 0.5000000000000000 0.0000000000000000	-0.241063
	  	
