#======================================================================

# CRYSTAL DATA

#----------------------------------------------------------------------

data_VESTA_phase_1


_pd_phase_name                         TIFSIX_15_Cd_i
_cell_length_a                         30.29123
_cell_length_b                         29.67222
_cell_length_c                         8.29191
_cell_angle_alpha                      90
_cell_angle_beta                       90
_cell_angle_gamma                      90
_symmetry_space_group_name_H-M         P 1
_symmetry_Int_Tables_number            1

loop_
_symmetry_equiv_pos_as_xyz
   x, y, z

loop_
   _atom_site_label
   _atom_site_fract_x
   _atom_site_fract_y
   _atom_site_fract_z
   _atom_site_charge
C	0.9301885184109019 0.0993696157534293 0.8904145502722589	0.105726
C	0.8987976298313667 0.0652959093215884 0.8959628924746247	-0.163053
C	0.7695564870340874 0.9361296491739769 0.8972798799024161	-0.113294
C	0.7360504493632056 0.9043863441544028 0.8970814867380799	-0.115734
C	0.5713553009643737 0.7448228234344582 0.8902955975801977	0.103508
C	0.6045298330185888 0.7770838997420270 0.8956449712790814	-0.166897
C	0.4301885504108973 0.5993696317534306 0.8904145502722589	0.105726
C	0.3987976618313695 0.5652958723215888 0.8959628924746247	-0.163053
C	0.2695564230340895 0.4361296821739760 0.8972798799024161	-0.113294
C	0.2360504173632028 0.4043864101544078 0.8970814867380799	-0.115734
C	0.0713553249643762 0.2448228064344599 0.8902955975801977	0.103508
C	0.1045298090185869 0.2770839327420261 0.8956449712790813	-0.166897
C	0.0698114495891026 0.9006303682465694 0.3904145812722579	0.105727
C	0.1012023461686312 0.9347041276784112 0.3959629244746207	-0.163053
C	0.2304435289659138 0.0638703138260238 0.3972799419024144	-0.113293
C	0.2639495666367959 0.0956136058455933 0.3970814867380801	-0.115734
C	0.4286446670356232 0.2551772265655394 0.3902956285801968	0.103508
C	0.3954701669814110 0.2229160672579737 0.3956449712790814	-0.166896
C	0.5698114815890981 0.4006304012465686 0.3904145812722579	0.105727
C	0.6012023701686333 0.4347041276784110 0.3959629244746207	-0.163054
C	0.7304435129659126 0.5638703508260231 0.3972799419024144	-0.113293
C	0.7639495506367944 0.5956136558455972 0.3970814867380801	-0.115734
C	0.9286446990356263 0.7551771765655418 0.3902956285801968	0.103507
C	0.8954701669814112 0.7229161002579730 0.3956449712790814	-0.166896
C	0.0698114495891026 0.0993696157534293 0.6095854187277421	0.105726
C	0.1012023461686312 0.0652959093215884 0.6040370135253746	-0.163052
C	0.2304435289659138 0.9361296491739769 0.6027200890975849	-0.113293
C	0.2639495666367959 0.9043863441544028 0.6029185442619192	-0.115733
C	0.4286446670356232 0.7448228234344582 0.6097043084198016	0.103508
C	0.3954701669814110 0.7770838997420270 0.6043549977209196	-0.166897
C	0.5698114815890981 0.5993696317534306 0.6095854187277421	0.105726
C	0.6012023701686333 0.5652958723215888 0.6040370135253746	-0.163053
C	0.7304435129659126 0.4361296821739760 0.6027200890975849	-0.113294
C	0.7639495506367944 0.4043864101544078 0.6029185442619192	-0.115733
C	0.9286446990356263 0.2448228064344599 0.6097043084198016	0.103508
C	0.8954701669814112 0.2770839327420261 0.6043549977209196	-0.166896
C	0.9301885184109019 0.9006303682465694 0.1095854347277434	0.105727
C	0.8987976298313667 0.9347041276784112 0.1040370525253739	-0.163053
C	0.7695564870340874 0.0638703138260238 0.1027200890975848	-0.113293
C	0.7360504493632056 0.0956136058455933 0.1029185292619141	-0.115734
C	0.5713553009643737 0.2551772265655394 0.1097043634198026	0.103508
C	0.6045298330185888 0.2229160672579737 0.1043550437209164	-0.166896
C	0.4301885504108973 0.4006304012465686 0.1095854347277434	0.105727
C	0.3987976618313695 0.4347041276784110 0.1040370525253739	-0.163053
C	0.2695564230340895 0.5638703508260231 0.1027200890975848	-0.113293
C	0.2360504173632028 0.5956136558455972 0.1029185292619141	-0.115734
C	0.0713553249643762 0.7551771765655418 0.1097043634198026	0.103507
C	0.1045298090185869 0.7229161002579730 0.1043550437209164	-0.166896
C	0.0698114495891026 0.9006303682465694 0.1095854347277434	0.105727
C	0.1012023461686312 0.9347041276784112 0.1040370525253739	-0.163053
C	0.2304435289659138 0.0638703138260238 0.1027200890975848	-0.113293
C	0.2639495666367959 0.0956136058455933 0.1029185292619141	-0.115734
C	0.4286446670356232 0.2551772265655394 0.1097043634198026	0.103508
C	0.3954701669814110 0.2229160672579737 0.1043550437209164	-0.166896
C	0.5698114815890981 0.4006304012465686 0.1095854347277434	0.105727
C	0.6012023701686333 0.4347041276784110 0.1040370525253739	-0.163054
C	0.7304435129659126 0.5638703508260231 0.1027200890975848	-0.113293
C	0.7639495506367944 0.5956136558455972 0.1029185292619141	-0.115734
C	0.9286446990356263 0.7551771765655418 0.1097043634198026	0.103508
C	0.8954701669814112 0.7229161002579730 0.1043550437209164	-0.166896
C	0.9301885184109019 0.0993696157534293 0.6095854187277421	0.105727
C	0.8987976298313667 0.0652959093215884 0.6040370135253746	-0.163053
C	0.7695564870340874 0.9361296491739769 0.6027200890975849	-0.113293
C	0.7360504493632056 0.9043863441544028 0.6029185442619192	-0.115734
C	0.5713553009643737 0.7448228234344582 0.6097043084198016	0.103509
C	0.6045298330185888 0.7770838997420270 0.6043549977209196	-0.166896
C	0.4301885504108973 0.5993696317534306 0.6095854187277421	0.105727
C	0.3987976618313695 0.5652958723215888 0.6040370135253746	-0.163053
C	0.2695564230340895 0.4361296821739760 0.6027200890975849	-0.113294
C	0.2360504173632028 0.4043864101544078 0.6029185442619192	-0.115734
C	0.0713553249643762 0.2448228064344599 0.6097043084198016	0.103509
C	0.1045298090185869 0.2770839327420261 0.6043549977209196	-0.166896
C	0.9301885184109019 0.9006303682465694 0.3904145812722579	0.105727
C	0.8987976298313667 0.9347041276784112 0.3959629244746207	-0.163053
C	0.7695564870340874 0.0638703138260238 0.3972799419024144	-0.113293
C	0.7360504493632056 0.0956136058455933 0.3970814867380801	-0.115734
C	0.5713553009643737 0.2551772265655394 0.3902956285801968	0.103508
C	0.6045298330185888 0.2229160672579737 0.3956449712790814	-0.166895
C	0.4301885504108973 0.4006304012465686 0.3904145812722579	0.105727
C	0.3987976618313695 0.4347041276784110 0.3959629244746207	-0.163053
C	0.2695564230340895 0.5638703508260231 0.3972799419024144	-0.113293
C	0.2360504173632028 0.5956136558455972 0.3970814867380801	-0.115734
C	0.0713553249643762 0.7551771765655418 0.3902956285801968	0.103508
C	0.1045298090185869 0.7229161002579730 0.3956449712790814	-0.166896
C	0.0698114495891026 0.0993696157534293 0.8904145502722589	0.105726
C	0.1012023461686312 0.0652959093215884 0.8959628924746247	-0.163052
C	0.2304435289659138 0.9361296491739769 0.8972798799024161	-0.113293
C	0.2639495666367959 0.9043863441544028 0.8970814867380799	-0.115734
C	0.4286446670356232 0.7448228234344582 0.8902955975801977	0.103509
C	0.3954701669814110 0.7770838997420270 0.8956449712790813	-0.166896
C	0.5698114815890981 0.5993696317534306 0.8904145502722589	0.105727
C	0.6012023701686333 0.5652958723215888 0.8959628924746247	-0.163053
C	0.7304435129659126 0.4361296821739760 0.8972798799024161	-0.113294
C	0.7639495506367944 0.4043864101544078 0.8970814867380799	-0.115733
C	0.9286446990356263 0.2448228064344599 0.8902955975801977	0.103509
C	0.8954701669814112 0.2770839327420261 0.8956449712790813	-0.166896
C	0.6557085722737619 0.8268677238982131 0.7500000160000013	-0.107262
C	0.8823110992455155 0.0477004405351130 0.7500000160000013	0.161791
C	0.8206459145246296 0.9851014288619747 0.7500000160000013	-0.096369
C	0.6219253750485342 0.7939970030089482 0.7500000160000013	0.170180
C	0.7867557599888113 0.9524356428026073 0.7500000160000013	0.125945
C	0.7188048223074139 0.8879459198663449 0.7500000160000013	0.138760
C	0.6848668826256268 0.8552845616243034 0.7500000160000013	-0.097071
C	0.8495920441387257 0.0137430153584136 0.7500000160000013	-0.108816
C	0.1557085562737605 0.3268677238982136 0.7500000160000013	-0.107263
C	0.3823110032455146 0.5477004525351141 0.7500000160000013	0.161791
C	0.3206459145246296 0.4851014288619739 0.7500000160000013	-0.096369
C	0.1219253670485336 0.2939970030089485 0.7500000160000013	0.170180
C	0.2867557279888163 0.4524356428026071 0.7500000160000013	0.125946
C	0.2188048063074126 0.3879459528663441 0.7500000160000013	0.138760
C	0.1848668496256276 0.3552845286243042 0.7500000160000013	-0.097071
C	0.3495920121387233 0.5137430103584097 0.7500000160000013	-0.108816
C	0.3442914597262410 0.1731322761017867 0.2500000000000000	-0.107263
C	0.1176889727544906 0.9522995474648858 0.2500000000000000	0.161791
C	0.1793540854753704 0.0148985671380255 0.2500000000000000	-0.096369
C	0.3780746249514659 0.2060029809910503 0.2500000000000000	0.170180
C	0.2132442560111897 0.0475643491973922 0.2500000000000000	0.125945
C	0.2811951776925862 0.1120540391336553 0.2500000000000000	0.138761
C	0.3151331503743725 0.1447154383756968 0.2500000000000000	-0.097071
C	0.1504079878612767 0.9862569566415911 0.2500000000000000	-0.108817
C	0.8442914277262381 0.6731322761017869 0.2500000000000000	-0.107262
C	0.6176889007544845 0.4522995804648852 0.2500000000000000	0.161791
C	0.6793540854753704 0.5148985711380253 0.2500000000000000	-0.096369
C	0.8780746249514658 0.7060029969910518 0.2500000000000000	0.170180
C	0.7132442400111887 0.5475643901973919 0.2500000000000000	0.125945
C	0.7811951776925861 0.6120540801336551 0.2500000000000000	0.138761
C	0.8151331173743732 0.6447154383756966 0.2500000000000000	-0.097071
C	0.6504079558612743 0.4862569566415914 0.2500000000000000	-0.108817
C	0.3442914597262410 0.8268677238982131 0.7500000160000013	-0.107263
C	0.1176889727544906 0.0477004405351130 0.7500000160000013	0.161791
C	0.1793540854753704 0.9851014288619747 0.7500000160000013	-0.096369
C	0.3780746249514659 0.7939970030089482 0.7500000160000013	0.170180
C	0.2132442560111897 0.9524356428026073 0.7500000160000013	0.125945
C	0.2811951776925862 0.8879459198663449 0.7500000160000013	0.138760
C	0.3151331503743725 0.8552845616243034 0.7500000160000013	-0.097071
C	0.1504079878612767 0.0137430153584136 0.7500000160000013	-0.108816
C	0.8442914277262381 0.3268677238982136 0.7500000160000013	-0.107262
C	0.6176889007544845 0.5477004525351141 0.7500000160000013	0.161790
C	0.6793540854753704 0.4851014288619739 0.7500000160000013	-0.096369
C	0.8780746249514658 0.2939970030089485 0.7500000160000013	0.170180
C	0.7132442400111887 0.4524356428026071 0.7500000160000013	0.125945
C	0.7811951776925861 0.3879459528663441 0.7500000160000013	0.138760
C	0.8151331173743732 0.3552845286243042 0.7500000160000013	-0.097071
C	0.6504079558612743 0.5137430103584097 0.7500000160000013	-0.108816
C	0.6557085722737619 0.1731322761017867 0.2500000000000000	-0.107262
C	0.8823110992455155 0.9522995474648859 0.2500000000000000	0.161791
C	0.8206459145246296 0.0148985671380255 0.2500000000000000	-0.096369
C	0.6219253750485342 0.2060029809910503 0.2500000000000000	0.170180
C	0.7867557599888113 0.0475643491973922 0.2500000000000000	0.125945
C	0.7188048223074139 0.1120540391336553 0.2500000000000000	0.138761
C	0.6848668826256268 0.1447154383756968 0.2500000000000000	-0.097071
C	0.8495920441387257 0.9862569566415911 0.2500000000000000	-0.108817
C	0.1557085562737605 0.6731322761017869 0.2500000000000000	-0.107262
C	0.3823110032455146 0.4522995804648852 0.2500000000000000	0.161791
C	0.3206459145246296 0.5148985711380253 0.2500000000000000	-0.096369
C	0.1219253670485336 0.7060029969910518 0.2500000000000000	0.170180
C	0.2867557279888163 0.5475643901973919 0.2500000000000000	0.125945
C	0.2188048063074126 0.6120540801336551 0.2500000000000000	0.138761
C	0.1848668496256276 0.6447154383756966 0.2500000000000000	-0.097071
C	0.3495920121387233 0.4862569566415914 0.2500000000000000	-0.108817
H	0.9436387259026118 0.1139461437717715 0.0008699489962611	0.101186
H	0.8870407042130274 0.0525164401570336 0.0114613299978770	0.120847
H	0.7830567584052698 0.9488553930514723 0.0103610663368500	0.106975
H	0.7226163479748030 0.8916521921415119 0.0101097204262317	0.115312
H	0.5571580785947468 0.7310421638450936 0.0008045842160551	0.099623
H	0.6169132761619419 0.7890871420712232 0.0111911841504037	0.126528
H	0.4436388219026127 0.6139461597717730 0.0008699489962611	0.101186
H	0.3870406402130292 0.5525164691570398 0.0114613299978770	0.120847
H	0.2830567584052698 0.4488553930514725 0.0103610663368500	0.106975
H	0.2226163639748046 0.3916522911415164 0.0101097204262317	0.115312
H	0.0571580865947475 0.2310422128450938 0.0008045842160551	0.099623
H	0.1169132921619359 0.2890870760712246 0.0111911841504037	0.126528
H	0.0563612140973833 0.8860538402282270 0.5008699779962600	0.101186
H	0.1129593437869696 0.9474835308429602 0.5114613649978762	0.120847
H	0.2169432735947330 0.0511446239485325 0.5103610983368525	0.106975
H	0.2773836520251965 0.1083477338584893 0.5101097164262313	0.115312
H	0.4428419214052531 0.2689577701549083 0.5008045842160554	0.099623
H	0.3830867238380584 0.2109128749287748 0.5111912151504027	0.126528
H	0.5563612740973882 0.3860538402282272 0.5008699779962600	0.101187
H	0.6129592957869726 0.4474835638429663 0.5114613649978762	0.120847
H	0.7169432415947302 0.5511446069485277 0.5103610983368525	0.106975
H	0.7773836520251970 0.6083478078584881 0.5101097164262313	0.115312
H	0.9428419214052532 0.7689578361549064 0.5008045842160554	0.099623
H	0.8830867238380581 0.7109128579287768 0.5111912151504027	0.126528
H	0.0563612140973833 0.1139461437717715 0.4991300530037392	0.101186
H	0.1129593437869696 0.0525164401570336 0.4885386350021165	0.120847
H	0.2169432735947330 0.9488553930514723 0.4896389336631501	0.106975
H	0.2773836520251965 0.8916521921415119 0.4898902835737685	0.115312
H	0.4428419214052531 0.7310421638450936 0.4991954477839475	0.099623
H	0.3830867238380584 0.7890871420712232 0.4888088158495964	0.126528
H	0.5563612740973882 0.6139461597717730 0.4991300530037392	0.101186
H	0.6129592957869726 0.5525164691570398 0.4885386350021165	0.120847
H	0.7169432415947302 0.4488553930514725 0.4896389336631501	0.106975
H	0.7773836520251970 0.3916522911415164 0.4898902835737685	0.115312
H	0.9428419214052532 0.2310422128450938 0.4991954477839475	0.099623
H	0.8830867238380581 0.2890870760712246 0.4888088158495964	0.126528
H	0.9436387259026118 0.8860538402282270 0.9991300530037390	0.101187
H	0.8870407042130274 0.9474835308429602 0.9885386040021177	0.120847
H	0.7830567584052698 0.0511446239485325 0.9896389336631501	0.106975
H	0.7226163479748030 0.1083477338584893 0.9898902525737626	0.115312
H	0.5571580785947468 0.2689577701549083 0.9991954157839446	0.099623
H	0.6169132761619419 0.2109128749287748 0.9888088158495963	0.126528
H	0.4436388219026127 0.3860538402282272 0.9991300530037390	0.101187
H	0.3870406402130292 0.4474835638429663 0.9885386040021177	0.120847
H	0.2830567584052698 0.5511446069485277 0.9896389336631501	0.106975
H	0.2226163639748046 0.6083478078584881 0.9898902525737626	0.115312
H	0.0571580865947475 0.7689578361549064 0.9991954157839446	0.099623
H	0.1169132921619359 0.7109128579287768 0.9888088158495963	0.126528
H	0.0563612140973833 0.8860538402282270 0.9991300530037390	0.101187
H	0.1129593437869696 0.9474835308429602 0.9885386040021177	0.120847
H	0.2169432735947330 0.0511446239485325 0.9896389336631501	0.106975
H	0.2773836520251965 0.1083477338584893 0.9898902525737626	0.115313
H	0.4428419214052531 0.2689577701549083 0.9991954157839446	0.099623
H	0.3830867238380584 0.2109128749287748 0.9888088158495963	0.126528
H	0.5563612740973882 0.3860538402282272 0.9991300530037390	0.101187
H	0.6129592957869726 0.4474835638429663 0.9885386040021177	0.120847
H	0.7169432415947302 0.5511446069485277 0.9896389336631501	0.106975
H	0.7773836520251970 0.6083478078584881 0.9898902525737626	0.115313
H	0.9428419214052532 0.7689578361549064 0.9991954157839446	0.099623
H	0.8830867238380581 0.7109128579287768 0.9888088158495963	0.126528
H	0.9436387259026118 0.1139461437717715 0.4991300530037392	0.101186
H	0.8870407042130274 0.0525164401570336 0.4885386350021165	0.120847
H	0.7830567584052698 0.9488553930514723 0.4896389336631501	0.106975
H	0.7226163479748030 0.8916521921415119 0.4898902835737685	0.115313
H	0.5571580785947468 0.7310421638450936 0.4991954477839475	0.099623
H	0.6169132761619419 0.7890871420712232 0.4888088158495964	0.126528
H	0.4436388219026127 0.6139461597717730 0.4991300530037392	0.101186
H	0.3870406402130292 0.5525164691570398 0.4885386350021165	0.120847
H	0.2830567584052698 0.4488553930514725 0.4896389336631501	0.106975
H	0.2226163639748046 0.3916522911415164 0.4898902835737685	0.115313
H	0.0571580865947475 0.2310422128450938 0.4991954477839475	0.099623
H	0.1169132921619359 0.2890870760712246 0.4888088158495964	0.126528
H	0.9436387259026118 0.8860538402282270 0.5008699779962600	0.101186
H	0.8870407042130274 0.9474835308429602 0.5114613649978762	0.120847
H	0.7830567584052698 0.0511446239485325 0.5103610983368525	0.106975
H	0.7226163479748030 0.1083477338584893 0.5101097164262313	0.115312
H	0.5571580785947468 0.2689577701549083 0.5008045842160554	0.099623
H	0.6169132761619419 0.2109128749287748 0.5111912151504027	0.126528
H	0.4436388219026127 0.3860538402282272 0.5008699779962600	0.101186
H	0.3870406402130292 0.4474835638429663 0.5114613649978762	0.120847
H	0.2830567584052698 0.5511446069485277 0.5103610983368525	0.106975
H	0.2226163639748046 0.6083478078584881 0.5101097164262313	0.115312
H	0.0571580865947475 0.7689578361549064 0.5008045842160554	0.099623
H	0.1169132921619359 0.7109128579287768 0.5111912151504027	0.126528
H	0.0563612140973833 0.1139461437717715 0.0008699489962611	0.101186
H	0.1129593437869696 0.0525164401570336 0.0114613299978770	0.120847
H	0.2169432735947330 0.9488553930514723 0.0103610663368500	0.106975
H	0.2773836520251965 0.8916521921415119 0.0101097204262317	0.115312
H	0.4428419214052531 0.7310421638450936 0.0008045842160551	0.099623
H	0.3830867238380584 0.7890871420712232 0.0111911841504037	0.126528
H	0.5563612740973882 0.6139461597717730 0.0008699489962611	0.101186
H	0.6129592957869726 0.5525164691570398 0.0114613299978770	0.120847
H	0.7169432415947302 0.4488553930514725 0.0103610663368500	0.106975
H	0.7773836520251970 0.3916522911415164 0.0101097204262317	0.115312
H	0.9428419214052532 0.2310422128450938 0.0008045842160551	0.099623
H	0.8830867238380581 0.2890870760712246 0.0111911841504037	0.126528
Cd	0.5000000000000000 0.6729756322137573 0.7500000160000013	0.856948
Cd	0.0000000000000000 0.1729756492137555 0.7500000160000013	0.856948
Cd	0.5000000000000000 0.3270243677862425 0.2500000000000000	0.856948
Cd	0.0000000000000000 0.8270243677862427 0.2500000000000000	0.856948
Ti	0.5000000000000000 0.6728409257314347 0.2500000000000000	2.335929
Ti	0.0000000000000000 0.1728409257314350 0.2500000000000000	2.335929
Ti	0.5000000000000000 0.3271591062685679 0.7500000160000013	2.335929
Ti	0.0000000000000000 0.8271590742685653 0.7500000160000013	2.335929
F	0.5000000000000000 0.7365699962700303 0.2500000000000000	-0.658435
F	0.5000000000000000 0.6091176503234128 0.2500000000000000	-0.655342
F	0.0000000000000000 0.2365699472700292 0.2500000000000000	-0.658435
F	0.0000000000000000 0.1091176343234117 0.2500000000000000	-0.655342
F	0.5000000000000000 0.2634300527299707 0.7500000160000013	-0.658434
F	0.5000000000000000 0.3908823166765877 0.7500000160000013	-0.655342
F	0.0000000000000000 0.7634300037299697 0.7500000160000013	-0.658434
F	0.0000000000000000 0.8908823496765872 0.7500000160000013	-0.655342
F	0.5624697211440965 0.6729302987645148 0.2500000000000000	-0.658691
F	0.0624697411440983 0.1729303317645143 0.2500000000000000	-0.658691
F	0.4375302468559004 0.3270696352354863 0.7500000160000013	-0.658690
F	0.9375302788559035 0.8270697012354852 0.7500000160000013	-0.658690
F	0.4375302468559004 0.6729302987645148 0.2500000000000000	-0.658691
F	0.9375302788559033 0.1729303317645143 0.2500000000000000	-0.658691
F	0.5624697211440967 0.3270696352354863 0.7500000160000013	-0.658690
F	0.0624697411440983 0.8270697012354852 0.7500000160000013	-0.658690
F	0.5000000000000000 0.6728271525840316 0.4825318002189338	-0.621448
F	0.0000000000000000 0.1728271695840295 0.4825318002189338	-0.621448
F	0.5000000000000000 0.3271728804159673 -0.0174681997810662	-0.621448
F	0.0000000000000000 0.8271728474159684 -0.0174681997810662	-0.621448
F	0.5000000000000000 0.6728271525840316 0.0174681957810658	-0.621448
F	0.0000000000000000 0.1728271695840295 0.0174681957810658	-0.621448
F	0.5000000000000000 0.3271728804159673 0.5174681677810705	-0.621448
F	0.0000000000000000 0.8271728474159684 0.5174681677810705	-0.621448
N	0.5550836135532480 0.7289417250443138 0.7500000160000013	-0.244115
N	0.9455096831592126 0.1161505987508170 0.7500000160000013	-0.243914
N	0.0550835775532452 0.2289417090443124 0.7500000160000013	-0.244115
N	0.4455096831592129 0.6161505827508154 0.7500000160000013	-0.243914
N	0.4449164504467500 0.2710582749556863 0.2500000000000000	-0.244115
N	0.0544903248407878 0.8838494172491846 0.2500000000000000	-0.243914
N	0.9449163864467520 0.7710582749556862 0.2500000000000000	-0.244114
N	0.5544903168407874 0.3838494172491842 0.2500000000000000	-0.243914
N	0.4449164504467500 0.7289417250443138 0.7500000160000013	-0.244115
N	0.0544903248407878 0.1161505987508170 0.7500000160000013	-0.243914
N	0.9449163864467520 0.2289417090443124 0.7500000160000013	-0.244115
N	0.5544903168407874 0.6161505827508154 0.7500000160000013	-0.243914
N	0.5550836135532480 0.2710582749556863 0.2500000000000000	-0.244115
N	0.9455096831592126 0.8838494172491846 0.2500000000000000	-0.243914
N	0.0550835775532452 0.7710582749556862 0.2500000000000000	-0.244114
N	0.4455096831592129 0.3838494172491842 0.2500000000000000	-0.243914
	  	
