#======================================================================

# CRYSTAL DATA

#----------------------------------------------------------------------

data_VESTA_phase_1


_pd_phase_name                         TIFSIX_2_Co_i
_cell_length_a                         13.59456
_cell_length_b                         13.59456
_cell_length_c                         8.19274
_cell_angle_alpha                      90
_cell_angle_beta                       90
_cell_angle_gamma                      90
_symmetry_space_group_name_H-M         P 1
_symmetry_Int_Tables_number            1

loop_
_symmetry_equiv_pos_as_xyz
   x, y, z

loop_
   _atom_site_label
   _atom_site_fract_x
   _atom_site_fract_y
   _atom_site_fract_z
   _atom_site_charge
C	0.0000000000000000 0.2977798504478158 0.3529672210692719	-0.154335
C	0.0000000000000000 0.1960058285440411 0.3579816632511493	0.098153
C	0.5000000000000000 0.7977798504478159 0.8529672500692707	-0.154335
C	0.5000000000000000 0.6960058465440424 0.8579816632511490	0.098154
C	0.0000000000000000 0.7022201495521841 0.3529672210692719	-0.154337
C	0.0000000000000000 0.8039941534559576 0.3579816632511493	0.098156
C	0.5000000000000000 0.2022201665521820 0.8529672500692707	-0.154337
C	0.5000000000000000 0.3039941534559574 0.8579816632511490	0.098156
C	0.7022201495521841 0.0000000000000000 0.3529672210692719	-0.154335
C	0.8039941534559576 0.0000000000000000 0.3579816632511493	0.098154
C	0.2022201665521820 0.5000000000000000 0.8529672500692707	-0.154335
C	0.3039941534559574 0.5000000000000000 0.8579816632511490	0.098154
C	0.2977798504478158 0.0000000000000000 0.3529672210692719	-0.154337
C	0.1960058285440411 0.0000000000000000 0.3579816632511493	0.098156
C	0.7977798504478159 0.5000000000000000 0.8529672500692707	-0.154337
C	0.6960058465440424 0.5000000000000000 0.8579816632511490	0.098156
C	0.0000000000000000 0.2977798504478158 0.6470327499307293	-0.154334
C	0.0000000000000000 0.1960058285440411 0.6420183367488510	0.098154
C	0.5000000000000000 0.7977798504478159 0.1470327789307282	-0.154334
C	0.5000000000000000 0.6960058465440424 0.1420183217488531	0.098154
C	0.0000000000000000 0.7022201495521841 0.6470327499307293	-0.154336
C	0.0000000000000000 0.8039941534559576 0.6420183367488510	0.098156
C	0.5000000000000000 0.2022201665521820 0.1470327789307282	-0.154336
C	0.5000000000000000 0.3039941534559574 0.1420183217488531	0.098156
C	0.2977798504478158 0.0000000000000000 0.6470327499307293	-0.154336
C	0.1960058285440411 0.0000000000000000 0.6420183367488510	0.098156
C	0.7977798504478159 0.5000000000000000 0.1470327789307282	-0.154336
C	0.6960058465440424 0.5000000000000000 0.1420183217488531	0.098156
C	0.7022201495521841 0.0000000000000000 0.6470327499307293	-0.154334
C	0.8039941534559576 0.0000000000000000 0.6420183367488510	0.098154
C	0.2022201665521820 0.5000000000000000 0.1470327789307282	-0.154334
C	0.3039941534559574 0.5000000000000000 0.1420183217488531	0.098154
C	0.0000000000000000 0.4551162245847867 0.5000000000000000	-0.094642
C	0.0000000000000000 0.3513562761495956 0.5000000000000000	0.159275
C	0.5000000000000000 0.9551162585847894 0.0000000000000000	-0.094642
C	0.5000000000000000 0.8513562411495963 0.0000000000000000	0.159275
C	0.0000000000000000 0.5448837754152134 0.5000000000000000	-0.094404
C	0.0000000000000000 0.6486437588504037 0.5000000000000000	0.159246
C	0.5000000000000000 0.0448837544152082 0.0000000000000000	-0.094404
C	0.5000000000000000 0.1486437588504037 0.0000000000000000	0.159246
C	0.5448837754152134 0.0000000000000000 0.5000000000000000	-0.094642
C	0.6486437588504037 0.0000000000000000 0.5000000000000000	0.159275
C	0.0448837544152082 0.5000000000000000 0.0000000000000000	-0.094642
C	0.1486437588504037 0.5000000000000000 0.0000000000000000	0.159275
C	0.4551162245847867 0.0000000000000000 0.5000000000000000	-0.094404
C	0.3513562761495956 0.0000000000000000 0.5000000000000000	0.159246
C	0.9551162585847894 0.5000000000000000 0.0000000000000000	-0.094404
C	0.8513562411495963 0.5000000000000000 0.0000000000000000	0.159246
H	0.0000000000000000 0.3352240840334175 0.2354574362561816	0.123466
H	0.0000000000000000 0.1534576630353439 0.2458185186833488	0.099500
H	0.5000000000000000 0.8352240840334174 0.7354574362561815	0.123466
H	0.5000000000000000 0.6534576100353430 0.7458185486833513	0.099500
H	0.0000000000000000 0.6647759159665826 0.2354574362561815	0.123465
H	0.0000000000000000 0.8465423899646570 0.2458185186833488	0.099500
H	0.5000000000000000 0.1647759159665825 0.7354574362561815	0.123465
H	0.5000000000000000 0.3465423549646506 0.7458185486833513	0.099500
H	0.6647759159665826 0.0000000000000000 0.2354574362561815	0.123466
H	0.8465423899646570 0.0000000000000000 0.2458185186833488	0.099500
H	0.1647759159665825 0.5000000000000000 0.7354574362561815	0.123466
H	0.3465423549646506 0.5000000000000000 0.7458185486833513	0.099500
H	0.3352240840334175 0.0000000000000000 0.2354574362561815	0.123465
H	0.1534576630353439 0.0000000000000000 0.2458185186833488	0.099500
H	0.8352240840334174 0.5000000000000000 0.7354574362561815	0.123465
H	0.6534576100353430 0.5000000000000000 0.7458185486833513	0.099500
H	0.0000000000000000 0.3352240840334175 0.7645425637438185	0.123466
H	0.0000000000000000 0.1534576630353439 0.7541813933166510	0.099500
H	0.5000000000000000 0.8352240840334174 0.2645425637438184	0.123466
H	0.5000000000000000 0.6534576100353430 0.2541814813166514	0.099500
H	0.0000000000000000 0.6647759159665826 0.7645425637438185	0.123465
H	0.0000000000000000 0.8465423899646570 0.7541813933166510	0.099500
H	0.5000000000000000 0.1647759159665825 0.2645425637438184	0.123465
H	0.5000000000000000 0.3465423549646506 0.2541814813166514	0.099500
H	0.3352240840334175 0.0000000000000000 0.7645425637438185	0.123465
H	0.1534576630353439 0.0000000000000000 0.7541813933166510	0.099500
H	0.8352240840334174 0.5000000000000000 0.2645425637438184	0.123465
H	0.6534576100353430 0.5000000000000000 0.2541814813166514	0.099500
H	0.6647759159665826 0.0000000000000000 0.7645425637438185	0.123466
H	0.8465423899646570 0.0000000000000000 0.7541813933166510	0.099500
H	0.1647759159665825 0.5000000000000000 0.2645425637438184	0.123466
H	0.3465423549646506 0.5000000000000000 0.2541814813166514	0.099500
Co	0.0000000000000000 0.0000000000000000 0.5000000000000000	0.608106
Co	0.5000000000000000 0.5000000000000000 0.0000000000000000	0.608105
Ti	0.0000000000000000 0.0000000000000000 0.0000000000000000	2.297170
Ti	0.5000000000000000 0.5000000000000000 0.5000000000000000	2.297170
N	0.0000000000000000 0.1449992425094786 0.5000000000000000	-0.183199
N	0.5000000000000000 0.6449992245094771 0.0000000000000000	-0.183199
N	0.0000000000000000 0.8550007754905229 0.5000000000000000	-0.183198
N	0.5000000000000000 0.3550007754905229 0.0000000000000000	-0.183198
N	0.8550007754905229 0.0000000000000000 0.5000000000000000	-0.183199
N	0.3550007754905229 0.5000000000000000 0.0000000000000000	-0.183199
N	0.1449992425094786 0.0000000000000000 0.5000000000000000	-0.183199
N	0.6449992245094771 0.5000000000000000 0.0000000000000000	-0.183199
F	0.0000000000000000 0.0000000000000000 0.7640102568132570	-0.605882
F	0.5000000000000000 0.5000000000000000 0.2640103458132608	-0.605882
F	0.0000000000000000 0.0000000000000000 0.2359896691867439	-0.605882
F	0.5000000000000000 0.5000000000000000 0.7359897431867430	-0.605882
F	0.5982745334094836 0.5982745334094836 0.5000000000000000	-0.638486
F	0.5982745334094836 0.4017254665905168 0.5000000000000000	-0.638486
F	0.4017254665905168 0.5982745334094836 0.5000000000000000	-0.638486
F	0.4017254665905168 0.4017254665905168 0.5000000000000000	-0.638486
F	0.0982745504094812 0.0982745504094812 0.0000000000000000	-0.638486
F	0.9017254665905164 0.9017254665905164 0.0000000000000000	-0.638486
F	0.9017254665905164 0.0982745504094812 0.0000000000000000	-0.638486
F	0.0982745504094812 0.9017254665905164 0.0000000000000000	-0.638486
	  	
