#======================================================================

# CRYSTAL DATA

#----------------------------------------------------------------------

data_VESTA_phase_1


_pd_phase_name                         TIFSIX_7_Cu
_cell_length_a                         18.93054
_cell_length_b                         18.93054
_cell_length_c                         8.26423
_cell_angle_alpha                      90
_cell_angle_beta                       90
_cell_angle_gamma                      90
_symmetry_space_group_name_H-M         P 1
_symmetry_Int_Tables_number            1

loop_
_symmetry_equiv_pos_as_xyz
   x, y, z

loop_
   _atom_site_label
   _atom_site_fract_x
   _atom_site_fract_y
   _atom_site_fract_z
   _atom_site_charge
C	0.6662781821446280 0.8696595844095024 0.6949479842296951	0.103845
C	0.6145236428633006 0.9216856725993340 0.6989839748514501	-0.171790
C	0.5808358842149124 0.8874944685812621 0.4304454237478456	-0.166663
C	0.6329505309515800 0.8361184909765430 0.4355158025527824	0.098842
C	0.8337218178553720 0.6303404155904976 0.6949479842296951	0.103845
C	0.8854764071366964 0.5783143784006667 0.6989839748514501	-0.171790
C	0.9191640147850899 0.6125055824187314 0.4304454237478456	-0.166662
C	0.8670494690484200 0.6638815090234570 0.4355158025527824	0.098841
C	0.6303404155904976 0.6662781821446280 0.6949479842296951	0.103845
C	0.5783143784006667 0.6145236428633006 0.6989839748514501	-0.171790
C	0.6125055824187314 0.5808358842149124 0.4304454237478456	-0.166662
C	0.6638815090234570 0.6329505309515800 0.4355158025527824	0.098842
C	0.8696595844095024 0.8337218178553720 0.6949479842296951	0.103846
C	0.9216856725993340 0.8854764071366964 0.6989839748514501	-0.171790
C	0.8874944685812621 0.9191640147850899 0.4304454237478456	-0.166662
C	0.8361184909765430 0.8670494690484200 0.4355158025527824	0.098842
C	0.3337217928553735 0.3696595344094981 0.3050520457703076	0.103845
C	0.3854763571366995 0.4216856725993341 0.3010160551485522	-0.171790
C	0.4191641157850873 0.3874944175812685 0.5695545762521548	-0.166662
C	0.3670494180484263 0.3361184909765424 0.5644842274472200	0.098842
C	0.1662782071446265 0.1303404525905044 0.3050520457703076	0.103848
C	0.1145236428633006 0.0783143274006660 0.3010160551485522	-0.171787
C	0.0808358652149076 0.1125055824187316 0.5695545762521548	-0.166578
C	0.1329505819515736 0.1638814970234565 0.5644842274472200	0.098815
C	0.3696595344094981 0.1662782071446265 0.3050520457703076	0.103845
C	0.4216856725993341 0.1145236428633006 0.3010160551485522	-0.171789
C	0.3874944175812685 0.0808358652149076 0.5695545762521548	-0.166662
C	0.3361184909765424 0.1329505819515736 0.5644842274472200	0.098842
C	0.1303404525905044 0.3337217928553735 0.3050520457703076	0.103848
C	0.0783143274006660 0.3854763571366995 0.3010160551485522	-0.171787
C	0.1125055824187316 0.4191641157850873 0.5695545762521548	-0.166578
C	0.1638814970234565 0.3670494180484263 0.5644842274472200	0.098816
C	0.4323718235753720 0.0705948096823773 0.4359793154836192	0.140635
C	0.4872748390050018 0.0167178324786210 0.4336378225754061	-0.120767
C	0.0676281764246280 0.4294051833176256 0.4359793154836192	0.140616
C	0.0127251289949957 0.4832821035213808 0.4336378225754061	-0.120766
C	0.4294051833176256 0.4323718235753720 0.4359793154836192	0.140636
C	0.4832821035213808 0.4872748390050018 0.4336378225754061	-0.120767
C	0.0705948096823773 0.0676281764246280 0.4359793154836192	0.140616
C	0.0167178324786210 0.0127251289949957 0.4336378225754061	-0.120766
C	0.5676281764246278 0.5705948166823744 0.5640206845163807	0.140634
C	0.5127252119949918 0.5167178464786149 0.5663622064245930	-0.120748
C	0.9323717735753752 0.9294051333176214 0.5640206845163807	0.140634
C	0.9872748390050018 0.9832822045213858 0.5663622064245930	-0.120749
C	0.5705948166823744 0.9323717735753752 0.5640206845163807	0.140634
C	0.5167178464786149 0.9872748390050018 0.5663622064245930	-0.120748
C	0.9294051333176214 0.5676281764246278 0.5640206845163807	0.140634
C	0.9832822045213858 0.5127252119949918 0.5663622064245930	-0.120749
H	0.7004233605415311 0.8599993139929482 0.7985894568318768	0.107769
H	0.6091667214263570 0.9539261877461878 0.8077309340617328	0.120782
H	0.5478771389574381 0.8911307733966651 0.3227315155892336	0.119740
H	0.6422464416122111 0.8013905470691389 0.3328501472820581	0.107353
H	0.7995766394584689 0.6400006860070518 0.7985894568318768	0.107769
H	0.8908332785736430 0.5460738632538129 0.8077309340617328	0.120782
H	0.9521229120425626 0.6088692776033355 0.3227315155892336	0.119741
H	0.8577535583877889 0.6986094529308611 0.3328501472820581	0.107353
H	0.6400006860070518 0.7004233605415311 0.7985894568318768	0.107769
H	0.5460738632538129 0.6091667214263570 0.8077309340617328	0.120782
H	0.6088692776033355 0.5478771389574381 0.3227315155892336	0.119740
H	0.6986094529308611 0.6422464416122111 0.3328501472820581	0.107353
H	0.8599993139929482 0.7995766394584689 0.7985894568318768	0.107769
H	0.9539261877461878 0.8908332785736430 0.8077309340617328	0.120782
H	0.8911307733966651 0.9521229120425626 0.3227315155892336	0.119740
H	0.8013905470691389 0.8577535583877889 0.3328501472820581	0.107353
H	0.2995766654584708 0.3599992379929489 0.2014105281681255	0.107769
H	0.3908332025736368 0.4539261367461873 0.1922690219382634	0.120782
H	0.4521229120425627 0.3911307733966649 0.6772684544107709	0.119740
H	0.3577535833877946 0.3013905730691411 0.6671498527179420	0.107353
H	0.2004233475415266 0.1400007880070532 0.2014105281681255	0.107768
H	0.1091667724263574 0.0460738792538142 0.1922690219382634	0.120782
H	0.0478770819574367 0.1088692526033371 0.6772684544107709	0.119726
H	0.1422464416122110 0.1986094149308578 0.6671498527179420	0.107338
H	0.3599992379929489 0.2004233475415266 0.2014105281681255	0.107769
H	0.4539261367461873 0.1091667724263574 0.1922690219382634	0.120781
H	0.3911307733966649 0.0478770819574367 0.6772684544107709	0.119740
H	0.3013905730691411 0.1422464416122110 0.6671498527179420	0.107353
H	0.1400007880070532 0.2995766654584708 0.2014105281681255	0.107768
H	0.0460738792538142 0.3908332025736368 0.1922690219382634	0.120781
H	0.1088692526033371 0.4521229120425627 0.6772684544107709	0.119726
H	0.1986094149308578 0.3577535833877946 0.6671498527179420	0.107338
H	0.5064712445065860 0.0015848662654024 0.3137753718896922	0.105218
H	0.9935288064934147 0.4984151057345952 0.3137753718896922	0.105218
H	0.4984151057345952 0.5064712445065860 0.3137753718896922	0.105218
H	0.0015848662654024 0.9935288064934147 0.3137753718896922	0.105218
H	0.4935287554934141 0.5015848442654075 0.6862246581103033	0.105217
H	0.0064712355065887 0.9984151057345955 0.6862246581103033	0.105216
H	0.5015848442654075 0.0064712355065887 0.6862246581103033	0.105216
H	0.9984151057345955 0.4935287554934141 0.6862246581103033	0.105216
Cu	0.2500000000000000 0.2500000000000000 0.4341434284725820	0.729793
Cu	0.7500000000000000 0.7500000000000000 0.5658565715274181	0.729792
Ti	0.2500000000000000 0.2500000000000000 0.9354467456396977	2.328172
Ti	0.7500000000000000 0.7500000000000000 0.0645532393603049	2.328173
F	0.2500000000000000 0.2500000000000000 0.1685911051721148	-0.646534
F	0.2500000000000000 0.2500000000000000 0.7022974345067760	-0.647741
F	0.7500000000000000 0.7500000000000000 0.8314089248278876	-0.646534
F	0.7500000000000000 0.7500000000000000 0.2977025654932237	-0.647743
F	0.3214053952927376 0.3204393545778948 0.9365954566508983	-0.659247
F	0.1785946297072608 0.1795606704221038 0.9365954566508983	-0.659246
F	0.1795606704221038 0.3214053952927377 0.9365954566508983	-0.659246
F	0.3204393545778948 0.1785946297072608 0.9365954566508983	-0.659247
F	0.6785946297072608 0.8204393545778945 0.0634045433491017	-0.659247
F	0.8214053702927392 0.6795606454221055 0.0634045433491017	-0.659247
F	0.8204393545778945 0.8214053702927392 0.0634045433491017	-0.659247
F	0.6795606454221055 0.6785946297072608 0.0634045433491017	-0.659247
N	0.3274307514928820 0.1752268755592473 0.4346277794928473	-0.226648
N	0.1725692735071165 0.3247731494407511 0.4346277794928473	-0.226665
N	0.3247731494407511 0.3274307514928820 0.4346277794928473	-0.226649
N	0.1752268755592473 0.1725692735071165 0.4346277794928473	-0.226665
N	0.6725692485071177 0.6752268505592486 0.5653722205071527	-0.226648
N	0.8274307514928823 0.8247731494407514 0.5653722205071527	-0.226648
N	0.6752268505592486 0.8274307514928823 0.5653722205071527	-0.226648
N	0.8247731494407514 0.6725692485071177 0.5653722205071527	-0.226648
	  	
