#======================================================================

# CRYSTAL DATA

#----------------------------------------------------------------------

data_VESTA_phase_1


_pd_phase_name                         TIFSIX_15_Cu_i
_cell_length_a                         29.60182
_cell_length_b                         28.68563
_cell_length_c                         8.27231
_cell_angle_alpha                      90
_cell_angle_beta                       90
_cell_angle_gamma                      90
_symmetry_space_group_name_H-M         P 1
_symmetry_Int_Tables_number            1

loop_
_symmetry_equiv_pos_as_xyz
   x, y, z

loop_
   _atom_site_label
   _atom_site_fract_x
   _atom_site_fract_y
   _atom_site_fract_z
   _atom_site_charge
C	0.9353138970307040 0.1044916779454709 0.8906998845373965	0.104565
C	0.9029159094518255 0.0696061621850031 0.8959812101530906	-0.159264
C	0.7701588619606370 0.9363519937790368 0.8974137704200392	-0.115182
C	0.7356403943865967 0.9037702162064630 0.8972113598449273	-0.114644
C	0.5662546640217263 0.7396274470397779 0.8905525557185355	0.103837
C	0.6001605503620000 0.7729529782794918 0.8956506136430954	-0.163782
C	0.4353139290306994 0.6044916939454721 0.8906998845373965	0.104566
C	0.4029159414518282 0.5696061251850031 0.8959812101530906	-0.159264
C	0.2701587979606392 0.4363520267790362 0.8974137704200392	-0.115183
C	0.2356403623865941 0.4037702822064681 0.8972113598449273	-0.114644
C	0.0662546880217279 0.2396274300397801 0.8905525557185355	0.103836
C	0.1001605263619983 0.2729530112794908 0.8956506136430954	-0.163783
C	0.0646860709693006 0.8955083060545279 0.3906999155373957	0.104691
C	0.0970840665481724 0.9303938748149969 0.3959812421530866	-0.159298
C	0.2298411540393640 0.0636479692209635 0.3974138324200376	-0.115182
C	0.2643596216134046 0.0962297337935332 0.3972113598449273	-0.114645
C	0.4337453039782714 0.2603726029602192 0.3905525867185351	0.103836
C	0.3998394496379997 0.2270469887205093 0.3956506136430957	-0.163781
C	0.5646861029692960 0.3955083390545268 0.3906999155373957	0.104566
C	0.5970840905481745 0.4303938748149964 0.3959812421530866	-0.159265
C	0.7298411380393630 0.5636480062209632 0.3974138324200376	-0.115182
C	0.7643596056134033 0.5962297837935370 0.3972113598449273	-0.114645
C	0.9337453359782737 0.7603725529602221 0.3905525867185351	0.103835
C	0.8998394496380000 0.7270470217205082 0.3956506136430957	-0.163781
C	0.0646860709693006 0.1044916779454709 0.6093000844626045	0.104690
C	0.0970840665481724 0.0696061621850031 0.6040186958469087	-0.159298
C	0.2298411540393640 0.9363519937790368 0.6025861985799618	-0.115182
C	0.2643596216134046 0.9037702162064630 0.6027886711550717	-0.114644
C	0.4337453039782714 0.7396274470397779 0.6094473502814638	0.103837
C	0.3998394496379997 0.7729529782794918 0.6043493553569056	-0.163782
C	0.5646861029692960 0.6044916939454721 0.6093000844626045	0.104566
C	0.5970840905481745 0.5696061251850031 0.6040186958469087	-0.159264
C	0.7298411380393630 0.4363520267790362 0.6025861985799618	-0.115183
C	0.7643596056134033 0.4037702822064681 0.6027886711550717	-0.114644
C	0.9337453359782737 0.2396274300397801 0.6094473502814638	0.103836
C	0.8998394496380000 0.2729530112794908 0.6043493553569056	-0.163782
C	0.9353138970307040 0.8955083060545279 0.1093001004626058	0.104566
C	0.9029159094518255 0.9303938748149969 0.1040187348469082	-0.159265
C	0.7701588619606370 0.0636479692209635 0.1025861985799613	-0.115182
C	0.7356403943865967 0.0962297337935332 0.1027886561550670	-0.114645
C	0.5662546640217263 0.2603726029602192 0.1094474052814645	0.103836
C	0.6001605503620000 0.2270469887205093 0.1043494013569021	-0.163781
C	0.4353139290306994 0.3955083390545268 0.1093001004626058	0.104566
C	0.4029159414518282 0.4303938748149964 0.1040187348469082	-0.159265
C	0.2701587979606392 0.5636480062209632 0.1025861985799613	-0.115182
C	0.2356403623865941 0.5962297837935370 0.1027886561550670	-0.114645
C	0.0662546880217279 0.7603725529602221 0.1094474052814645	0.103835
C	0.1001605263619983 0.7270470217205082 0.1043494013569021	-0.163782
C	0.0646860709693006 0.8955083060545279 0.1093001004626058	0.104691
C	0.0970840665481724 0.9303938748149969 0.1040187348469082	-0.159298
C	0.2298411540393640 0.0636479692209635 0.1025861985799613	-0.115182
C	0.2643596216134046 0.0962297337935332 0.1027886561550670	-0.114645
C	0.4337453039782714 0.2603726029602192 0.1094474052814645	0.103836
C	0.3998394496379997 0.2270469887205093 0.1043494013569021	-0.163782
C	0.5646861029692960 0.3955083390545268 0.1093001004626058	0.104566
C	0.5970840905481745 0.4303938748149964 0.1040187348469082	-0.159265
C	0.7298411380393630 0.5636480062209632 0.1025861985799614	-0.115182
C	0.7643596056134033 0.5962297837935370 0.1027886561550670	-0.114645
C	0.9337453359782737 0.7603725529602221 0.1094474052814645	0.103836
C	0.8998394496380000 0.7270470217205082 0.1043494013569021	-0.163782
C	0.9353138970307040 0.1044916779454709 0.6093000844626045	0.104565
C	0.9029159094518255 0.0696061621850031 0.6040186958469087	-0.159264
C	0.7701588619606370 0.9363519937790368 0.6025861985799618	-0.115182
C	0.7356403943865967 0.9037702162064630 0.6027886711550717	-0.114645
C	0.5662546640217263 0.7396274470397779 0.6094473502814638	0.103837
C	0.6001605503620000 0.7729529782794918 0.6043493553569056	-0.163782
C	0.4353139290306994 0.6044916939454721 0.6093000844626045	0.104566
C	0.4029159414518282 0.5696061251850031 0.6040186958469087	-0.159264
C	0.2701587979606392 0.4363520267790362 0.6025861985799618	-0.115182
C	0.2356403623865941 0.4037702822064681 0.6027886711550717	-0.114645
C	0.0662546880217279 0.2396274300397801 0.6094473502814638	0.103836
C	0.1001605263619983 0.2729530112794908 0.6043493553569056	-0.163783
C	0.9353138970307040 0.8955083060545279 0.3906999155373957	0.104565
C	0.9029159094518255 0.9303938748149969 0.3959812421530866	-0.159265
C	0.7701588619606370 0.0636479692209635 0.3974138324200377	-0.115182
C	0.7356403943865967 0.0962297337935332 0.3972113598449273	-0.114645
C	0.5662546640217263 0.2603726029602192 0.3905525867185351	0.103836
C	0.6001605503620000 0.2270469887205093 0.3956506136430957	-0.163782
C	0.4353139290306994 0.3955083390545268 0.3906999155373957	0.104566
C	0.4029159414518282 0.4303938748149964 0.3959812421530866	-0.159265
C	0.2701587979606392 0.5636480062209632 0.3974138324200377	-0.115182
C	0.2356403623865941 0.5962297837935370 0.3972113598449273	-0.114645
C	0.0662546880217279 0.7603725529602221 0.3905525867185351	0.103835
C	0.1001605263619983 0.7270470217205082 0.3956506136430957	-0.163783
C	0.0646860709693006 0.1044916779454709 0.8906998845373965	0.104690
C	0.0970840665481724 0.0696061621850031 0.8959812101530906	-0.159298
C	0.2298411540393640 0.9363519937790368 0.8974137704200392	-0.115182
C	0.2643596216134046 0.9037702162064630 0.8972113598449273	-0.114645
C	0.4337453039782714 0.7396274470397779 0.8905525557185354	0.103837
C	0.3998394496379997 0.7729529782794918 0.8956506136430954	-0.163782
C	0.5646861029692960 0.6044916939454721 0.8906998845373965	0.104566
C	0.5970840905481745 0.5696061251850031 0.8959812101530906	-0.159264
C	0.7298411380393630 0.4363520267790362 0.8974137704200392	-0.115183
C	0.7643596056134033 0.4037702822064681 0.8972113598449273	-0.114645
C	0.9337453359782737 0.2396274300397801 0.8905525557185355	0.103836
C	0.8998394496380000 0.2729530112794908 0.8956506136430954	-0.163782
C	0.6526990651784252 0.8243401873726818 0.7500000160000013	-0.104865
C	0.8858687343691157 0.0514661527219970 0.7500000160000013	0.163290
C	0.8226894242472794 0.9868466016606916 0.7500000160000013	-0.099274
C	0.6180394422366329 0.7904807012899114 0.7500000160000013	0.168312
C	0.7878946320669225 0.9531887388658029 0.7500000160000013	0.129564
C	0.7177786978788815 0.8868995913947383 0.7500000160000013	0.138407
C	0.6827680735732814 0.8534648635195535 0.7500000160000013	-0.096753
C	0.8522934221474037 0.0164843984497482 0.7500000160000013	-0.104991
C	0.1526990491784242 0.3243401873726819 0.7500000160000013	-0.104865
C	0.3858686383691149 0.5514661647219979 0.7500000160000013	0.163290
C	0.3226894242472794 0.4868466016606917 0.7500000160000013	-0.099274
C	0.1180394342366322 0.2904807012899117 0.7500000160000013	0.168312
C	0.2878946000669270 0.4531887388658030 0.7500000160000013	0.129564
C	0.2177786818788802 0.3868996243947371 0.7500000160000013	0.138408
C	0.1827680405732821 0.3534648305195546 0.7500000160000013	-0.096753
C	0.3522933901474019 0.5164843934497442 0.7500000160000013	-0.104991
C	0.3473009668215773 0.1756598126273181 0.2500000000000000	-0.104865
C	0.1141313376308902 0.9485338352780021 0.2500000000000000	0.163305
C	0.1773105757527206 0.0131533943393078 0.2500000000000000	-0.099274
C	0.3819605577633672 0.2095192827100870 0.2500000000000000	0.168312
C	0.2121053839330787 0.0468112531341964 0.2500000000000000	0.129564
C	0.2822213021211185 0.1131003676052620 0.2500000000000000	0.138408
C	0.3172319594267181 0.1465351364804462 0.2500000000000000	-0.096753
C	0.1477066098525984 0.9835155735502566 0.2500000000000000	-0.104992
C	0.8473009348215748 0.6756598126273182 0.2500000000000000	-0.104864
C	0.6141312656308843 0.4485338682780012 0.2500000000000000	0.163290
C	0.6773105757527206 0.5131533983393084 0.2500000000000000	-0.099273
C	0.8819605577633671 0.7095192987100886 0.2500000000000000	0.168312
C	0.7121053679330775 0.5468112941341963 0.2500000000000000	0.129564
C	0.7822213021211185 0.6131004086052617 0.2500000000000000	0.138408
C	0.8172319264267186 0.6465351364804465 0.2500000000000000	-0.096753
C	0.6477065778525963 0.4835155735502565 0.2500000000000000	-0.104992
C	0.3473009668215773 0.8243401873726818 0.7500000160000013	-0.104865
C	0.1141313376308902 0.0514661527219970 0.7500000160000013	0.163305
C	0.1773105757527206 0.9868466016606916 0.7500000160000013	-0.099274
C	0.3819605577633672 0.7904807012899114 0.7500000160000013	0.168312
C	0.2121053839330787 0.9531887388658029 0.7500000160000013	0.129564
C	0.2822213021211185 0.8868995913947383 0.7500000160000013	0.138407
C	0.3172319594267181 0.8534648635195535 0.7500000160000013	-0.096753
C	0.1477066098525984 0.0164843984497482 0.7500000160000013	-0.104992
C	0.8473009348215748 0.3243401873726819 0.7500000160000013	-0.104865
C	0.6141312656308843 0.5514661647219979 0.7500000160000013	0.163290
C	0.6773105757527206 0.4868466016606917 0.7500000160000013	-0.099274
C	0.8819605577633671 0.2904807012899117 0.7500000160000013	0.168312
C	0.7121053679330775 0.4531887388658030 0.7500000160000013	0.129564
C	0.7822213021211185 0.3868996243947371 0.7500000160000013	0.138407
C	0.8172319264267186 0.3534648305195546 0.7500000160000013	-0.096753
C	0.6477065778525963 0.5164843934497442 0.7500000160000013	-0.104991
C	0.6526990651784252 0.1756598126273181 0.2500000000000000	-0.104864
C	0.8858687343691157 0.9485338352780021 0.2500000000000000	0.163290
C	0.8226894242472794 0.0131533943393078 0.2500000000000000	-0.099273
C	0.6180394422366329 0.2095192827100870 0.2500000000000000	0.168312
C	0.7878946320669225 0.0468112531341964 0.2500000000000000	0.129564
C	0.7177786978788815 0.1131003676052620 0.2500000000000000	0.138408
C	0.6827680735732814 0.1465351364804462 0.2500000000000000	-0.096753
C	0.8522934221474037 0.9835155735502566 0.2500000000000000	-0.104992
C	0.1526990491784242 0.6756598126273182 0.2500000000000000	-0.104864
C	0.3858686383691149 0.4485338682780012 0.2500000000000000	0.163290
C	0.3226894242472794 0.5131533983393084 0.2500000000000000	-0.099273
C	0.1180394342366322 0.7095192987100886 0.2500000000000000	0.168312
C	0.2878946000669270 0.5468112941341963 0.2500000000000000	0.129564
C	0.2177786818788802 0.6131004086052617 0.2500000000000000	0.138408
C	0.1827680405732821 0.6465351364804465 0.2500000000000000	-0.096753
C	0.3522933901474019 0.4835155735502565 0.2500000000000000	-0.104992
H	0.9490682927069831 0.1192206630062786 0.0014181179871867	0.101610
H	0.8909931306535588 0.0566796690340313 0.0121739555204612	0.123614
H	0.7840218895827840 0.9492450155495631 0.0110141133256344	0.106249
H	0.7219183293518540 0.8907717764957100 0.0107408248991447	0.115065
H	0.5519922465833305 0.7255220506828574 0.0014107318899838	0.100368
H	0.6126098944367623 0.7851893703068147 0.0118966388104664	0.129176
H	0.4490683887069834 0.6192206790062800 0.0014181179871867	0.101610
H	0.3909930666535607 0.5566796980340374 0.0121739555204612	0.123614
H	0.2840218895827847 0.4492450155495632 0.0110141133256344	0.106249
H	0.2219183453518550 0.3907718754957147 0.0107408248991447	0.115065
H	0.0519922545833316 0.2255220996828579 0.0014107318899838	0.100368
H	0.1126099104367569 0.2851893043068170 0.0118966388104664	0.129176
H	0.0509316472930123 0.8807793209937200 0.5014181469871858	0.101591
H	0.1090069173464382 0.9433203019659626 0.5121739905204606	0.123618
H	0.2159781424172181 0.0507550014504417 0.5110141453256366	0.106249
H	0.2780816706481462 0.1092281495042911 0.5107408208991440	0.115065
H	0.4480077534166691 0.2744778833171441 0.5014107318899839	0.100368
H	0.3873901055632371 0.2148106466931824 0.5118966698104653	0.129176
H	0.5509317072930169 0.3807793209937200 0.5014181469871858	0.101611
H	0.6090068693464412 0.4433203349659689 0.5121739905204606	0.123614
H	0.7159781104172160 0.5507549844504369 0.5110141453256366	0.106249
H	0.7780816706481460 0.6092282235042900 0.5107408208991440	0.115065
H	0.9480077534166695 0.7744779493171426 0.5014107318899839	0.100368
H	0.8873901055632377 0.7148106296931853 0.5118966698104652	0.129176
H	0.0509316472930123 0.1192206630062786 0.4985818840128135	0.101591
H	0.1090069173464382 0.0566796690340313 0.4878260094795323	0.123618
H	0.2159781424172181 0.9492450155495631 0.4889858866743655	0.106249
H	0.2780816706481462 0.8907717764957100 0.4892591791008558	0.115065
H	0.4480077534166691 0.7255220506828574 0.4985893001100188	0.100368
H	0.3873901055632371 0.7851893703068147 0.4881033611895335	0.129176
H	0.5509317072930169 0.6192206790062800 0.4985818840128135	0.101611
H	0.6090068693464412 0.5566796980340374 0.4878260094795324	0.123614
H	0.7159781104172160 0.4492450155495632 0.4889858866743655	0.106249
H	0.7780816706481460 0.3907718754957147 0.4892591791008558	0.115065
H	0.9480077534166695 0.2255220996828579 0.4985893001100188	0.100368
H	0.8873901055632377 0.2851893043068170 0.4881033611895335	0.129176
H	0.9490682927069831 0.8807793209937200 0.9985818840128132	0.101611
H	0.8909931306535588 0.9433203019659626 0.9878259784795332	0.123614
H	0.7840218895827840 0.0507550014504417 0.9889858866743660	0.106249
H	0.7219183293518540 0.1092281495042911 0.9892591481008499	0.115065
H	0.5519922465833305 0.2744778833171441 0.9985892681100161	0.100368
H	0.6126098944367623 0.2148106466931824 0.9881033611895338	0.129176
H	0.4490683887069834 0.3807793209937200 0.9985818840128132	0.101611
H	0.3909930666535607 0.4433203349659689 0.9878259784795332	0.123614
H	0.2840218895827847 0.5507549844504369 0.9889858866743660	0.106249
H	0.2219183453518550 0.6092282235042900 0.9892591481008499	0.115065
H	0.0519922545833316 0.7744779493171426 0.9985892681100161	0.100368
H	0.1126099104367569 0.7148106296931853 0.9881033611895337	0.129176
H	0.0509316472930123 0.8807793209937200 0.9985818840128132	0.101592
H	0.1090069173464382 0.9433203019659626 0.9878259784795332	0.123618
H	0.2159781424172181 0.0507550014504417 0.9889858866743660	0.106249
H	0.2780816706481462 0.1092281495042911 0.9892591481008499	0.115066
H	0.4480077534166691 0.2744778833171441 0.9985892681100161	0.100368
H	0.3873901055632371 0.2148106466931824 0.9881033611895337	0.129176
H	0.5509317072930169 0.3807793209937200 0.9985818840128132	0.101611
H	0.6090068693464412 0.4433203349659689 0.9878259784795332	0.123614
H	0.7159781104172160 0.5507549844504369 0.9889858866743660	0.106249
H	0.7780816706481460 0.6092282235042900 0.9892591481008499	0.115066
H	0.9480077534166695 0.7744779493171426 0.9985892681100161	0.100368
H	0.8873901055632377 0.7148106296931853 0.9881033611895338	0.129176
H	0.9490682927069831 0.1192206630062786 0.4985818840128135	0.101611
H	0.8909931306535588 0.0566796690340313 0.4878260094795324	0.123614
H	0.7840218895827840 0.9492450155495631 0.4889858866743655	0.106249
H	0.7219183293518540 0.8907717764957100 0.4892591791008558	0.115066
H	0.5519922465833305 0.7255220506828574 0.4985893001100188	0.100368
H	0.6126098944367623 0.7851893703068147 0.4881033611895335	0.129176
H	0.4490683887069834 0.6192206790062800 0.4985818840128135	0.101611
H	0.3909930666535607 0.5566796980340374 0.4878260094795324	0.123614
H	0.2840218895827847 0.4492450155495632 0.4889858866743655	0.106249
H	0.2219183453518550 0.3907718754957147 0.4892591791008558	0.115066
H	0.0519922545833316 0.2255220996828579 0.4985893001100188	0.100368
H	0.1126099104367569 0.2851893043068170 0.4881033611895335	0.129176
H	0.9490682927069831 0.8807793209937200 0.5014181469871858	0.101611
H	0.8909931306535588 0.9433203019659626 0.5121739905204606	0.123614
H	0.7840218895827840 0.0507550014504417 0.5110141453256366	0.106249
H	0.7219183293518540 0.1092281495042911 0.5107408208991440	0.115066
H	0.5519922465833305 0.2744778833171441 0.5014107318899839	0.100368
H	0.6126098944367623 0.2148106466931824 0.5118966698104653	0.129176
H	0.4490683887069834 0.3807793209937200 0.5014181469871858	0.101611
H	0.3909930666535607 0.4433203349659689 0.5121739905204606	0.123614
H	0.2840218895827847 0.5507549844504369 0.5110141453256366	0.106249
H	0.2219183453518550 0.6092282235042900 0.5107408208991440	0.115066
H	0.0519922545833316 0.7744779493171426 0.5014107318899839	0.100368
H	0.1126099104367569 0.7148106296931853 0.5118966698104652	0.129176
H	0.0509316472930123 0.1192206630062786 0.0014181179871867	0.101591
H	0.1090069173464382 0.0566796690340313 0.0121739555204612	0.123618
H	0.2159781424172181 0.9492450155495631 0.0110141133256344	0.106249
H	0.2780816706481462 0.8907717764957100 0.0107408248991447	0.115066
H	0.4480077534166691 0.7255220506828574 0.0014107318899838	0.100368
H	0.3873901055632371 0.7851893703068147 0.0118966388104664	0.129176
H	0.5509317072930169 0.6192206790062800 0.0014181179871867	0.101611
H	0.6090068693464412 0.5566796980340374 0.0121739555204612	0.123614
H	0.7159781104172160 0.4492450155495632 0.0110141133256344	0.106249
H	0.7780816706481460 0.3907718754957147 0.0107408248991447	0.115066
H	0.9480077534166695 0.2255220996828579 0.0014107318899838	0.100368
H	0.8873901055632377 0.2851893043068170 0.0118966388104664	0.129176
Cu	0.5000000000000000 0.6728282879105427 0.7500000160000013	0.723335
Cu	-0.0000000000000000 0.1728283049105413 0.7500000160000013	0.723326
Cu	0.5000000000000000 0.3271717120894564 0.2500000000000000	0.723335
Cu	-0.0000000000000000 0.8271717120894573 0.2500000000000000	0.723326
Ti	0.5000000000000000 0.6730967487071817 0.2500000000000000	2.318545
Ti	-0.0000000000000000 0.1730967487071821 0.2500000000000000	2.318544
Ti	0.5000000000000000 0.3269032832928208 0.7500000160000013	2.318545
Ti	-0.0000000000000000 0.8269032512928183 0.7500000160000013	2.318544
F	0.5000000000000000 0.7390487602484154 0.2500000000000000	-0.649926
F	0.5000000000000000 0.6070794337503929 0.2500000000000000	-0.646963
F	-0.0000000000000000 0.2390487112484150 0.2500000000000000	-0.649926
F	-0.0000000000000000 0.1070794177503916 0.2500000000000000	-0.646963
F	0.5000000000000000 0.2609512887515850 0.7500000160000013	-0.649925
F	0.5000000000000000 0.3929205332496078 0.7500000160000013	-0.646963
F	-0.0000000000000000 0.7609512397515846 0.7500000160000013	-0.649926
F	-0.0000000000000000 0.8929205662496071 0.7500000160000013	-0.646963
F	0.5639700092731281 0.6731011277891470 0.2500000000000000	-0.649778
F	0.0639700292731297 0.1731011607891467 0.2500000000000000	-0.649778
F	0.4360299587268693 0.3268988062108542 0.7500000160000013	-0.649777
F	0.9360299907268719 0.8268988722108530 0.7500000160000013	-0.649778
F	0.4360299587268693 0.6731011277891470 0.2500000000000000	-0.649778
F	0.9360299907268719 0.1731011607891467 0.2500000000000000	-0.649778
F	0.5639700092731281 0.3268988062108542 0.7500000160000013	-0.649777
F	0.0639700292731297 0.8268988722108530 0.7500000160000013	-0.649778
F	0.5000000000000000 0.6729487489222674 0.4828961601058574	-0.635170
F	-0.0000000000000000 0.1729487659222651 0.4828961601058574	-0.635168
F	0.5000000000000000 0.3270512840777320 -0.0171038398941427	-0.635171
F	-0.0000000000000000 0.8270512510777326 -0.0171038398941427	-0.635168
F	0.5000000000000000 0.6729487489222674 0.0171038358941424	-0.635170
F	-0.0000000000000000 0.1729487659222651 0.0171038358941424	-0.635168
F	0.5000000000000000 0.3270512840777320 0.5171038078941471	-0.635170
F	-0.0000000000000000 0.8270512510777326 0.5171038078941471	-0.635168
N	0.5494981195535471 0.7231221893259852 0.7500000160000013	-0.224080
N	0.9512495000339134 0.1217407017447115 0.7500000160000013	-0.220381
N	0.0494980835535442 0.2231221733259836 0.7500000160000013	-0.224066
N	0.4512495000339131 0.6217406857447099 0.7500000160000013	-0.220385
N	0.4505019444464511 0.2768778106740152 0.2500000000000000	-0.224080
N	0.0487505079660875 0.8782593142552901 0.2500000000000000	-0.220554
N	0.9505018804464529 0.7768778106740148 0.2500000000000000	-0.224079
N	0.5487504999660866 0.3782593142552897 0.2500000000000000	-0.220385
N	0.4505019444464511 0.7231221893259852 0.7500000160000013	-0.224079
N	0.0487505079660875 0.1217407017447115 0.7500000160000013	-0.220553
N	0.9505018804464529 0.2231221733259836 0.7500000160000013	-0.224080
N	0.5487504999660866 0.6217406857447099 0.7500000160000013	-0.220385
N	0.5494981195535471 0.2768778106740152 0.2500000000000000	-0.224080
N	0.9512495000339134 0.8782593142552901 0.2500000000000000	-0.220382
N	0.0494980835535442 0.7768778106740148 0.2500000000000000	-0.224065
N	0.4512495000339131 0.3782593142552897 0.2500000000000000	-0.220385
	  	
