#======================================================================

# CRYSTAL DATA

#----------------------------------------------------------------------

data_VESTA_phase_1


_pd_phase_name                         TIFSIX_4_Zn_i
_cell_length_a                         23.79413
_cell_length_b                         20.66527
_cell_length_c                         9.33226
_cell_angle_alpha                      90
_cell_angle_beta                       90
_cell_angle_gamma                      90
_symmetry_space_group_name_H-M         P 1
_symmetry_Int_Tables_number            1

loop_
_symmetry_equiv_pos_as_xyz
   x, y, z

loop_
   _atom_site_label
   _atom_site_fract_x
   _atom_site_fract_y
   _atom_site_fract_z
   _atom_site_charge
C	0.4145597923489466 0.5966588877529030 0.6272197821664195	0.104884
C	0.3712356714534110 0.5517192689641199 0.6251043873961615	-0.171676
C	0.2764912484493839 0.4492986577618605 0.6245240134351556	-0.117718
C	0.2313440216604892 0.4067852237203041 0.6231829948764692	-0.113072
C	0.1314414689811151 0.3208553186122952 0.6217739620853113	-0.167480
C	0.0852489342812038 0.2798808140506299 0.6254159792600359	0.098166
C	0.9145598753489430 0.0966588987529076 0.6272197821664195	0.104883
C	0.8712356294534150 0.0517192109641220 0.6251043873961615	-0.171674
C	0.7764912694493888 0.9492987047618608 0.6245240134351556	-0.117718
C	0.7313440016604874 0.9067852697203008 0.6231829948764692	-0.113073
C	0.6314414689811150 0.8208553656122952 0.6217739620853113	-0.167487
C	0.5852489192811988 0.7798809070506267 0.6254159792600359	0.098217
C	0.5854402076510533 0.4033410662470929 0.1272197901664204	0.104884
C	0.6287643705465850 0.4482807770358841 0.1251044023961592	-0.171677
C	0.7235087305506112 0.5507012952381392 0.1245240214351564	-0.117716
C	0.7686559983395126 0.5932147762796959 0.1231830028764697	-0.113073
C	0.8685585310188850 0.6791446813877051 0.1217739690853152	-0.167486
C	0.9147510807188012 0.7201191399493736 0.1254159942600337	0.098216
C	0.0854402186510578 0.9033411592470973 0.1272197901664204	0.104881
C	0.1287643285465888 0.9482806850358834 0.1251044023961592	-0.171675
C	0.2235087725506145 0.0507013422381395 0.1245240214351564	-0.117717
C	0.2686559573395126 0.0932147532796977 0.1231830028764697	-0.113073
C	0.3685585730188882 0.1791446923877023 0.1217739690853152	-0.167480
C	0.4147510807188008 0.2201192099493718 0.1254159942600337	0.098166
C	0.5854402076510532 0.5966588877529030 0.8727801868335815	0.104884
C	0.6287643705465850 0.5517192689641199 0.8748955816038395	-0.171676
C	0.7235087305506112 0.4492986577618605 0.8754760175648434	-0.117718
C	0.7686559983395126 0.4067852237203041 0.8768170361235298	-0.113072
C	0.8685585310188850 0.3208553186122952 0.8782260689146877	-0.167481
C	0.9147510807188012 0.2798808140506299 0.8745840517399631	0.098166
C	0.0854402186510578 0.0966588987529076 0.8727801868335815	0.104883
C	0.1287643285465888 0.0517192109641220 0.8748955816038395	-0.171674
C	0.2235087725506145 0.9492987047618608 0.8754760175648434	-0.117718
C	0.2686559573395126 0.9067852697203008 0.8768170361235298	-0.113073
C	0.3685585730188882 0.8208553656122952 0.8782260689146877	-0.167487
C	0.4147510807188008 0.7798809070506267 0.8745840517399631	0.098217
C	0.4145597923489466 0.4033410662470929 0.3727802178335803	0.104884
C	0.3712356714534110 0.4482807770358841 0.3748955816038393	-0.171676
C	0.2764912484493839 0.5507012952381392 0.3754759865648444	-0.117716
C	0.2313440216604892 0.5932147762796959 0.3768169741235319	-0.113073
C	0.1314414689811151 0.6791446813877051 0.3782260069146827	-0.167486
C	0.0852489342812038 0.7201191399493736 0.3745839897399650	0.098216
C	0.9145598753489430 0.9033411592470973 0.3727802178335803	0.104882
C	0.8712356294534150 0.9482806850358834 0.3748955816038393	-0.171674
C	0.7764912694493888 0.0507013422381395 0.3754759865648444	-0.117717
C	0.7313440016604874 0.0932147532796977 0.3768169741235319	-0.113073
C	0.6314414689811150 0.1791446923877023 0.3782260069146827	-0.167480
C	0.5852489192811988 0.2201192099493718 0.3745839897399650	0.098166
C	0.5854402076510533 0.4033410662470929 0.3727802178335803	0.104885
C	0.6287643705465850 0.4482807770358841 0.3748955816038393	-0.171677
C	0.7235087305506112 0.5507012952381392 0.3754759865648444	-0.117716
C	0.7686559983395126 0.5932147762796959 0.3768169741235319	-0.113073
C	0.8685585310188850 0.6791446813877051 0.3782260069146827	-0.167486
C	0.9147510807188012 0.7201191399493736 0.3745839897399650	0.098219
C	0.0854402186510578 0.9033411592470973 0.3727802178335803	0.104883
C	0.1287643285465888 0.9482806850358834 0.3748955816038393	-0.171675
C	0.2235087725506145 0.0507013422381395 0.3754759865648444	-0.117717
C	0.2686559573395126 0.0932147532796977 0.3768169741235319	-0.113073
C	0.3685585730188882 0.1791446923877023 0.3782260069146827	-0.167480
C	0.4147510807188008 0.2201192099493718 0.3745839897399650	0.098168
C	0.4145597923489466 0.5966588877529030 0.8727801868335815	0.104885
C	0.3712356714534110 0.5517192689641199 0.8748955816038395	-0.171677
C	0.2764912484493839 0.4492986577618605 0.8754760175648434	-0.117718
C	0.2313440216604892 0.4067852237203041 0.8768170361235298	-0.113073
C	0.1314414689811151 0.3208553186122952 0.8782260689146877	-0.167481
C	0.0852489342812038 0.2798808140506299 0.8745840517399631	0.098169
C	0.9145598753489429 0.0966588987529076 0.8727801868335815	0.104884
C	0.8712356294534150 0.0517192109641220 0.8748955816038395	-0.171674
C	0.7764912694493888 0.9492987047618608 0.8754760175648434	-0.117718
C	0.7313440016604874 0.9067852697203008 0.8768170361235298	-0.113073
C	0.6314414689811150 0.8208553656122952 0.8782260689146877	-0.167487
C	0.5852489192811988 0.7798809070506267 0.8745840517399631	0.098220
C	0.4145597923489466 0.4033410662470929 0.1272197901664204	0.104886
C	0.3712356714534110 0.4482807770358841 0.1251044023961592	-0.171677
C	0.2764912484493839 0.5507012952381392 0.1245240214351564	-0.117716
C	0.2313440216604892 0.5932147762796959 0.1231830028764697	-0.113073
C	0.1314414689811151 0.6791446813877051 0.1217739690853152	-0.167486
C	0.0852489342812038 0.7201191399493736 0.1254159942600337	0.098219
C	0.9145598753489429 0.9033411592470973 0.1272197901664204	0.104883
C	0.8712356294534150 0.9482806850358834 0.1251044023961592	-0.171675
C	0.7764912694493888 0.0507013422381395 0.1245240214351564	-0.117717
C	0.7313440016604874 0.0932147532796977 0.1231830028764697	-0.113073
C	0.6314414689811150 0.1791446923877023 0.1217739690853152	-0.167480
C	0.5852489192811988 0.2201192099493718 0.1254159942600337	0.098169
C	0.5854402076510533 0.5966588877529030 0.6272197821664195	0.104886
C	0.6287643705465850 0.5517192689641199 0.6251043873961615	-0.171676
C	0.7235087305506112 0.4492986577618605 0.6245240134351556	-0.117718
C	0.7686559983395127 0.4067852237203041 0.6231829948764692	-0.113072
C	0.8685585310188850 0.3208553186122952 0.6217739620853113	-0.167481
C	0.9147510807188012 0.2798808140506299 0.6254159792600359	0.098169
C	0.0854402186510578 0.0966588987529076 0.6272197821664195	0.104885
C	0.1287643285465888 0.0517192109641220 0.6251043873961615	-0.171674
C	0.2235087725506145 0.9492987047618608 0.6245240134351556	-0.117718
C	0.2686559573395126 0.9067852697203008 0.6231829948764692	-0.113073
C	0.3685585730188882 0.8208553656122952 0.6217739620853113	-0.167487
C	0.4147510807188008 0.7798809070506267 0.6254159792600359	0.098220
C	0.3471398197704462 0.5250480335295373 0.7500000149999977	0.118017
C	0.3007471045828177 0.4751987670309994 0.7500000149999977	0.068619
C	0.2060640992949226 0.3851637451859761 0.7500000149999977	0.067100
C	0.1564466903618195 0.3422412635690798 0.7500000149999977	0.102363
C	0.8471397777704499 0.0250480165295397 0.7500000149999977	0.118017
C	0.8007471665828154 0.9751987200309993 0.7500000149999977	0.068619
C	0.7060640992949225 0.8851637681859739 0.7500000149999977	0.067099
C	0.6564466903618199 0.8422411945690779 0.7500000149999977	0.102367
C	0.6528601802295537 0.4749520124704591 0.2500000000000000	0.118018
C	0.6992528334171846 0.5248012329690004 0.2500000000000000	0.068618
C	0.7939359007050775 0.6148362788140265 0.2500000000000000	0.067100
C	0.8435533506381870 0.6577587134309216 0.2500000000000000	0.102366
C	0.1528601912295511 0.9749520594704597 0.2500000000000000	0.118018
C	0.1992529164171807 0.0248012359689973 0.2500000000000000	0.068619
C	0.2939359007050775 0.1148362318140256 0.2500000000000000	0.067100
C	0.3435533096381805 0.1577587474309245 0.2500000000000000	0.102363
C	0.6528601802295537 0.5250480335295373 0.7500000149999977	0.118017
C	0.6992528334171846 0.4751987670309994 0.7500000149999977	0.068619
C	0.7939359007050775 0.3851637451859761 0.7500000149999977	0.067099
C	0.8435533506381870 0.3422412635690798 0.7500000149999977	0.102364
C	0.1528601912295511 0.0250480165295397 0.7500000149999977	0.118017
C	0.1992529164171807 0.9751987200309993 0.7500000149999977	0.068619
C	0.2939359007050775 0.8851637681859739 0.7500000149999977	0.067099
C	0.3435533096381805 0.8422411945690779 0.7500000149999977	0.102367
C	0.3471398197704462 0.4749520124704591 0.2500000000000000	0.118018
C	0.3007471045828177 0.5248012329690004 0.2500000000000000	0.068618
C	0.2060640992949226 0.6148362788140265 0.2500000000000000	0.067100
C	0.1564466903618195 0.6577587134309216 0.2500000000000000	0.102366
C	0.8471397777704499 0.9749520594704597 0.2500000000000000	0.118017
C	0.8007471665828154 0.0248012359689973 0.2500000000000000	0.068618
C	0.7060640992949225 0.1148362318140256 0.2500000000000000	0.067100
C	0.6564466903618199 0.1577587474309245 0.2500000000000000	0.102363
H	0.4321568793630530 0.6152376255780699 0.5271530740700814	0.109577
H	0.3582639189611943 0.5392715295768455 0.5185819559024154	0.107015
H	0.2921177261736357 0.4611020846627455 0.5200969042757646	0.087754
H	0.2161270164263681 0.3907328426937462 0.5191065986215966	0.104116
H	0.1472999296297106 0.3352047375348338 0.5170397104409291	0.120561
H	0.0657155274028008 0.2622158444317213 0.5267591932267623	0.110118
H	0.9321568373630492 0.1152376605780698 0.5271530740700814	0.109577
H	0.8582638779611947 0.0392714655768399 0.5185819559024154	0.107013
H	0.7921177051736374 0.9611020846627452 0.5200969042757646	0.087754
H	0.7161269744263645 0.8907327736937516 0.5191065986215966	0.104116
H	0.6472999196297096 0.8352047375348336 0.5170397104409291	0.120562
H	0.5657155584027997 0.7622158214317233 0.5267591932267623	0.110114
H	0.5678431206369473 0.3847623744219293 0.0271531360700790	0.109577
H	0.6417360810388054 0.4607285174231551 0.0185819559024151	0.107011
H	0.7078822948263626 0.5388978693372510 0.0200969662757629	0.087755
H	0.7838730255736355 0.6092671343062479 0.0191065376215946	0.104116
H	0.8527000803702904 0.6647952164651626 0.0170397104409289	0.120561
H	0.9342844005972004 0.7377841785682767 0.0267591622267635	0.110114
H	0.0678431266369475 0.8847623744219301 0.0271531360700790	0.109577
H	0.1417361220388054 0.9607285174231548 0.0185819559024151	0.107014
H	0.2078822948263623 0.0388979123372506 0.0200969662757629	0.087754
H	0.2838729835736319 0.1092671683062511 0.0191065376215946	0.104116
H	0.3527000803702905 0.1647952394651607 0.0170397104409289	0.120561
H	0.4342844415972002 0.2377841555682785 0.0267591622267635	0.110117
H	0.5678431206369473 0.6152376255780699 -0.0271530930700792	0.109577
H	0.6417360810388054 0.5392715295768455 -0.0185819829024211	0.107015
H	0.7078822948263626 0.4611020846627455 -0.0200969222757592	0.087753
H	0.7838730255736355 0.3907328426937462 -0.0191065916215922	0.104116
H	0.8527000803702904 0.3352047375348338 -0.0170397104409290	0.120561
H	0.9342844005972004 0.2622158444317213 -0.0267592002267666	0.110117
H	0.0678431266369475 0.1152376605780698 -0.0271530930700792	0.109577
H	0.1417361220388054 0.0392714655768399 -0.0185819829024211	0.107013
H	0.2078822948263623 0.9611020846627452 -0.0200969222757592	0.087754
H	0.2838729835736319 0.8907327736937516 -0.0191065916215922	0.104116
H	0.3527000803702905 0.8352047375348336 -0.0170397104409290	0.120562
H	0.4342844415972002 0.7622158214317233 -0.0267592002267666	0.110114
H	0.4321568793630530 0.3847623744219293 0.4728468949299201	0.109577
H	0.3582639189611943 0.4607285174231551 0.4814180750975838	0.107011
H	0.2921177261736357 0.5388978693372510 0.4799030647242360	0.087755
H	0.2161270164263681 0.6092671343062479 0.4808933703784050	0.104116
H	0.1472999296297106 0.6647952164651626 0.4829602585590719	0.120561
H	0.0657155274028008 0.7377841785682767 0.4732408067732373	0.110114
H	0.9321568373630492 0.8847623744219301 0.4728468949299201	0.109577
H	0.8582638779611947 0.9607285174231548 0.4814180750975838	0.107013
H	0.7921177051736374 0.0388979123372506 0.4799030647242360	0.087754
H	0.7161269744263645 0.1092671683062511 0.4808933703784050	0.104116
H	0.6472999196297096 0.1647952394651607 0.4829602585590719	0.120561
H	0.5657155584027997 0.2377841555682785 0.4732408067732373	0.110117
H	0.5678431206369473 0.3847623744219293 0.4728468949299201	0.109577
H	0.6417360810388054 0.4607285174231551 0.4814180750975838	0.107011
H	0.7078822948263626 0.5388978693372510 0.4799030647242360	0.087755
H	0.7838730255736355 0.6092671343062479 0.4808933703784050	0.104116
H	0.8527000803702904 0.6647952164651626 0.4829602585590719	0.120562
H	0.9342844005972004 0.7377841785682767 0.4732408067732373	0.110114
H	0.0678431266369475 0.8847623744219301 0.4728468949299201	0.109577
H	0.1417361220388054 0.9607285174231548 0.4814180750975838	0.107013
H	0.2078822948263623 0.0388979123372506 0.4799030647242360	0.087754
H	0.2838729835736319 0.1092671683062511 0.4808933703784050	0.104116
H	0.3527000803702905 0.1647952394651607 0.4829602585590719	0.120561
H	0.4342844415972002 0.2377841555682785 0.4732408067732373	0.110117
H	0.4321568793630530 0.6152376255780699 -0.0271530930700792	0.109577
H	0.3582639189611943 0.5392715295768455 -0.0185819829024211	0.107015
H	0.2921177261736357 0.4611020846627455 -0.0200969222757592	0.087753
H	0.2161270164263681 0.3907328426937462 -0.0191065916215922	0.104116
H	0.1472999296297106 0.3352047375348338 -0.0170397104409290	0.120561
H	0.0657155274028008 0.2622158444317213 -0.0267592002267666	0.110118
H	0.9321568373630492 0.1152376605780698 -0.0271530930700792	0.109577
H	0.8582638779611947 0.0392714655768399 -0.0185819829024211	0.107013
H	0.7921177051736374 0.9611020846627452 -0.0200969222757592	0.087754
H	0.7161269744263645 0.8907327736937516 -0.0191065916215922	0.104116
H	0.6472999196297096 0.8352047375348336 -0.0170397104409290	0.120562
H	0.5657155584027997 0.7622158214317233 -0.0267592002267666	0.110114
H	0.4321568793630530 0.3847623744219293 0.0271531360700790	0.109577
H	0.3582639189611943 0.4607285174231551 0.0185819559024151	0.107011
H	0.2921177261736357 0.5388978693372510 0.0200969662757629	0.087755
H	0.2161270164263681 0.6092671343062479 0.0191065376215946	0.104116
H	0.1472999296297106 0.6647952164651626 0.0170397104409289	0.120562
H	0.0657155274028008 0.7377841785682767 0.0267591622267635	0.110114
H	0.9321568373630492 0.8847623744219301 0.0271531360700790	0.109577
H	0.8582638779611947 0.9607285174231548 0.0185819559024151	0.107013
H	0.7921177051736374 0.0388979123372506 0.0200969662757629	0.087754
H	0.7161269744263645 0.1092671683062511 0.0191065376215946	0.104116
H	0.6472999196297096 0.1647952394651607 0.0170397104409289	0.120561
H	0.5657155584027997 0.2377841555682785 0.0267591622267635	0.110117
H	0.5678431206369473 0.6152376255780699 0.5271530740700814	0.109577
H	0.6417360810388054 0.5392715295768455 0.5185819559024154	0.107015
H	0.7078822948263626 0.4611020846627455 0.5200969042757646	0.087753
H	0.7838730255736355 0.3907328426937462 0.5191065986215966	0.104116
H	0.8527000803702904 0.3352047375348338 0.5170397104409291	0.120561
H	0.9342844005972004 0.2622158444317213 0.5267591932267623	0.110118
H	0.0678431266369475 0.1152376605780697 0.5271530740700814	0.109577
H	0.1417361220388054 0.0392714655768399 0.5185819559024154	0.107013
H	0.2078822948263623 0.9611020846627452 0.5200969042757646	0.087754
H	0.2838729835736319 0.8907327736937516 0.5191065986215966	0.104116
H	0.3527000803702905 0.8352047375348336 0.5170397104409291	0.120562
H	0.4342844415972002 0.7622158214317233 0.5267591932267623	0.110114
Zn	0.5000000000000000 0.6885025185084032 0.7500000149999977	0.752407
Zn	0.0000000000000000 0.1885025765084008 0.7500000149999977	0.752452
Zn	0.5000000000000000 0.3114974114915980 0.2500000000000000	0.752452
Zn	0.0000000000000000 0.8114974814915968 0.2500000000000000	0.752406
F	0.5000000000000000 0.6852228064349953 0.4654764099620637	-0.660231
F	0.0000000000000000 0.1852228414349946 0.4654764099620637	-0.660230
F	0.5000000000000000 0.3147771705649993 0.9654764099620634	-0.660232
F	0.0000000000000000 0.8147771935650047 0.9654764099620634	-0.660229
F	0.5000000000000000 0.6852228064349953 0.0345235760379352	-0.660231
F	0.0000000000000000 0.1852228414349946 0.0345235760379352	-0.660230
F	0.5000000000000000 0.3147771705649993 0.5345235600379341	-0.660232
F	0.0000000000000000 0.8147771935650047 0.5345235600379341	-0.660229
F	0.4435654862621307 0.7480210520231902 0.2500000000000000	-0.665260
F	0.5560127628003551 0.6188298077099637 0.2500000000000000	-0.659117
F	0.9435654862621308 0.2480210520231907 0.2500000000000000	-0.665260
F	0.0560127838003603 0.1188298077099638 0.2500000000000000	-0.659112
F	0.5564344727378694 0.2519789249768107 0.7500000149999977	-0.665274
F	0.4439872371996449 0.3811701922900362 0.7500000149999977	-0.659117
F	0.0564345247378739 0.7519789479768098 0.7500000149999977	-0.665260
F	0.9439872371996449 0.8811701922900363 0.7500000149999977	-0.659112
F	0.5564344727378694 0.7480210520231902 0.2500000000000000	-0.665274
F	0.4439872371996449 0.6188298077099637 0.2500000000000000	-0.659117
F	0.0564345247378739 0.2480210520231907 0.2500000000000000	-0.665260
F	0.9439872371996449 0.1188298077099638 0.2500000000000000	-0.659112
F	0.4435654862621307 0.2519789249768107 0.7500000149999977	-0.665259
F	0.5560127628003551 0.3811701922900362 0.7500000149999977	-0.659117
F	0.9435654862621308 0.7519789479768098 0.7500000149999977	-0.665260
F	0.0560127838003603 0.8811701922900363 0.7500000149999977	-0.659112
N	0.4367598765609962 0.6189075961363604 0.7500000149999977	-0.225201
N	0.5627713197934233 0.7593785171527546 0.7500000149999977	-0.238057
N	0.9367598355609892 0.1189075841363591 0.7500000149999977	-0.225208
N	0.0627712937934207 0.2593784941527487 0.7500000149999977	-0.237988
N	0.5632401234390039 0.3810924038636397 0.2500000000000000	-0.225207
N	0.4372286802065770 0.2406215058472512 0.2500000000000000	-0.237987
N	0.0632401234390039 0.8810924038636396 0.2500000000000000	-0.225200
N	0.9372287212065765 0.7406214828472454 0.2500000000000000	-0.238057
N	0.5632401234390039 0.6189075961363604 0.7500000149999977	-0.225201
N	0.4372286802065770 0.7593785171527546 0.7500000149999977	-0.238056
N	0.0632401234390039 0.1189075841363591 0.7500000149999977	-0.225207
N	0.9372287212065765 0.2593784941527487 0.7500000149999977	-0.237988
N	0.4367598765609962 0.3810924038636397 0.2500000000000000	-0.225207
N	0.5627713197934233 0.2406215058472512 0.2500000000000000	-0.237987
N	0.9367598355609892 0.8810924038636396 0.2500000000000000	-0.225200
N	0.0627712937934207 0.7406214828472454 0.2500000000000000	-0.238056
Ti	0.5000000000000000 0.6838000257292977 0.2500000000000000	2.341992
Ti	0.0000000000000000 0.1838000497292998 0.2500000000000000	2.341965
Ti	0.5000000000000000 0.3161999272707018 0.7500000149999977	2.341993
Ti	0.0000000000000000 0.8161999742707023 0.7500000149999977	2.341965
	  	
