#======================================================================

# CRYSTAL DATA

#----------------------------------------------------------------------

data_VESTA_phase_1


_pd_phase_name                         TIFSIX_13_Co_i
_cell_length_a                         15.02218
_cell_length_b                         15.02034
_cell_length_c                         8.10213
_cell_angle_alpha                      90.09226
_cell_angle_beta                       89.78030
_cell_angle_gamma                      89.86607
_symmetry_space_group_name_H-M         P 1
_symmetry_Int_Tables_number            1

loop_
_symmetry_equiv_pos_as_xyz
   x, y, z

loop_
   _atom_site_label
   _atom_site_fract_x
   _atom_site_fract_y
   _atom_site_fract_z
   _atom_site_charge
C	0.5402311150877026 0.6781031827884774 0.8724570955767053	0.100131
C	0.5430569587201048 0.7706400768573266 0.8704329149639385	-0.143946
C	0.4636894913550448 0.3242750464587062 0.8793053558900016	0.098594
C	0.4606568328440591 0.2318461939821031 0.8793313741264079	-0.135994
C	0.8236078655551620 0.9730535150296094 0.3668602477694450	0.102727
C	0.7313169261132492 0.9710663254896394 0.3636307218715461	-0.130976
C	0.3241927294122550 0.5411130014486052 0.8703676767563642	0.098420
C	0.2317010231366012 0.5447248243935658 0.8682322749658979	-0.142963
C	0.1784767271825052 0.9719265424071799 0.3598782522163412	0.095558
C	0.2709155005083957 0.9706421655820098 0.3565484771968027	-0.132989
C	0.6778990740343929 0.4631108917074976 0.8842658787795497	0.098901
C	0.7702777834049249 0.4604139928492232 0.8835325046414071	-0.137023
C	0.4555125424132153 0.6786445973176000 0.1140908050109175	0.099664
C	0.4521979709984897 0.7710368751565488 0.1158928981291470	-0.133351
C	0.5392486490753714 0.3263436914518806 0.1302906758001517	0.098664
C	0.5418703480334942 0.2338153327444389 0.1348693596893092	-0.144886
C	0.1765607807086162 0.0204194207961144 0.6332428412761371	0.104447
C	0.2687873980518405 0.0217856385274143 0.6389826983737573	-0.134481
C	0.6754299537392638 0.5430897134396570 0.1311173214217667	0.099605
C	0.7680046051297650 0.5462989129832562 0.1347013274930643	-0.143309
C	0.8233673104566447 0.0286259290919960 0.6355993230091733	0.092987
C	0.7309740388888758 0.0297042090225592 0.6411371962959376	-0.130597
C	0.3228034038910021 0.4589765021218589 0.1142972250874477	0.100472
C	0.2304016422873645 0.4564122588739039 0.1159380238795726	-0.136381
C	0.9662867005265861 0.8216937126909117 0.6322683735477662	0.103872
C	0.9651173373617460 0.7292730828688277 0.6378115549352911	-0.132536
C	0.9832129929408386 0.1753328178332390 0.6369682961241824	0.093982
C	0.9805546531832436 0.2676120115910268 0.6408499182740225	-0.131674
C	0.0213973663724287 0.8203926063808973 0.3630598500216520	0.094042
C	0.0233662410111369 0.7280864512731318 0.3598191142846187	-0.132072
C	0.0305129495231532 0.1747170293910829 0.3625852576859190	0.104881
C	0.0306465228320409 0.2671324215387269 0.3574434690117216	-0.133009
C	0.0040599877008870 0.3145300795810962 0.4982600673418366	0.040377
C	0.0011875008899153 0.4120107909652292 0.4981013934448303	0.257666
C	0.4979388614106858 0.8182174805549737 0.9934677675226775	0.055010
C	0.4989586476203940 0.9163831158168648 0.9984233895454270	0.245567
C	0.9951693450307687 0.6814129037170773 0.4998940857876842	0.036569
C	0.9970327553843804 0.5837925052591474 0.4999409045027720	0.251270
C	0.5011264634235162 0.1854786174665534 0.0085230121242734	0.055721
C	0.5004624010576431 0.0872005481203513 0.0091816761882660	0.248845
C	0.6839147521806905 -0.0001002528551716 0.5029773117865608	0.036338
C	0.5863465121441915 0.9977230329010600 0.5041787422384749	0.249633
C	0.1836934602476639 0.5011453265432324 0.9920563513599504	0.054999
C	0.0855053938585403 0.5021630087862221 0.9948834883090106	0.247257
C	0.3170628798862385 0.9961030546872625 0.4986443642577972	0.042049
C	0.4145643998177915 0.9959676543270911 0.5014577012325764	0.254120
C	0.8164907630151478 0.5036359140024804 0.0098880281720320	0.056254
C	0.9147249170219407 0.5035090788959208 0.0071890368664441	0.246023
H	0.5710514735021428 0.6389118944648579 0.7743083184754357	0.111699
H	0.5791619677434251 0.8045074722673063 0.7721253617000509	0.127073
H	0.4365172407668012 0.3626509353616947 0.7770417457815552	0.112630
H	0.4294538060950457 0.1961956223157381 0.7778300660381696	0.121383
H	0.8624766478387875 0.9519055368760231 0.2601967525336536	0.108593
H	0.6972450631409406 0.9478131622013359 0.2534214184590494	0.123197
H	0.3635300902419922 0.5706768315700163 0.7712816164492875	0.112475
H	0.1981680775557231 0.5801832059888903 0.7691164882557969	0.127584
H	0.1409887323760687 0.9544277640786069 0.2498734774831846	0.102601
H	0.3055373526432844 0.9514363396967787 0.2435642358807249	0.120151
H	0.6394978786607319 0.4342440684048248 0.7838273394062266	0.112790
H	0.8060216843402248 0.4276440485406409 0.7831524785675071	0.120811
H	0.4249391981491895 0.6395352642248175 0.2120925405810674	0.113161
H	0.4175830577960973 0.8060175277655811 0.2150010773018593	0.119338
H	0.5667725868230471 0.3660407296676051 0.2307176424028172	0.111829
H	0.5741267147157053 0.2005604539119184 0.2380019581148348	0.127927
H	0.1371011255980780 0.0391314683890828 0.7406749296134669	0.108180
H	0.3019819080632961 0.0414577275755379 0.7524287874694406	0.122678
H	0.6356330196064935 0.5721213290382490 0.2304967280268268	0.112056
H	0.8010979269401074 0.5805701437639242 0.2358667952467099	0.127018
H	0.8614731780589272 0.0488597344117137 0.7432151989476127	0.102377
H	0.6969957991234973 0.0520641673186256 0.7527436494304678	0.124573
H	0.3614748700420958 0.4291445413377647 0.2134073421045098	0.112429
H	0.1950024286785031 0.4229702477590710 0.2155355767006129	0.120149
H	0.9449005908239361 0.8609439332729756 0.7382865357167733	0.110114
H	0.9423943567675273 0.6957718908837961 0.7493418298795290	0.123305
H	0.9671388473901481 0.1372113463474395 0.7470709704217039	0.101559
H	0.9612890647429840 0.3017899848243916 0.7541031603115422	0.123195
H	0.0408850359613976 0.8581578937196246 0.2543891991030515	0.101624
H	0.0459231325593135 0.6936500975258424 0.2489615060804605	0.122310
H	0.0494712626059776 0.1356816099014422 0.2547199306022490	0.110021
H	0.0495623549161672 0.3010047210961856 0.2439104836479124	0.122527
N	0.9453414738252157 0.5404203593418543 0.6105605852702531	-0.136513
N	0.4202116313142230 0.0466405792480521 0.0085163756387863	-0.145788
N	0.5429848598943957 0.0487843803658473 0.6164238988655538	-0.136495
N	0.9556551593649911 0.4232634311395644 0.0023089329987948	-0.144576
N	0.0502494142684938 0.5430535421816926 0.3875501639650280	-0.134447
N	0.5799054401908749 0.0448749460416390 0.0113967276624123	-0.147126
N	0.9565478397632284 0.5830352656487042 0.0050180484116660	-0.145302
N	0.5456549479303965 0.9435089272493484 0.3944609896993423	-0.132728
N	0.0528222163457960 0.4554450497864005 0.3876154736957571	-0.132161
N	0.5791728042607684 0.9569446411789532 0.0011455202769095	-0.142829
N	0.4579688911952137 0.9423882117922867 0.3935402784152883	-0.131264
N	0.0444799285216246 0.5823200150533930 0.9943802060295464	-0.143957
N	0.9469258476048498 0.4526848071106225 0.6085819102054270	-0.133818
N	0.4195076197341011 0.9585982411028520 0.0070640389946176	-0.143319
N	0.0436712415041471 0.4225851977475845 0.9997031031523835	-0.144755
N	0.4553229929457963 0.0481324353896735 0.6143143205131556	-0.134237
N	0.0059801071718440 0.1295521923362674 0.4995799041567303	-0.173779
N	0.4983166427537584 0.6328538387787837 0.9938908713495299	-0.183902
N	0.9949087050462989 0.8665996565947284 0.4976635226560966	-0.172052
N	0.5014530664284861 0.3707574474755403 0.0036138695933477	-0.187338
N	0.8690064523383928 0.0012386604254157 0.5008144062389304	-0.172531
N	0.3689986175065767 0.5000431934763048 0.9929364617977138	-0.187523
N	0.1319977177367419 0.9956357723779466 0.4960959499171881	-0.173046
N	0.6311601443711609 0.5030093847796006 0.0066824199302058	-0.184511
Co	0.0004268436076009 0.9981220411268353 0.4983088947592270	0.586375
Co	0.5000566947121137 0.5017900816210050 0.9991477358682832	0.604838
Ti	0.9995535754160199 0.9970312525090180 0.9984264573416495	2.305455
Ti	0.4993929770085509 0.5034972522749582 0.4987989677051848	2.326755
F	0.9964135399021842 0.0023370194870577 0.2351373691275047	-0.619065
F	0.5063461685454183 0.4991396259361762 0.7353192052499842	-0.626882
F	0.0031695022523281 0.9922318120695446 0.7615577561077369	-0.618255
F	0.4927098997918529 0.5064231564335866 0.2622547356897177	-0.626968
F	0.0891870836205817 0.0856324230347706 0.9954457997830334	-0.639740
F	0.5863321960570657 0.5951048875971422 0.4946355064853281	-0.655357
F	0.9099747058721649 0.9088138289683808 0.0009724582510813	-0.638935
F	0.4125390691587733 0.4119877781705700 0.5028742751573013	-0.657826
F	0.9115691274487371 0.0871832189374227 0.9821180444614493	-0.636002
F	0.4084372962878257 0.5909456461826315 0.5136639487456086	-0.654571
F	0.0884074417432590 0.9078089017286695 0.0141907830093136	-0.635962
F	0.5913292718205709 0.4168174179384584 0.4837091343022904	-0.655672
	  	
