#======================================================================

# CRYSTAL DATA

#----------------------------------------------------------------------

data_VESTA_phase_1


_pd_phase_name                         TIFSIX_3_Zn
_cell_length_a                         14.28865
_cell_length_b                         14.28865
_cell_length_c                         7.94748
_cell_angle_alpha                      90
_cell_angle_beta                       90
_cell_angle_gamma                      90
_symmetry_space_group_name_H-M         P 1
_symmetry_Int_Tables_number            1

loop_
_symmetry_equiv_pos_as_xyz
   x, y, z

loop_
   _atom_site_label
   _atom_site_fract_x
   _atom_site_fract_y
   _atom_site_fract_z
   _atom_site_charge
C	0.2706840172565370 0.4512451847334220 0.6402338729910810	0.067761
C	0.2293159827434632 0.0487548192665784 0.6402338729910810	0.067761
C	0.2293159827434632 0.4512451847334220 0.3597660950089159	0.067761
C	0.2706840172565370 0.0487548192665784 0.3597660950089159	0.067762
C	0.0487548192665784 0.2706840172565370 0.3597660950089159	0.067762
C	0.4512451847334220 0.2293159827434632 0.3597660950089159	0.067761
C	0.4512451847334220 0.2706840172565370 0.6402338729910810	0.067763
C	0.0487548192665784 0.2293159827434632 0.6402338729910810	0.067763
C	0.9512451167334235 0.2293159827434632 0.6402338729910810	0.067769
C	0.5487548832665765 0.2706840172565370 0.6402338729910810	0.067770
C	0.5487548832665765 0.2293159827434632 0.3597660950089159	0.067771
C	0.9512451167334235 0.2706840172565370 0.3597660950089159	0.067770
C	0.7293159997434610 0.0487548192665784 0.3597660950089159	0.067762
C	0.7706840002565390 0.4512451847334220 0.3597660950089159	0.067762
C	0.7706840002565390 0.0487548192665784 0.6402338729910810	0.067764
C	0.7293159997434610 0.4512451847334220 0.6402338729910810	0.067763
C	0.4512451847334220 0.7293159997434610 0.6402338729910810	0.067761
C	0.0487548192665784 0.7706840002565390 0.6402338729910810	0.067761
C	0.0487548192665784 0.7293159997434610 0.3597660950089159	0.067762
C	0.4512451847334220 0.7706840002565390 0.3597660950089159	0.067762
C	0.2293159827434632 0.5487548832665765 0.3597660950089159	0.067771
C	0.2706840172565370 0.9512451167334235 0.3597660950089159	0.067771
C	0.2706840172565370 0.5487548832665765 0.6402338729910810	0.067772
C	0.2293159827434632 0.9512451167334235 0.6402338729910810	0.067771
C	0.7706840002565390 0.9512451167334235 0.6402338729910810	0.067770
C	0.7293159997434610 0.5487548832665765 0.6402338729910810	0.067770
C	0.7293159997434610 0.9512451167334235 0.3597660950089159	0.067770
C	0.7706840002565390 0.5487548832665765 0.3597660950089159	0.067771
C	0.5487548832665765 0.7706840002565390 0.3597660950089159	0.067771
C	0.9512451167334235 0.7293159997434610 0.3597660950089159	0.067770
C	0.9512451167334235 0.7706840002565390 0.6402338729910810	0.067772
C	0.5487548832665765 0.7293159997434610 0.6402338729910810	0.067772
H	0.2868166150236438 0.4121054778238959 0.7543684254802003	0.112646
H	0.2131833509763534 0.0878945221761041 0.7543684254802003	0.112646
H	0.2131833509763534 0.4121054778238959 0.2456315435198007	0.112646
H	0.2868166150236438 0.0878945221761041 0.2456315435198007	0.112646
H	0.0878945221761041 0.2868166150236438 0.2456315435198007	0.112645
H	0.4121054778238959 0.2131833509763534 0.2456315435198007	0.112646
H	0.4121054778238959 0.2868166150236438 0.7543684254802003	0.112645
H	0.0878945221761041 0.2131833509763534 0.7543684254802003	0.112645
H	0.9121055458239015 0.2131833509763534 0.7543684254802003	0.112641
H	0.5878944541760985 0.2868166150236438 0.7543684254802003	0.112641
H	0.5878944541760985 0.2131833509763534 0.2456315435198007	0.112642
H	0.9121055458239015 0.2868166150236438 0.2456315435198007	0.112642
H	0.7131833169763577 0.0878945221761041 0.2456315435198007	0.112646
H	0.7868166830236423 0.4121054778238959 0.2456315435198007	0.112645
H	0.7868166830236423 0.0878945221761041 0.7543684254802003	0.112645
H	0.7131833169763577 0.4121054778238959 0.7543684254802003	0.112645
H	0.4121054778238959 0.7131833169763577 0.7543684254802003	0.112646
H	0.0878945221761041 0.7868166830236423 0.7543684254802003	0.112646
H	0.0878945221761041 0.7131833169763577 0.2456315435198007	0.112646
H	0.4121054778238959 0.7868166830236423 0.2456315435198007	0.112646
H	0.2131833509763534 0.5878944541760985 0.2456315435198007	0.112641
H	0.2868166150236438 0.9121055458239015 0.2456315435198007	0.112641
H	0.2868166150236438 0.5878944541760985 0.7543684254802003	0.112640
H	0.2131833509763534 0.9121055458239015 0.7543684254802003	0.112641
H	0.7868166830236423 0.9121055458239015 0.7543684254802003	0.112641
H	0.7131833169763577 0.5878944541760985 0.7543684254802003	0.112641
H	0.7131833169763577 0.9121055458239015 0.2456315435198007	0.112642
H	0.7868166830236423 0.5878944541760985 0.2456315435198007	0.112642
H	0.5878944541760985 0.7868166830236423 0.2456315435198007	0.112641
H	0.9121055458239015 0.7131833169763577 0.2456315435198007	0.112641
H	0.9121055458239015 0.7868166830236423 0.7543684254802003	0.112640
H	0.5878944541760985 0.7131833169763577 0.7543684254802003	0.112641
Zn	0.2500000000000000 0.2500000000000000 0.5000000000000000	0.761474
Zn	0.7500000340000028 0.2500000000000000 0.5000000000000000	0.761474
Zn	0.2500000000000000 0.7500000340000028 0.5000000000000000	0.761474
Zn	0.7500000340000028 0.7500000340000028 0.5000000000000000	0.761475
Ti	0.2500000000000000 0.2500000000000000 0.0000000000000000	2.308488
Ti	0.7500000340000028 0.2500000000000000 0.0000000000000000	2.308487
Ti	0.2500000000000000 0.7500000340000028 0.0000000000000000	2.308487
Ti	0.7500000340000028 0.7500000340000028 0.0000000000000000	2.308486
F	0.2500000000000000 0.2500000000000000 0.7555473179130520	-0.616443
F	0.2500000000000000 0.2500000000000000 0.2444526820869479	-0.616444
F	0.3431446413796773 0.3431446413796773 -0.0090436341879612	-0.627312
F	0.1568553586203225 0.1568553586203225 -0.0090436341879612	-0.627310
F	0.1568553586203225 0.3431446413796773 0.0090436551879595	-0.627310
F	0.3431446413796773 0.1568553586203225 0.0090436551879595	-0.627310
F	0.7500000340000028 0.2500000000000000 0.7555473179130520	-0.616444
F	0.7500000340000028 0.2500000000000000 0.2444526820869479	-0.616445
F	0.8431446753796806 0.3431446413796773 0.0090436551879595	-0.627312
F	0.6568553246203194 0.1568553586203225 0.0090436551879595	-0.627310
F	0.6568553246203194 0.3431446413796773 -0.0090436341879612	-0.627311
F	0.8431446753796806 0.1568553586203225 -0.0090436341879612	-0.627311
F	0.2500000000000000 0.7500000340000028 0.7555473179130520	-0.616444
F	0.2500000000000000 0.7500000340000028 0.2444526820869479	-0.616445
F	0.3431446413796773 0.8431446753796806 0.0090436551879595	-0.627312
F	0.1568553586203225 0.6568553246203194 0.0090436551879595	-0.627310
F	0.1568553586203225 0.8431446753796806 -0.0090436341879612	-0.627311
F	0.3431446413796773 0.6568553246203194 -0.0090436341879612	-0.627311
F	0.7500000340000028 0.7500000340000028 0.7555473179130520	-0.616445
F	0.7500000340000028 0.7500000340000028 0.2444526820869479	-0.616446
F	0.8431446753796805 0.8431446753796806 -0.0090436341879612	-0.627312
F	0.6568553246203194 0.6568553246203194 -0.0090436341879612	-0.627310
F	0.6568553246203194 0.8431446753796806 0.0090436551879595	-0.627311
F	0.8431446753796806 0.6568553246203194 0.0090436551879595	-0.627311
N	0.4027592084067242 0.2500000000000000 0.5000000000000000	-0.192775
N	0.0972407915932759 0.2500000000000000 0.5000000000000000	-0.192775
N	0.2500000000000000 0.4027592084067242 0.5000000000000000	-0.192775
N	0.2500000000000000 0.0972407915932759 0.5000000000000000	-0.192775
N	0.9027592084067241 0.2500000000000000 0.5000000000000000	-0.192779
N	0.5972407915932759 0.2500000000000000 0.5000000000000000	-0.192778
N	0.7500000340000028 0.4027592084067242 0.5000000000000000	-0.192775
N	0.7500000340000028 0.0972407915932759 0.5000000000000000	-0.192775
N	0.4027592084067242 0.7500000340000028 0.5000000000000000	-0.192775
N	0.0972407915932759 0.7500000340000028 0.5000000000000000	-0.192775
N	0.2500000000000000 0.9027592084067241 0.5000000000000000	-0.192779
N	0.2500000000000000 0.5972407915932759 0.5000000000000000	-0.192779
N	0.9027592084067242 0.7500000340000028 0.5000000000000000	-0.192779
N	0.5972407915932759 0.7500000340000028 0.5000000000000000	-0.192779
N	0.7500000340000028 0.9027592084067242 0.5000000000000000	-0.192779
N	0.7500000340000028 0.5972407915932759 0.5000000000000000	-0.192778
	  	
