#======================================================================

# CRYSTAL DATA

#----------------------------------------------------------------------

data_VESTA_phase_1


_pd_phase_name                         TIFSIX_15_Zn_i
_cell_length_a                         29.89471
_cell_length_b                         29.07263
_cell_length_c                         8.06874
_cell_angle_alpha                      90
_cell_angle_beta                       90
_cell_angle_gamma                      90
_symmetry_space_group_name_H-M         P 1
_symmetry_Int_Tables_number            1

loop_
_symmetry_equiv_pos_as_xyz
   x, y, z

loop_
   _atom_site_label
   _atom_site_fract_x
   _atom_site_fract_y
   _atom_site_fract_z
   _atom_site_charge
C	0.9331358963103054 0.1023396138390851 0.8939428357899879	0.107916
C	0.9011358528847114 0.0677684918250075 0.8996004083344069	-0.164269
C	0.7699262433791888 0.9362756347710030 0.9014014904967065	-0.114484
C	0.7357784884988744 0.9040767613009868 0.9011897735731392	-0.116121
C	0.5684684695213729 0.7418274167654828 0.8938321545098007	0.105159
C	0.6020708789159083 0.7747376166156887 0.8992674612260809	-0.167485
C	0.4331359283103008 0.6023396298390864 0.8939428357899879	0.107916
C	0.4011358848847137 0.5677684548250080 0.8996004083344069	-0.164269
C	0.2699261793791907 0.4362756677710092 0.9014014904967065	-0.114484
C	0.2357784564988716 0.4040768273009925 0.9011897735731392	-0.116121
C	0.0684684935213750 0.2418273997654853 0.8938321545098007	0.105159
C	0.1020708549159063 0.2747376496156876 0.8992674612260809	-0.167485
C	0.0668640716896991 0.8976603701609136 0.3939428667899794	0.107917
C	0.0988641231152868 0.9322315451749920 0.3996004403344025	-0.164269
C	0.2300737726208125 0.0637243282289904 0.4014015524967046	-0.114428
C	0.2642215275011272 0.0959231886990088 0.4011897735731393	-0.116132
C	0.4315314984786245 0.2581726332345138 0.3938321855097996	0.105219
C	0.3979291210840920 0.2252623503843122 0.3992674612260807	-0.167421
C	0.5668641036896946 0.3976604031609130 0.3939428667899794	0.107917
C	0.5988641471152886 0.4322315451749920 0.3996004403344025	-0.164269
C	0.7300737566208112 0.5637243652289970 0.4014015524967046	-0.114395
C	0.7642215115011256 0.5959232386990132 0.4011897735731393	-0.116139
C	0.9315315304786271 0.7581725832345172 0.3938321855097996	0.105158
C	0.8979291210840917 0.7252623833843113 0.3992674612260807	-0.167485
C	0.0668640716896991 0.1023396138390851 0.6060571332100131	0.107915
C	0.0988641231152868 0.0677684918250075 0.6003994976655924	-0.164268
C	0.2300737726208125 0.9362756347710030 0.5985984785032945	-0.114444
C	0.2642215275011272 0.9040767613009868 0.5988102574268598	-0.116127
C	0.4315314984786245 0.7418274167654828 0.6061677514901986	0.105219
C	0.3979291210840920 0.7747376166156887 0.6007325077739201	-0.167422
C	0.5668641036896946 0.6023396298390864 0.6060571332100131	0.107916
C	0.5988641471152886 0.5677684548250080 0.6003994976655924	-0.164268
C	0.7300737566208112 0.4362756677710092 0.5985984785032945	-0.114444
C	0.7642215115011256 0.4040768273009925 0.5988102574268598	-0.116127
C	0.9315315304786271 0.2418273997654853 0.6061677514901986	0.105159
C	0.8979291210840917 0.2747376496156876 0.6007325077739201	-0.167485
C	0.9331358963103054 0.8976603701609136 0.1060571492100218	0.107917
C	0.9011358528847114 0.9322315451749920 0.1003995366655921	-0.164268
C	0.7699262433791888 0.0637243282289904 0.0985984785032944	-0.114427
C	0.7357784884988744 0.0959231886990088 0.0988102424268549	-0.116132
C	0.5684684695213729 0.2581726332345138 0.1061678064901998	0.105159
C	0.6020708789159083 0.2252623503843122 0.1007325537739169	-0.167485
C	0.4331359283103008 0.3976604031609130 0.1060571492100218	0.107917
C	0.4011358848847137 0.4322315451749920 0.1003995366655921	-0.164268
C	0.2699261793791907 0.5637243652289970 0.0985984785032944	-0.114394
C	0.2357784564988716 0.5959232386990132 0.0988102424268549	-0.116140
C	0.0684684935213750 0.7581725832345172 0.1061678064901998	0.105158
C	0.1020708549159063 0.7252623833843113 0.1007325537739169	-0.167485
C	0.0668640716896991 0.8976603701609136 0.1060571492100218	0.107917
C	0.0988641231152868 0.9322315451749920 0.1003995366655921	-0.164268
C	0.2300737726208125 0.0637243282289904 0.0985984785032944	-0.114427
C	0.2642215275011272 0.0959231886990088 0.0988102424268549	-0.116133
C	0.4315314984786245 0.2581726332345138 0.1061678064901998	0.105220
C	0.3979291210840920 0.2252623503843122 0.1007325537739169	-0.167421
C	0.5668641036896946 0.3976604031609130 0.1060571492100218	0.107917
C	0.5988641471152886 0.4322315451749920 0.1003995366655921	-0.164268
C	0.7300737566208112 0.5637243652289970 0.0985984785032944	-0.114395
C	0.7642215115011256 0.5959232386990132 0.0988102424268549	-0.116139
C	0.9315315304786271 0.7581725832345172 0.1061678064901998	0.105159
C	0.8979291210840917 0.7252623833843113 0.1007325537739169	-0.167484
C	0.9331358963103054 0.1023396138390851 0.6060571332100131	0.107916
C	0.9011358528847114 0.0677684918250075 0.6003994976655924	-0.164269
C	0.7699262433791888 0.9362756347710030 0.5985984785032945	-0.114444
C	0.7357784884988744 0.9040767613009868 0.5988102574268598	-0.116127
C	0.5684684695213729 0.7418274167654828 0.6061677514901986	0.105160
C	0.6020708789159083 0.7747376166156887 0.6007325077739201	-0.167485
C	0.4331359283103008 0.6023396298390864 0.6060571332100131	0.107916
C	0.4011358848847137 0.5677684548250080 0.6003994976655924	-0.164269
C	0.2699261793791907 0.4362756677710092 0.5985984785032945	-0.114444
C	0.2357784564988716 0.4040768273009925 0.5988102574268598	-0.116127
C	0.0684684935213750 0.2418273997654853 0.6061677514901986	0.105160
C	0.1020708549159063 0.2747376496156876 0.6007325077739201	-0.167485
C	0.9331358963103054 0.8976603701609136 0.3939428667899794	0.107917
C	0.9011358528847114 0.9322315451749920 0.3996004403344025	-0.164268
C	0.7699262433791888 0.0637243282289904 0.4014015524967046	-0.114427
C	0.7357784884988744 0.0959231886990088 0.4011897735731393	-0.116132
C	0.5684684695213729 0.2581726332345138 0.3938321855097996	0.105159
C	0.6020708789159083 0.2252623503843122 0.3992674612260807	-0.167484
C	0.4331359283103008 0.3976604031609130 0.3939428667899794	0.107917
C	0.4011358848847137 0.4322315451749920 0.3996004403344025	-0.164268
C	0.2699261793791907 0.5637243652289970 0.4014015524967046	-0.114395
C	0.2357784564988716 0.5959232386990132 0.4011897735731393	-0.116140
C	0.0684684935213750 0.7581725832345172 0.3938321855097996	0.105159
C	0.1020708549159063 0.7252623833843113 0.3992674612260807	-0.167484
C	0.0668640716896991 0.1023396138390851 0.8939428357899879	0.107916
C	0.0988641231152868 0.0677684918250075 0.8996004083344069	-0.164268
C	0.2300737726208125 0.9362756347710030 0.9014014904967065	-0.114484
C	0.2642215275011272 0.9040767613009868 0.9011897735731392	-0.116121
C	0.4315314984786245 0.7418274167654828 0.8938321545098007	0.105220
C	0.3979291210840920 0.7747376166156887 0.8992674612260809	-0.167421
C	0.5668641036896946 0.6023396298390864 0.8939428357899879	0.107916
C	0.5988641471152886 0.5677684548250080 0.8996004083344069	-0.164269
C	0.7300737566208112 0.4362756677710092 0.9014014904967065	-0.114484
C	0.7642215115011256 0.4040768273009925 0.9011897735731392	-0.116121
C	0.9315315304786271 0.2418273997654853 0.8938321545098007	0.105160
C	0.8979291210840917 0.2747376496156876 0.8992674612260809	-0.167485
C	0.6540512715868402 0.8254817403494973 0.7500000160000013	-0.105402
C	0.8843302738181883 0.0498007297705148 0.7500000160000013	0.160562
C	0.8218371812297465 0.9859899005842079 0.7500000160000013	-0.098602
C	0.6197645212510824 0.7920342520711127 0.7500000160000013	0.169855
C	0.7874012338634642 0.9528025277172202 0.7500000160000013	0.127528
C	0.7182252133990576 0.8874513388243216 0.7500000160000013	0.139155
C	0.6837071729132276 0.8543308716442203 0.7500000160000013	-0.099219
C	0.8511728816687343 0.0151918683475015 0.7500000160000013	-0.105364
C	0.1540512555868387 0.3254817403494975 0.7500000160000013	-0.105403
C	0.3843301778181877 0.5498007417705161 0.7500000160000013	0.160561
C	0.3218371812297465 0.4859899005842080 0.7500000160000013	-0.098602
C	0.1197645132510811 0.2920342520711126 0.7500000160000013	0.169855
C	0.2874012018634685 0.4528025277172204 0.7500000160000013	0.127528
C	0.2182251973990562 0.3874513718243201 0.7500000160000013	0.139155
C	0.1837071399132281 0.3543308386442210 0.7500000160000013	-0.099219
C	0.3511728496687319 0.5151918633474974 0.7500000160000013	-0.105365
C	0.3459487604131626 0.1745182596505025 0.2500000000000000	-0.105401
C	0.1156697981818176 0.9501992582294839 0.2500000000000000	0.160567
C	0.1781628187702534 0.0140100954157916 0.2500000000000000	-0.098585
C	0.3802354787489182 0.2079657319288861 0.2500000000000000	0.169824
C	0.2125987821365374 0.0471974642827789 0.2500000000000000	0.127457
C	0.2817747866009424 0.1125486201756791 0.2500000000000000	0.139157
C	0.3162928600867718 0.1456691283557798 0.2500000000000000	-0.099218
C	0.1488271503312681 0.9848081036525034 0.2500000000000000	-0.105372
C	0.8459487284131598 0.6745182596505027 0.2500000000000000	-0.105402
C	0.6156697261818117 0.4501992912294833 0.2500000000000000	0.160565
C	0.6781628187702535 0.5140100994157921 0.2500000000000000	-0.098641
C	0.8802354787489176 0.7079657479288873 0.2500000000000000	0.169854
C	0.7125987661365358 0.5471975052827790 0.2500000000000000	0.127464
C	0.7817747866009424 0.6125486611756784 0.2500000000000000	0.139159
C	0.8162928270867724 0.6456691283557797 0.2500000000000000	-0.099219
C	0.6488271183312657 0.4848081036525033 0.2500000000000000	-0.105359
C	0.3459487604131626 0.8254817403494973 0.7500000160000013	-0.105401
C	0.1156697981818176 0.0498007297705148 0.7500000160000013	0.160561
C	0.1781628187702534 0.9859899005842079 0.7500000160000013	-0.098602
C	0.3802354787489182 0.7920342520711127 0.7500000160000013	0.169824
C	0.2125987821365374 0.9528025277172202 0.7500000160000013	0.127528
C	0.2817747866009424 0.8874513388243216 0.7500000160000013	0.139155
C	0.3162928600867718 0.8543308716442203 0.7500000160000013	-0.099219
C	0.1488271503312681 0.0151918683475015 0.7500000160000013	-0.105365
C	0.8459487284131598 0.3254817403494975 0.7500000160000013	-0.105402
C	0.6156697261818117 0.5498007417705161 0.7500000160000013	0.160561
C	0.6781628187702535 0.4859899005842080 0.7500000160000013	-0.098602
C	0.8802354787489176 0.2920342520711126 0.7500000160000013	0.169855
C	0.7125987661365358 0.4528025277172204 0.7500000160000013	0.127528
C	0.7817747866009424 0.3874513718243201 0.7500000160000013	0.139155
C	0.8162928270867724 0.3543308386442210 0.7500000160000013	-0.099219
C	0.6488271183312657 0.5151918633474974 0.7500000160000013	-0.105364
C	0.6540512715868402 0.1745182596505025 0.2500000000000000	-0.105402
C	0.8843302738181883 0.9501992582294839 0.2500000000000000	0.160567
C	0.8218371812297465 0.0140100954157916 0.2500000000000000	-0.098585
C	0.6197645212510824 0.2079657319288861 0.2500000000000000	0.169854
C	0.7874012338634642 0.0471974642827789 0.2500000000000000	0.127457
C	0.7182252133990576 0.1125486201756791 0.2500000000000000	0.139156
C	0.6837071729132276 0.1456691283557798 0.2500000000000000	-0.099219
C	0.8511728816687343 0.9848081036525034 0.2500000000000000	-0.105372
C	0.1540512555868387 0.6745182596505027 0.2500000000000000	-0.105402
C	0.3843301778181877 0.4501992912294833 0.2500000000000000	0.160565
C	0.3218371812297465 0.5140100994157921 0.2500000000000000	-0.098641
C	0.1197645132510811 0.7079657479288873 0.2500000000000000	0.169855
C	0.2874012018634685 0.5471975052827790 0.2500000000000000	0.127464
C	0.2182251973990562 0.6125486611756784 0.2500000000000000	0.139159
C	0.1837071399132281 0.6456691283557797 0.2500000000000000	-0.099219
C	0.3511728496687319 0.4848081036525033 0.2500000000000000	-0.105360
H	0.9466283194048594 0.1168916919480507 0.0077420762838769	0.095315
H	0.8891752439583360 0.0547923402460798 0.0180999414257579	0.121330
H	0.7837224869737283 0.9491893191689363 0.0175859591035343	0.106529
H	0.7221033135073114 0.8911258839808901 0.0173571563576667	0.115580
H	0.5543298473586137 0.7279856728366303 0.0077174168920213	0.094344
H	0.6145936946417671 0.7869894009908948 0.0178340055464967	0.126010
H	0.4466284154048603 0.6168917079480520 0.0077420762838769	0.095314
H	0.3891751799583373 0.5547923692460854 0.0180999414257579	0.121330
H	0.2837224869737285 0.4491893191689361 0.0175859591035343	0.106529
H	0.2221033295073125 0.3911259829808952 0.0173571563576667	0.115580
H	0.0543298553586147 0.2279857218366307 0.0077174168920213	0.094344
H	0.1145937106417612 0.2869893349908963 0.0178340055464967	0.126010
H	0.0533716205951355 0.8831082920519480 0.5077421052838756	0.095314
H	0.1108248040416613 0.9452076307539146 0.5180999764257574	0.121329
H	0.2162775450262743 0.0508106978310688 0.5175859911035370	0.106533
H	0.2778966864926888 0.1088740420191104 0.5173571523576663	0.115580
H	0.4456701526413859 0.2720142611633713 0.5077174168920210	0.094280
H	0.3854063053582331 0.2130106160091031 0.5178340365464958	0.126000
H	0.5533716805951406 0.3831082920519478 0.5077421052838756	0.095313
H	0.6108247560416640 0.4452076637539205 0.5180999764257574	0.121330
H	0.7162775130262717 0.5508106808310637 0.5175859911035370	0.106525
H	0.7778966864926886 0.6088741160191099 0.5173571523576663	0.115580
H	0.9456701526413863 0.7720143271633697 0.5077174168920210	0.094344
H	0.8854063053582329 0.7130105990091052 0.5178340365464958	0.126010
H	0.0533716205951355 0.1168916919480507 0.4922579257161233	0.095316
H	0.1108248040416613 0.0547923402460798 0.4819000235742356	0.121336
H	0.2162775450262743 0.9491893191689363 0.4824140408964657	0.106535
H	0.2778966864926888 0.8911258839808901 0.4826428476423338	0.115580
H	0.4456701526413859 0.7279856728366303 0.4922826151079813	0.094281
H	0.3854063053582331 0.7869894009908948 0.4821659944535034	0.126001
H	0.5533716805951406 0.6168917079480520 0.4922579257161233	0.095315
H	0.6108247560416640 0.5547923692460854 0.4819000235742356	0.121336
H	0.7162775130262717 0.4491893191689361 0.4824140408964657	0.106535
H	0.7778966864926886 0.3911259829808952 0.4826428476423338	0.115580
H	0.9456701526413863 0.2279857218366307 0.4922826151079813	0.094344
H	0.8854063053582329 0.2869893349908963 0.4821659944535034	0.126010
H	0.9466283194048594 0.8831082920519480 0.9922579257161234	0.095314
H	0.8891752439583360 0.9452076307539146 0.9818999925742364	0.121330
H	0.7837224869737283 0.0508106978310688 0.9824140408964657	0.106533
H	0.7221033135073114 0.1088740420191104 0.9826428166423276	0.115580
H	0.5543298473586137 0.2720142611633713 0.9922825831079790	0.094343
H	0.6145936946417671 0.2130106160091031 0.9821659944535032	0.126010
H	0.4466284154048603 0.3831082920519478 0.9922579257161234	0.095313
H	0.3891751799583373 0.4452076637539205 0.9818999925742364	0.121330
H	0.2837224869737285 0.5508106808310637 0.9824140408964657	0.106526
H	0.2221033295073125 0.6088741160191099 0.9826428166423276	0.115580
H	0.0543298553586147 0.7720143271633697 0.9922825831079790	0.094344
H	0.1145937106417612 0.7130105990091052 0.9821659944535032	0.126010
H	0.0533716205951355 0.8831082920519480 0.9922579257161234	0.095314
H	0.1108248040416613 0.9452076307539146 0.9818999925742364	0.121330
H	0.2162775450262743 0.0508106978310688 0.9824140408964657	0.106533
H	0.2778966864926888 0.1088740420191104 0.9826428166423276	0.115580
H	0.4456701526413859 0.2720142611633713 0.9922825831079790	0.094280
H	0.3854063053582331 0.2130106160091031 0.9821659944535032	0.126001
H	0.5533716805951406 0.3831082920519478 0.9922579257161234	0.095313
H	0.6108247560416640 0.4452076637539205 0.9818999925742364	0.121330
H	0.7162775130262717 0.5508106808310637 0.9824140408964657	0.106526
H	0.7778966864926886 0.6088741160191099 0.9826428166423276	0.115580
H	0.9456701526413863 0.7720143271633697 0.9922825831079790	0.094344
H	0.8854063053582329 0.7130105990091052 0.9821659944535032	0.126011
H	0.9466283194048594 0.1168916919480507 0.4922579257161233	0.095315
H	0.8891752439583360 0.0547923402460798 0.4819000235742356	0.121336
H	0.7837224869737283 0.9491893191689363 0.4824140408964657	0.106535
H	0.7221033135073114 0.8911258839808901 0.4826428476423338	0.115580
H	0.5543298473586137 0.7279856728366303 0.4922826151079813	0.094344
H	0.6145936946417671 0.7869894009908948 0.4821659944535034	0.126011
H	0.4466284154048603 0.6168917079480520 0.4922579257161233	0.095315
H	0.3891751799583373 0.5547923692460854 0.4819000235742356	0.121336
H	0.2837224869737285 0.4491893191689361 0.4824140408964657	0.106535
H	0.2221033295073125 0.3911259829808952 0.4826428476423338	0.115580
H	0.0543298553586147 0.2279857218366307 0.4922826151079813	0.094344
H	0.1145937106417612 0.2869893349908963 0.4821659944535034	0.126011
H	0.9466283194048594 0.8831082920519480 0.5077421052838756	0.095314
H	0.8891752439583360 0.9452076307539146 0.5180999764257574	0.121329
H	0.7837224869737283 0.0508106978310688 0.5175859911035370	0.106533
H	0.7221033135073114 0.1088740420191104 0.5173571523576663	0.115580
H	0.5543298473586137 0.2720142611633713 0.5077174168920210	0.094343
H	0.6145936946417671 0.2130106160091031 0.5178340365464958	0.126010
H	0.4466284154048603 0.3831082920519478 0.5077421052838756	0.095312
H	0.3891751799583373 0.4452076637539205 0.5180999764257574	0.121329
H	0.2837224869737285 0.5508106808310637 0.5175859911035370	0.106525
H	0.2221033295073125 0.6088741160191099 0.5173571523576663	0.115580
H	0.0543298553586147 0.7720143271633697 0.5077174168920210	0.094344
H	0.1145937106417612 0.7130105990091052 0.5178340365464958	0.126011
H	0.0533716205951355 0.1168916919480507 0.0077420762838769	0.095314
H	0.1108248040416613 0.0547923402460798 0.0180999414257579	0.121329
H	0.2162775450262743 0.9491893191689363 0.0175859591035343	0.106529
H	0.2778966864926888 0.8911258839808901 0.0173571563576667	0.115580
H	0.4456701526413859 0.7279856728366303 0.0077174168920213	0.094281
H	0.3854063053582331 0.7869894009908948 0.0178340055464967	0.126001
H	0.5533716805951406 0.6168917079480520 0.0077420762838769	0.095314
H	0.6108247560416640 0.5547923692460854 0.0180999414257579	0.121330
H	0.7162775130262717 0.4491893191689361 0.0175859591035343	0.106529
H	0.7778966864926886 0.3911259829808952 0.0173571563576667	0.115580
H	0.9456701526413863 0.2279857218366307 0.0077174168920213	0.094344
H	0.8854063053582329 0.2869893349908963 0.0178340055464967	0.126011
Zn	0.5000000000000000 0.6729440152778965 0.7500000160000013	0.760268
Zn	0.0000000000000000 0.1729440322778942 0.7500000160000013	0.760260
Zn	0.5000000000000000 0.3270559847221036 0.2500000000000000	0.760269
Zn	0.0000000000000000 0.8270559847221035 0.2500000000000000	0.760260
Ti	0.5000000000000000 0.6728555054957820 0.2500000000000000	2.313151
Ti	0.0000000000000000 0.1728555054957819 0.2500000000000000	2.313153
Ti	0.5000000000000000 0.3271445265042204 0.7500000160000013	2.313106
Ti	0.0000000000000000 0.8271444945042180 0.7500000160000013	2.313153
F	0.5000000000000000 0.7376788880642631 0.2500000000000000	-0.641831
F	0.5000000000000000 0.6080405535449472 0.2500000000000000	-0.638009
F	0.0000000000000000 0.2376788390642622 0.2500000000000000	-0.641836
F	0.0000000000000000 0.1080405375449457 0.2500000000000000	-0.638009
F	0.5000000000000000 0.2623211609357378 0.7500000160000013	-0.641839
F	0.5000000000000000 0.3919594134550539 0.7500000160000013	-0.637958
F	0.0000000000000000 0.7623211119357369 0.7500000160000013	-0.641836
F	0.0000000000000000 0.8919594464550528 0.7500000160000013	-0.638009
F	0.5630929850160360 0.6728435310147135 0.2500000000000000	-0.641206
F	0.0630930050160380 0.1728435640147127 0.2500000000000000	-0.641205
F	0.4369069829839609 0.3271564029852882 0.7500000160000013	-0.641192
F	0.9369070149839640 0.8271564689852865 0.7500000160000013	-0.641205
F	0.4369069829839609 0.6728435310147135 0.2500000000000000	-0.641199
F	0.9369070149839640 0.1728435640147127 0.2500000000000000	-0.641205
F	0.5630929850160360 0.3271564029852882 0.7500000160000013	-0.641199
F	0.0630930050160380 0.8271564689852865 0.7500000160000013	-0.641205
F	0.5000000000000000 0.6729162144348844 0.4911653323483541	-0.604165
F	0.0000000000000000 0.1729162314348819 0.4911653323483541	-0.604167
F	0.5000000000000000 0.3270838185651154 0.9911653323483541	-0.604168
F	0.0000000000000000 0.8270837855651156 0.9911653323483541	-0.604166
F	0.5000000000000000 0.6729162144348844 0.0088346636516456	-0.604164
F	0.0000000000000000 0.1729162314348819 0.0088346636516456	-0.604166
F	0.5000000000000000 0.3270838185651154 0.5088346356516503	-0.604168
F	0.0000000000000000 0.8270837855651156 0.5088346356516503	-0.604166
N	0.5517623388938143 0.7254080981554166 0.7500000160000013	-0.230078
N	0.9489832768565781 0.1195494138632270 0.7500000160000013	-0.229542
N	0.0517623028938109 0.2254080821554151 0.7500000160000013	-0.230078
N	0.4489832768565776 0.6195493978632255 0.7500000160000013	-0.229541
N	0.4482377251061841 0.2745919018445835 0.2500000000000000	-0.230168
N	0.0510167311434231 0.8804506021367745 0.2500000000000000	-0.229541
N	0.9482376611061857 0.7745919018445834 0.2500000000000000	-0.230078
N	0.5510167231434219 0.3804506021367743 0.2500000000000000	-0.229542
N	0.4482377251061841 0.7254080981554166 0.7500000160000013	-0.230168
N	0.0510167311434231 0.1195494138632270 0.7500000160000013	-0.229542
N	0.9482376611061857 0.2254080821554151 0.7500000160000013	-0.230079
N	0.5510167231434219 0.6195493978632255 0.7500000160000013	-0.229543
N	0.5517623388938143 0.2745919018445835 0.2500000000000000	-0.230079
N	0.9489832768565781 0.8804506021367745 0.2500000000000000	-0.229541
N	0.0517623028938109 0.7745919018445834 0.2500000000000000	-0.230078
N	0.4489832768565776 0.3804506021367743 0.2500000000000000	-0.229540
	  	
