#======================================================================

# CRYSTAL DATA

#----------------------------------------------------------------------

data_VESTA_phase_1


_pd_phase_name                         TIFSIX_14_Cu_i
_cell_length_a                         13.07287
_cell_length_b                         13.05842
_cell_length_c                         8.28962
_cell_angle_alpha                      89.45253
_cell_angle_beta                       89.38661
_cell_angle_gamma                      88.96340
_symmetry_space_group_name_H-M         P 1
_symmetry_Int_Tables_number            1

loop_
_symmetry_equiv_pos_as_xyz
   x, y, z

loop_
   _atom_site_label
   _atom_site_fract_x
   _atom_site_fract_y
   _atom_site_fract_z
   _atom_site_charge
C	0.5688154015507794 0.2653442515923546 0.3612475256347045	-0.175855
C	0.4628292856746177 0.2703377348507802 0.3660601587325562	0.107183
C	0.9421655281848207 0.2880693155762275 0.4153759317053629	-0.161420
C	0.0479197604524605 0.2807746896950977 0.4010348855023643	0.115889
C	0.2634763831602631 0.5687577246488227 0.3638539181383784	-0.176267
C	0.2683058131619014 0.4626093732424474 0.3686353443225393	0.107937
C	0.2959361230458310 0.9422471345830178 0.4109908454582558	-0.160713
C	0.2872654781074427 0.0480881617978513 0.3976529294446902	0.111718
C	0.9313711570245224 0.2371659953712811 0.1367068315186525	-0.175820
C	0.0373762234135529 0.2327023388620303 0.1316557431644777	0.106759
C	0.5578532653833244 0.2071618678775158 0.0862354642974740	-0.159379
C	0.4520927912794550 0.2150801570803355 0.1002247515343407	0.114508
C	0.2086211648566766 0.5578349983410597 0.0873614155468755	-0.163873
C	0.2167988710395485 0.4520068518565748 0.1010392846895073	0.113035
C	0.2340690898571677 0.9311915950110438 0.1383154719727827	-0.175618
C	0.2288171137406359 0.0373171728730841 0.1337904504428008	0.109256
C	0.4318860477000360 0.7357943090746238 0.6386148711505687	-0.173200
C	0.5378810437236717 0.7335877300777373 0.6322153153499667	0.107303
C	0.0572094679178252 0.7291513356934644 0.5770644739464983	-0.154179
C	0.9514125449788291 0.7309250107303957 0.5932948158976612	0.115961
C	0.7367072075148332 0.4317302587362392 0.6376200522731643	-0.174967
C	0.7342218717034644 0.5378690098591807 0.6316918069774754	0.108930
C	0.7170291938209926 0.0568894246746984 0.5814921226074140	-0.154592
C	0.7216936536696108 0.9509432045485058 0.5966338699358539	0.114250
C	0.0682227690271925 0.7615645360421153 0.8626672345122899	-0.173641
C	0.9622298739151379 0.7627838223978967 0.8691360516544857	0.106975
C	0.4430482465548954 0.7764301180243008 0.9214217155908709	-0.153611
C	0.5488558037237413 0.7737839014755367 0.9051652704743054	0.115861
C	0.7774619085816190 0.4428176183463208 0.9203107339611482	-0.156407
C	0.7736967160509610 0.5487602154356895 0.9048619582768055	0.115305
C	0.7656977992179618 0.0680482592292206 0.8608715135333309	-0.173324
C	0.7691180102080791 0.9619207433675798 0.8664819509908487	0.109208
C	0.6175414723236128 0.2343363855561857 0.2176440973931073	0.191216
C	0.8825781665891165 0.2642098245770803 0.2821995155977707	0.194062
C	0.2341126942906956 0.6175502045197695 0.2196405454494609	0.194785
C	0.2671634945947144 0.8824543816069464 0.2805804560354759	0.191973
C	0.3830995751732781 0.7572670300472759 0.7866795908517511	0.190337
C	0.1170579649318535 0.7447712507243516 0.7131764518656132	0.191674
C	0.7582629597157535 0.3828373241821642 0.7854645988670180	0.192613
C	0.7397173779371806 0.1169329295339584 0.7147962263123091	0.189423
H	0.6132098784616521 0.2816383338201964 0.4680146791423097	0.108529
H	0.4216376231070431 0.2923156138795021 0.4758208298130661	0.106652
H	0.9068776799316769 0.3109328914326324 0.5290982049642320	0.128978
H	0.0968735531259485 0.2978743315269022 0.5022884884117458	0.101755
H	0.2783559644466967 0.6131708998969038 0.4713363805464428	0.110981
H	0.2886539472009940 0.4213046600291397 0.4789433874919984	0.106009
H	0.3236780663146707 0.9071204615435225 0.5221142081450855	0.129589
H	0.3076862204444570 0.0970078286146551 0.4975425509604525	0.104369
H	0.8869597162562571 0.2235418464921210 0.0289236374914805	0.108652
H	0.0786389856559904 0.2136664889584524 0.0206264638128330	0.106469
H	0.5930910012155917 0.1810826927912391 0.9742057721321765	0.129260
H	0.4030690330208487 0.1955005926177913 0.0002261515924955	0.103132
H	0.1839513190785669 0.5930420590330713 0.9744996770612214	0.129536
H	0.1988142191919361 0.4031870000520540 0.9998235838417124	0.103038
H	0.2164700052381394 0.8867776009803173 0.0319949631134814	0.110420
H	0.2055222420730688 0.0785596380732297 0.0248683576932456	0.105700
H	0.3878817239964739 0.7237441638186100 0.5297997259005357	0.103516
H	0.5790908045206117 0.7178354521136372 0.5199693786080545	0.107554
H	0.0924868935895386 0.7157542351912486 0.4596964284582395	0.127669
H	0.9027375332316261 0.7180175643576274 0.4903407950388522	0.100395
H	0.7253937558846112 0.3877660193061621 0.5283704717591675	0.105201
H	0.7188399010321825 0.5792176493630022 0.5194848513198401	0.107258
H	0.6959053199653488 0.0921201954171530 0.4669666628653039	0.128021
H	0.7038876946619841 0.9023020342254802 0.4952964906878710	0.101169
H	0.1122020481583090 0.7708740980863835 0.9723185030248711	0.103123
H	0.9209451132399499 0.7748097542437031 0.9824182688042196	0.107518
H	0.4078875449588208 0.7934697445420228 0.0376550313769992	0.128075
H	0.5975850114938951 0.7896173626462043 0.0069752886831481	0.100715
H	0.7950247116551551 0.4075615299102348 0.0363287831943862	0.128088
H	0.7888095421535217 0.5973557924913366 0.0073910986610061	0.100794
H	0.7797854634430617 0.1119822839228823 0.9692066534276745	0.105217
H	0.7879928893178992 0.9206612562270627 0.9774357531619025	0.107879
N	0.7752831308829250 0.2738226881900137 0.3008830534379776	-0.102413
N	0.2780546004022867 0.7750230075533754 0.2978503223237478	-0.103300
N	0.7248871252625914 0.2242995262307060 0.1990612052806598	-0.102001
N	0.2235265586604983 0.7249227621886950 0.2023297301932276	-0.102311
N	0.2241247765886409 0.7390476321846090 0.6891766725481694	-0.101194
N	0.7313935446873404 0.2241202826299799 0.6925162873928129	-0.099091
N	0.2760059047854058 0.7636734651428281 0.8106138387822628	-0.100389
N	0.7660045422662333 0.2756905697587430 0.8078883078576184	-0.102113
N	0.4057067280554310 0.2465900405303067 0.2373560977824347	-0.213192
N	0.0944465458074334 0.2530935094566192 0.2619571367551818	-0.213861
N	0.2464008510884867 0.4053987811188902 0.2390515675618542	-0.213494
N	0.2540047122516577 0.0945822072457690 0.2616860259020125	-0.213741
N	0.5949884811946439 0.7523556133108789 0.7633342131099481	-0.212106
N	0.9051853111826470 0.7477993228946377 0.7366098966173563	-0.211838
N	0.7522290878054093 0.5950631916467203 0.7631462832911143	-0.212779
N	0.7475484802951202 0.9047047194701414 0.7365208140678055	-0.213225
F	0.3522775492635818 0.1432159988854502 0.7507087054995870	-0.645824
F	0.1492070358485544 0.3553737143093245 0.7495956107656048	-0.646254
F	0.3540408334454805 0.3483653529989195 0.7595868114019628	-0.654347
F	0.1472475710653257 0.1503661059167462 0.7412801596130216	-0.654312
F	0.6447782067050302 0.8536469687435901 0.2506935888481970	-0.642592
F	0.8538731792835602 0.6479181703579799 0.2486385698883198	-0.643262
F	0.6488943071850087 0.6491808595961692 0.2341179183699204	-0.650728
F	0.8494447712635992 0.8525221471047800 0.2655187194754306	-0.650130
F	0.2585515667026320 0.2564338278580191 0.5176182590708472	-0.646707
F	0.2428004844109119 0.2422951157540978 -0.0171574879970968	-0.646430
F	0.7401739997920660 0.7405493161919420 0.4817392390653388	-0.642494
F	0.7591110765342299 0.7602116252104745 0.0178533342292154	-0.642267
Ti	0.2507908854120517 0.2492136445270223 0.7502777144111459	2.324618
Ti	0.7492767896164217 0.7507942638952632 0.2497330874492583	2.317854
Cu	0.2500740100898001 0.2499951639091213 0.2501085458309378	0.718448
Cu	0.7501029593004108 0.7498703828629404 0.7498176783771241	0.712916
	  	
