#======================================================================

# CRYSTAL DATA

#----------------------------------------------------------------------

data_VESTA_phase_1


_pd_phase_name                         TIFSIX_6_Cd_i
_cell_length_a                         18.21092
_cell_length_b                         18.21092
_cell_length_c                         16.33849
_cell_angle_alpha                      90
_cell_angle_beta                       90
_cell_angle_gamma                      90
_symmetry_space_group_name_H-M         P 1
_symmetry_Int_Tables_number            1

loop_
_symmetry_equiv_pos_as_xyz
   x, y, z

loop_
   _atom_site_label
   _atom_site_fract_x
   _atom_site_fract_y
   _atom_site_fract_z
   _atom_site_charge
N	0.2434675338575321 0.1210013661778964 0.1279355795430756	-0.246644
N	0.2565324661424678 0.3789986478221046 0.1279355795430756	-0.246643
N	0.3789986478221046 0.2434675338575321 0.1279355795430756	-0.246643
N	0.1210013661778964 0.2565324661424678 0.1279355795430756	-0.246643
N	0.7565324391424690 0.6210013791779008 0.3720644054569270	-0.246644
N	0.7434675608575310 0.8789986208220991 0.3720644054569270	-0.246643
N	0.6210013791779009 0.7434675608575310 0.3720644054569270	-0.246643
N	0.8789986208220991 0.7565324391424690 0.3720644054569270	-0.246643
N	0.7565324391424690 0.8789986208220991 0.8720644054569262	-0.246643
N	0.7434675608575310 0.6210013791779009 0.8720644054569262	-0.246645
N	0.6210013791779009 0.7565324391424690 0.8720644054569262	-0.246644
N	0.8789986208220991 0.7434675608575310 0.8720644054569262	-0.246644
N	0.2434675338575321 0.3789986478221046 0.6279355945430738	-0.246644
N	0.2565324661424678 0.1210013661778964 0.6279355945430738	-0.246645
N	0.3789986478221046 0.2565324661424678 0.6279355945430738	-0.246644
N	0.1210013661778964 0.2434675338575321 0.6279355945430738	-0.246644
C	0.2026336876693142 0.0856921782558169 0.1841992624519347	0.103718
C	0.1945395946406122 0.0098096485223097 0.1836450972812184	-0.181023
C	0.2322941032408530 0.9680945313174926 0.1250675753002718	0.112400
C	0.2760621524560203 0.0055967354473113 0.0680965740122824	-0.178863
C	0.2790857663033043 0.0818395868699515 0.0704549489614518	0.104123
C	0.2265812947993405 0.8873373957891311 0.1238998127789179	0.061065
C	0.2894778688356162 0.8447100119586649 0.1209638712258037	-0.174681
C	0.2854628374228351 0.7672563393413422 0.1220115511840073	0.085449
C	0.1506426349107593 0.7774206731168757 0.1244983472302140	-0.123253
C	0.1565870153893117 0.8527037398017467 0.1267781437296680	-0.136321
C	0.2973662723306892 0.4143078347441808 0.1841992624519347	0.103717
C	0.3054603653593844 0.4901903324776924 0.1836450972812184	-0.181023
C	0.2677058967591469 0.5319054686825073 0.1250675753002718	0.112401
C	0.2239378605439774 0.4944032615526849 0.0680965740122824	-0.178864
C	0.2209142476966970 0.4181604201300527 0.0704549489614518	0.104121
C	0.2734187052006595 0.6126626042108689 0.1238998127789179	0.061065
C	0.2105221721643835 0.6552899880413351 0.1209638712258037	-0.174679
C	0.2145371355771664 0.7327436606586578 0.1220115511840073	0.085449
C	0.3493573510892396 0.7225793268831243 0.1244983472302140	-0.123254
C	0.3434129846106884 0.6472962601982533 0.1267781437296680	-0.136320
C	0.4143078347441808 0.2026336876693142 0.1841992624519347	0.103718
C	0.4901903324776924 0.1945395946406122 0.1836450972812184	-0.181023
C	0.5319054686825074 0.2322941032408530 0.1250675753002718	0.112400
C	0.4944032615526849 0.2760621524560203 0.0680965740122824	-0.178862
C	0.4181604201300527 0.2790857663033043 0.0704549489614518	0.104122
C	0.6126626042108689 0.2265812947993405 0.1238998127789179	0.061066
C	0.6552899880413351 0.2894778688356162 0.1209638712258037	-0.174680
C	0.7327436606586578 0.2854628374228351 0.1220115511840073	0.085449
C	0.7225793268831243 0.1506426349107593 0.1244983472302140	-0.123253
C	0.6472962601982533 0.1565870153893117 0.1267781437296680	-0.136320
C	0.0856921782558169 0.2973662723306892 0.1841992624519347	0.103718
C	0.0098096485223097 0.3054603653593844 0.1836450972812184	-0.181023
C	0.9680945313174926 0.2677058967591469 0.1250675753002718	0.112401
C	0.0055967354473113 0.2239378605439774 0.0680965740122824	-0.178865
C	0.0818395868699515 0.2209142476966970 0.0704549489614518	0.104123
C	0.8873373957891311 0.2734187052006595 0.1238998127789179	0.061065
C	0.8447100119586649 0.2105221721643835 0.1209638712258037	-0.174681
C	0.7672563393413422 0.2145371355771664 0.1220115511840073	0.085449
C	0.7774206731168757 0.3493573510892396 0.1244983472302140	-0.123254
C	0.8527037398017467 0.3434129846106884 0.1267781437296680	-0.136321
C	0.7973663253306831 0.5856921652558192 0.3158007535480669	0.103720
C	0.8054604183593852 0.5098096135223034 0.3163548717187826	-0.181022
C	0.7677058967591472 0.4680945313174930 0.3749323926997253	0.112401
C	0.7239378205439816 0.5055967924473126 0.4319034299877181	-0.178864
C	0.7209142076966936 0.5818396338699522 0.4295450910385445	0.104122
C	0.7734187852006589 0.3873374487891321 0.3761001792210814	0.061065
C	0.7105221581643822 0.3447099589586642 0.3790361207741958	-0.174680
C	0.7145371625771650 0.2672562593413429 0.3779884488159926	0.085449
C	0.8493573780892451 0.2774206461168775 0.3755016367697846	-0.123253
C	0.8434129316106876 0.3527037138017444 0.3732218882703344	-0.136322
C	0.7026336746693169 0.9143078347441808 0.3158007535480669	0.103717
C	0.6945395816406148 0.9901903324776922 0.3163548717187826	-0.181023
C	0.7322941032408528 0.0319054746825074 0.3749323926997253	0.112403
C	0.7760621794560184 0.9944032615526848 0.4319034299877181	-0.178863
C	0.7790857923033064 0.9181604731300531 0.4295450910385444	0.104121
C	0.7265812147993411 0.1126625782108665 0.3761001792210814	0.061066
C	0.7894778418356178 0.1552900280413310 0.3790361207741958	-0.174680
C	0.7854628374228350 0.2327437136586585 0.3779884488159926	0.085448
C	0.6506426219107549 0.2225793408831251 0.3755016367697846	-0.123254
C	0.6565870683893124 0.1472962601982533 0.3732218882703344	-0.136320
C	0.5856921652558192 0.7026336746693169 0.3158007535480669	0.103720
C	0.5098096135223034 0.6945395816406148 0.3163548717187826	-0.181024
C	0.4680945313174930 0.7322941032408528 0.3749323926997253	0.112402
C	0.5055967924473126 0.7760621794560184 0.4319034299877181	-0.178863
C	0.5818396338699522 0.7790857923033064 0.4295450910385445	0.104122
C	0.3873374487891321 0.7265812147993411 0.3761001792210814	0.061065
C	0.3447099589586642 0.7894778418356178 0.3790361207741958	-0.174680
C	0.2672562593413429 0.7854628374228350 0.3779884488159926	0.085449
C	0.2774206461168775 0.6506426219107549 0.3755016367697846	-0.123253
C	0.3527037138017444 0.6565870683893124 0.3732218882703344	-0.136321
C	0.9143078347441808 0.7973663253306831 0.3158007535480669	0.103718
C	0.9901903324776922 0.8054604183593852 0.3163548717187826	-0.181021
C	0.0319054746825074 0.7677058967591472 0.3749323926997253	0.112401
C	0.9944032615526848 0.7239378205439816 0.4319034299877181	-0.178864
C	0.9181604731300531 0.7209142076966936 0.4295450910385445	0.104122
C	0.1126625782108665 0.7734187852006589 0.3761001792210814	0.061066
C	0.1552900280413310 0.7105221581643822 0.3790361207741958	-0.174679
C	0.2327437136586585 0.7145371625771650 0.3779884488159926	0.085449
C	0.2225793408831251 0.8493573780892451 0.3755016367697846	-0.123254
C	0.1472962601982533 0.8434129316106876 0.3732218882703344	-0.136320
C	0.7973663253306831 0.9143078347441808 0.8158007215480644	0.103718
C	0.8054604183593852 0.9901903324776922 0.8163549347187840	-0.181022
C	0.7677058967591472 0.0319054746825074 0.8749324566997241	0.112402
C	0.7239378205439816 0.9944032615526848 0.9319033989877193	-0.178864
C	0.7209142076966936 0.9181604731300531 0.9295450590385415	0.104120
C	0.7734187852006589 0.1126625782108665 0.8761001792210812	0.061065
C	0.7105221581643822 0.1552900280413310 0.8790361527741982	-0.174679
C	0.7145371625771650 0.2327437136586585 0.8779884808159881	0.085449
C	0.8493573780892451 0.2225793408831251 0.8755016997697866	-0.123254
C	0.8434129316106876 0.1472962601982533 0.8732219202703294	-0.136320
C	0.7026336746693169 0.5856921652558192 0.8158007215480644	0.103719
C	0.6945395816406148 0.5098096135223034 0.8163549347187840	-0.181023
C	0.7322941032408528 0.4680945313174930 0.8749324566997241	0.112400
C	0.7760621794560184 0.5055967924473126 0.9319033989877193	-0.178863
C	0.7790857923033064 0.5818396338699522 0.9295450590385415	0.104122
C	0.7265812147993411 0.3873374487891321 0.8761001792210812	0.061066
C	0.7894778418356178 0.3447099589586642 0.8790361527741982	-0.174681
C	0.7854628374228350 0.2672562593413429 0.8779884808159881	0.085449
C	0.6506426219107549 0.2774206461168775 0.8755016997697866	-0.123253
C	0.6565870683893124 0.3527037138017444 0.8732219202703294	-0.136321
C	0.5856921652558192 0.7973663253306831 0.8158007215480644	0.103719
C	0.5098096135223034 0.8054604183593852 0.8163549347187840	-0.181022
C	0.4680945313174930 0.7677058967591472 0.8749324566997241	0.112402
C	0.5055967924473126 0.7239378205439816 0.9319033989877193	-0.178865
C	0.5818396338699522 0.7209142076966936 0.9295450590385415	0.104122
C	0.3873374487891321 0.7734187852006589 0.8761001792210812	0.061065
C	0.3447099589586642 0.7105221581643822 0.8790361527741982	-0.174680
C	0.2672562593413429 0.7145371625771650 0.8779884808159881	0.085449
C	0.2774206461168775 0.8493573780892451 0.8755016997697866	-0.123254
C	0.3527037138017444 0.8434129316106876 0.8732219202703294	-0.136321
C	0.9143078347441808 0.7026336746693169 0.8158007215480644	0.103719
C	0.9901903324776922 0.6945395816406148 0.8163549347187840	-0.181022
C	0.0319054746825074 0.7322941032408528 0.8749324566997241	0.112401
C	0.9944032615526848 0.7760621794560184 0.9319033989877193	-0.178863
C	0.9181604731300531 0.7790857923033064 0.9295450590385415	0.104121
C	0.1126625782108665 0.7265812147993411 0.8761001792210812	0.061066
C	0.1552900280413310 0.7894778418356178 0.8790361527741982	-0.174679
C	0.2327437136586585 0.7854628374228350 0.8779884808159881	0.085449
C	0.2225793408831251 0.6506426219107549 0.8755016997697866	-0.123253
C	0.1472962601982533 0.6565870683893124 0.8732219202703294	-0.136320
C	0.2026336876693142 0.4143078347441808 0.6841992784519356	0.103716
C	0.1945395946406122 0.4901903324776924 0.6836450652812160	-0.181023
C	0.2322941032408530 0.5319054686825074 0.6250675433002759	0.112401
C	0.2760621524560203 0.4944032615526849 0.5680966010122807	-0.178863
C	0.2790857663033043 0.4181604201300527 0.5704549409614585	0.104121
C	0.2265812947993405 0.6126626042108689 0.6238998207789188	0.061065
C	0.2894778688356162 0.6552899880413351 0.6209638472258018	-0.174680
C	0.2854628374228351 0.7327436606586578 0.6220115191840119	0.085449
C	0.1506426349107593 0.7225793268831243 0.6244983002302134	-0.123253
C	0.1565870153893117 0.6472962601982533 0.6267780797296706	-0.136319
C	0.2973662723306892 0.0856921782558169 0.6841992784519356	0.103719
C	0.3054603653593844 0.0098096485223097 0.6836450652812160	-0.181022
C	0.2677058967591469 0.9680945313174926 0.6250675433002759	0.112399
C	0.2239378605439774 0.0055967354473113 0.5680966010122807	-0.178864
C	0.2209142476966970 0.0818395868699515 0.5704549409614585	0.104122
C	0.2734187052006595 0.8873373957891311 0.6238998207789188	0.061065
C	0.2105221721643835 0.8447100119586649 0.6209638472258018	-0.174680
C	0.2145371355771664 0.7672563393413422 0.6220115191840119	0.085449
C	0.3493573510892396 0.7774206731168757 0.6244983002302134	-0.123253
C	0.3434129846106884 0.8527037398017467 0.6267780797296706	-0.136322
C	0.4143078347441808 0.2973662723306892 0.6841992784519356	0.103717
C	0.4901903324776924 0.3054603653593844 0.6836450652812160	-0.181021
C	0.5319054686825074 0.2677058967591469 0.6250675433002759	0.112399
C	0.4944032615526849 0.2239378605439774 0.5680966010122807	-0.178864
C	0.4181604201300527 0.2209142476966970 0.5704549409614585	0.104122
C	0.6126626042108689 0.2734187052006595 0.6238998207789188	0.061066
C	0.6552899880413351 0.2105221721643835 0.6209638472258018	-0.174680
C	0.7327436606586578 0.2145371355771664 0.6220115191840119	0.085449
C	0.7225793268831243 0.3493573510892396 0.6244983002302134	-0.123253
C	0.6472962601982533 0.3434129846106884 0.6267780797296706	-0.136320
C	0.0856921782558169 0.2026336876693142 0.6841992784519356	0.103719
C	0.0098096485223097 0.1945395946406122 0.6836450652812160	-0.181024
C	0.9680945313174926 0.2322941032408530 0.6250675433002759	0.112401
C	0.0055967354473113 0.2760621524560203 0.5680966010122807	-0.178863
C	0.0818395868699515 0.2790857663033043 0.5704549409614585	0.104122
C	0.8873373957891311 0.2265812947993405 0.6238998207789188	0.061065
C	0.8447100119586649 0.2894778688356162 0.6209638472258018	-0.174681
C	0.7672563393413422 0.2854628374228351 0.6220115191840119	0.085449
C	0.7774206731168757 0.1506426349107593 0.6244983002302134	-0.123253
C	0.8527037398017467 0.1565870153893117 0.6267780797296706	-0.136321
H	0.1768270601043640 0.1195491499921512 0.2313969142300165	0.103649
H	0.1608814751087806 0.9830535672562912 0.2300353779318180	0.115157
H	0.3058117993683270 0.9756220563665985 0.0208235551804645	0.115438
H	0.3096854381273637 0.1130681385749066 0.0245959806050514	0.103343
H	0.3434186735466642 0.8707634101221140 0.1204238353223616	0.108885
H	0.0967112473327530 0.7511454278721172 0.1250690520242907	0.109122
H	0.1075450175633335 0.8870321302164775 0.1288982463696030	0.101383
H	0.3231729128956374 0.3804508770078545 0.2313969142300165	0.103648
H	0.3391185648912157 0.5169464327437088 0.2300353779318180	0.115156
H	0.1941882136316707 0.5243779436334015 0.0208235551804645	0.115439
H	0.1903145618726363 0.3869318614250934 0.0245959806050514	0.103343
H	0.1565813404533370 0.6292365898778860 0.1204238353223616	0.108884
H	0.4032887456672429 0.7488545721278828 0.1250690520242907	0.109122
H	0.3924549954366712 0.6129678697835225 0.1288982463696030	0.101383
H	0.3804508770078545 0.1768270601043640 0.2313969142300165	0.103648
H	0.5169464327437088 0.1608814751087806 0.2300353779318180	0.115158
H	0.5243779436334015 0.3058117993683270 0.0208235551804645	0.115438
H	0.3869318614250934 0.3096854381273637 0.0245959806050515	0.103343
H	0.6292365898778860 0.3434186735466642 0.1204238353223616	0.108885
H	0.7488545721278828 0.0967112473327530 0.1250690520242907	0.109121
H	0.6129678697835225 0.1075450175633335 0.1288982463696030	0.101383
H	0.1195491499921512 0.3231729128956374 0.2313969142300165	0.103649
H	0.9830535672562912 0.3391185648912157 0.2300353779318180	0.115156
H	0.9756220563665985 0.1941882136316707 0.0208235551804645	0.115438
H	0.1130681385749066 0.1903145618726363 0.0245959806050514	0.103343
H	0.8707634101221140 0.1565813404533370 0.1204238353223616	0.108883
H	0.7511454278721172 0.4032887456672429 0.1250690520242907	0.109123
H	0.8870321302164775 0.3924549954366712 0.1288982463696030	0.101383
H	0.8231729128956373 0.6195491769921501 0.2686031017699850	0.103649
H	0.8391184838912197 0.4830536212562890 0.2699646220681819	0.115155
H	0.6941882006316730 0.4756220563665981 0.4791764468195355	0.115438
H	0.6903146148726370 0.6130681655749052 0.4754040173949483	0.103343
H	0.6565813264533360 0.3707633561221169 0.3795761726776390	0.108884
H	0.9032886926672415 0.2511454548721153 0.3749309399757084	0.109123
H	0.8924549684366722 0.3870321562164730 0.3711017616303975	0.101384
H	0.6768270871043627 0.8804508230078499 0.2686031017699850	0.103649
H	0.6608815161087803 0.0169463947437052 0.2699646220681819	0.115155
H	0.8058117993683270 0.0243779426333982 0.4791764468195354	0.115438
H	0.8096853851273630 0.8869318344250948 0.4754040173949483	0.103342
H	0.8434186735466640 0.1292366568778877 0.3795761726776390	0.108885
H	0.5967112543327576 0.2488545181278788 0.3749309399757084	0.109121
H	0.6075450315633278 0.1129678567835244 0.3711017616303975	0.101381
H	0.6195491769921501 0.6768270871043627 0.2686031017699850	0.103649
H	0.4830536212562890 0.6608815161087803 0.2699646220681819	0.115155
H	0.4756220563665981 0.8058117993683270 0.4791764468195354	0.115437
H	0.6130681655749052 0.8096853851273630 0.4754040173949483	0.103343
H	0.3707633561221169 0.8434186735466640 0.3795761726776390	0.108885
H	0.2511454548721153 0.5967112543327576 0.3749309399757084	0.109121
H	0.3870321562164730 0.6075450315633278 0.3711017616303975	0.101382
H	0.8804508230078499 0.8231729128956373 0.2686031017699850	0.103649
H	0.0169463947437052 0.8391184838912197 0.2699646220681819	0.115154
H	0.0243779426333982 0.6941882006316730 0.4791764468195354	0.115439
H	0.8869318344250948 0.6903146148726370 0.4754040173949483	0.103342
H	0.1292366568778877 0.6565813264533360 0.3795761726776390	0.108884
H	0.2488545181278788 0.9032886926672415 0.3749309399757084	0.109122
H	0.1129678567835244 0.8924549684366722 0.3711017616303975	0.101384
H	0.8231729128956373 0.8804508230078499 0.7686030707699862	0.103649
H	0.8391184838912197 0.0169463947437052 0.7699646370681865	0.115155
H	0.6941882006316730 0.0243779426333982 0.9791764778195347	0.115438
H	0.6903146148726370 0.8869318344250948 0.9754039533949501	0.103343
H	0.6565813264533360 0.1292366568778877 0.8795761406776367	0.108884
H	0.9032886926672415 0.2488545181278788 0.8749308769757066	0.109123
H	0.8924549684366722 0.1129678567835244 0.8711017296303950	0.101383
H	0.6768270871043627 0.6195491769921501 0.7686030707699862	0.103650
H	0.6608815161087803 0.4830536212562890 0.7699646370681865	0.115155
H	0.8058117993683270 0.4756220563665981 0.9791764778195347	0.115438
H	0.8096853851273630 0.6130681655749052 0.9754039533949501	0.103343
H	0.8434186735466640 0.3707633561221169 0.8795761406776367	0.108884
H	0.5967112543327576 0.2511454548721153 0.8749308769757066	0.109120
H	0.6075450315633278 0.3870321562164730 0.8711017296303950	0.101383
H	0.6195491769921501 0.8231729128956373 0.7686030707699862	0.103650
H	0.4830536212562890 0.8391184838912197 0.7699646370681865	0.115154
H	0.4756220563665981 0.6941882006316730 0.9791764778195347	0.115438
H	0.6130681655749052 0.6903146148726370 0.9754039533949501	0.103343
H	0.3707633561221169 0.6565813264533360 0.8795761406776367	0.108884
H	0.2511454548721153 0.9032886926672415 0.8749308769757066	0.109123
H	0.3870321562164730 0.8924549684366722 0.8711017296303950	0.101383
H	0.8804508230078499 0.6768270871043627 0.7686030707699862	0.103649
H	0.0169463947437052 0.6608815161087803 0.7699646370681865	0.115156
H	0.0243779426333982 0.8058117993683270 0.9791764778195347	0.115438
H	0.8869318344250948 0.8096853851273630 0.9754039533949501	0.103343
H	0.1292366568778877 0.8434186735466640 0.8795761406776367	0.108885
H	0.2488545181278788 0.5967112543327576 0.8749308769757066	0.109120
H	0.1129678567835244 0.6075450315633278 0.8711017296303950	0.101383
H	0.1768270601043640 0.3804508770078545 0.7313969292300138	0.103649
H	0.1608814751087806 0.5169464327437088 0.7300353629318135	0.115157
H	0.3058117993683270 0.5243779436334015 0.5208235531804644	0.115438
H	0.3096854381273637 0.3869318614250934 0.5245959826050517	0.103343
H	0.3434186735466642 0.6292365898778860 0.6204238593223633	0.108886
H	0.0967112473327530 0.7488545721278828 0.6250691230242934	0.109121
H	0.1075450175633335 0.6129678697835225 0.6288982703696050	0.101382
H	0.3231729128956374 0.1195491499921512 0.7313969292300138	0.103649
H	0.3391185648912157 0.9830535672562912 0.7300353629318135	0.115157
H	0.1941882136316707 0.9756220563665985 0.5208235531804644	0.115439
H	0.1903145618726363 0.1130681385749066 0.5245959826050517	0.103344
H	0.1565813404533370 0.8707634101221140 0.6204238593223633	0.108883
H	0.4032887456672429 0.7511454278721172 0.6250691230242934	0.109122
H	0.3924549954366712 0.8870321302164775 0.6288982703696050	0.101385
H	0.3804508770078545 0.3231729128956374 0.7313969292300138	0.103649
H	0.5169464327437088 0.3391185648912157 0.7300353629318135	0.115157
H	0.5243779436334015 0.1941882136316707 0.5208235531804644	0.115439
H	0.3869318614250934 0.1903145618726363 0.5245959826050517	0.103343
H	0.6292365898778860 0.1565813404533370 0.6204238593223633	0.108885
H	0.7488545721278828 0.4032887456672429 0.6250691230242934	0.109123
H	0.6129678697835225 0.3924549954366712 0.6288982703696050	0.101384
H	0.1195491499921512 0.1768270601043640 0.7313969292300138	0.103649
H	0.9830535672562912 0.1608814751087806 0.7300353629318135	0.115158
H	0.9756220563665985 0.3058117993683270 0.5208235531804644	0.115438
H	0.1130681385749066 0.3096854381273637 0.5245959826050517	0.103343
H	0.8707634101221140 0.3434186735466642 0.6204238593223633	0.108884
H	0.7511454278721172 0.0967112473327530 0.6250691230242934	0.109121
H	0.8870321302164775 0.1075450175633335 0.6288982703696050	0.101383
F	0.3127806842421999 0.1667967070143088 0.3783077857696298	-0.676067
F	0.1872193427577989 0.3332032929856912 0.3783077857696298	-0.676065
F	0.3332032929856912 0.3127806842421999 0.3783077857696298	-0.676066
F	0.1667967070143089 0.1872193427577989 0.3783077857696298	-0.676066
F	0.6872193157578003 0.6667966530143112 0.1216922142303702	-0.676066
F	0.8127806842421997 0.8332033469856888 0.1216922142303702	-0.676066
F	0.6667966530143112 0.8127806842421997 0.1216922142303702	-0.676065
F	0.8332033469856888 0.6872193157578003 0.1216922142303702	-0.676067
F	0.6872193157578003 0.8332033469856888 0.6216921822303675	-0.676065
F	0.8127806842421997 0.6667966530143112 0.6216921822303675	-0.676067
F	0.6667966530143112 0.6872193157578003 0.6216921822303675	-0.676066
F	0.8332033469856888 0.8127806842421997 0.6216921822303675	-0.676066
F	0.3127806842421999 0.3332032929856912 0.8783078177696325	-0.676066
F	0.1872193427577989 0.1667967070143089 0.8783078177696325	-0.676066
F	0.3332032929856912 0.1872193427577989 0.8783078177696325	-0.676067
F	0.1667967070143089 0.3127806842421999 0.8783078177696325	-0.676065
F	0.2500000000000000 0.2500000000000000 0.2614074573386607	-0.627531
F	0.2500000000000000 0.2500000000000000 0.4950360654345054	-0.628074
F	0.7500000000000000 0.7500000000000000 0.2385925586613404	-0.627531
F	0.7500000000000000 0.7500000000000000 0.0049639415654989	-0.628074
F	0.7500000000000000 0.7500000000000000 0.7385925106613365	-0.627532
F	0.7500000000000000 0.7500000000000000 0.5049639665654974	-0.628074
F	0.2500000000000000 0.2500000000000000 0.7614074893386634	-0.627532
F	0.2500000000000000 0.2500000000000000 -0.0049639665654973	-0.628074
Cd	0.2500000000000000 0.2500000000000000 0.1283259161758527	0.860666
Cd	0.7500000000000000 0.7500000000000000 0.3716740998241485	0.860666
Cd	0.7500000000000000 0.7500000000000000 0.8716740688241498	0.860668
Cd	0.2500000000000000 0.2500000000000000 0.6283259311758502	0.860668
Ti	0.2500000000000000 0.2500000000000000 0.3782431352082477	2.367417
Ti	0.7500000000000000 0.7500000000000000 0.1217568727917530	2.367417
Ti	0.7500000000000000 0.7500000000000000 0.6217568337917536	2.367417
Ti	0.2500000000000000 0.2500000000000000 0.8782431662082464	2.367417
	  	
