#======================================================================

# CRYSTAL DATA

#----------------------------------------------------------------------

data_VESTA_phase_1


_pd_phase_name                         TIFSIX_15_Co_i
_cell_length_a                         29.59598
_cell_length_b                         28.73187
_cell_length_c                         8.11156
_cell_angle_alpha                      90
_cell_angle_beta                       90
_cell_angle_gamma                      90
_symmetry_space_group_name_H-M         P 1
_symmetry_Int_Tables_number            1

loop_
_symmetry_equiv_pos_as_xyz
   x, y, z

loop_
   _atom_site_label
   _atom_site_fract_x
   _atom_site_fract_y
   _atom_site_fract_z
   _atom_site_charge
C	0.9352471389749775 0.1044393620732513 0.8931295981798654	0.100709
C	0.9029292997212348 0.0695335479317991 0.8986749246493357	-0.161113
C	0.7701136885151105 0.9364421755946520 0.9003811056628125	-0.113410
C	0.7355471440204702 0.9039506764841471 0.9001464482945325	-0.115572
C	0.5662292753946657 0.7397794760105287 0.8930058088834633	0.098236
C	0.6002464775579935 0.7729243994668366 0.8983193259609973	-0.165865
C	0.4352471709749732 0.6044393780732530 0.8931295981798654	0.100707
C	0.4029293317212375 0.5695335109318000 0.8986749246493357	-0.161115
C	0.2701136245151128 0.4364422085946514 0.9003811056628125	-0.113410
C	0.2355471120204674 0.4039507424841522 0.9001464482945325	-0.115573
C	0.0662292993946675 0.2397794590105307 0.8930058088834633	0.098236
C	0.1002464535579915 0.2729244324668351 0.8983193259609973	-0.165866
C	0.0647528290250268 0.8955606219267470 0.3931296291798647	0.100721
C	0.0970706762787630 0.9304664890682000 0.3986749566493308	-0.161115
C	0.2298863274848906 0.0635577874053481 0.4003811676628110	-0.113410
C	0.2644528719795312 0.0960492735158491 0.4001464482945328	-0.115573
C	0.4337706926053320 0.2602205739894684 0.3930058398834626	0.098236
C	0.3997535224420066 0.2270755675331647 0.3983193259609972	-0.165865
C	0.5647528610250225 0.3955606549267467 0.3931296291798647	0.100709
C	0.5970707002787652 0.4304664890682005 0.3986749566493308	-0.161114
C	0.7298863114848895 0.5635578244053480 0.4003811676628110	-0.113409
C	0.7644528559795298 0.5960493235158529 0.4001464482945328	-0.115573
C	0.9337707246053343 0.7602205239894713 0.3930058398834626	0.098236
C	0.8997535224420065 0.7270756005331634 0.3983193259609972	-0.165865
C	0.0647528290250268 0.1044393620732513 0.6068703708201356	0.100720
C	0.0970706762787630 0.0695335479317991 0.6013249813506636	-0.161114
C	0.2298863274848906 0.9364421755946520 0.5996188633371885	-0.113410
C	0.2644528719795312 0.9039506764841471 0.5998535827054665	-0.115573
C	0.4337706926053320 0.7397794760105287 0.6069940971165361	0.098237
C	0.3997535224420066 0.7729243994668366 0.6016806430390037	-0.165865
C	0.5647528610250225 0.6044393780732530 0.6068703708201356	0.100709
C	0.5970707002787652 0.5695335109318000 0.6013249813506636	-0.161113
C	0.7298863114848895 0.4364422085946514 0.5996188633371885	-0.113410
C	0.7644528559795298 0.4039507424841522 0.5998535827054665	-0.115573
C	0.9337707246053343 0.2397794590105307 0.6069940971165361	0.098237
C	0.8997535224420065 0.2729244324668351 0.6016806430390037	-0.165865
C	0.9352471389749775 0.8955606219267470 0.1068703868201369	0.100710
C	0.9029292997212348 0.9304664890682000 0.1013250203506636	-0.161113
C	0.7701136885151105 0.0635577874053481 0.0996188633371882	-0.113409
C	0.7355471440204702 0.0960492735158491 0.0998535677054617	-0.115573
C	0.5662292753946657 0.2602205739894684 0.1069941521165367	0.098236
C	0.6002464775579935 0.2270755675331647 0.1016806890390006	-0.165864
C	0.4352471709749732 0.3955606549267467 0.1068703868201369	0.100708
C	0.4029293317212375 0.4304664890682005 0.1013250203506636	-0.161116
C	0.2701136245151128 0.5635578244053480 0.0996188633371882	-0.113409
C	0.2355471120204674 0.5960493235158529 0.0998535677054617	-0.115573
C	0.0662292993946675 0.7602205239894713 0.1069941521165367	0.098236
C	0.1002464535579915 0.7270756005331634 0.1016806890390006	-0.165865
C	0.0647528290250268 0.8955606219267470 0.1068703868201369	0.100721
C	0.0970706762787630 0.9304664890682000 0.1013250203506636	-0.161115
C	0.2298863274848906 0.0635577874053481 0.0996188633371882	-0.113409
C	0.2644528719795312 0.0960492735158491 0.0998535677054617	-0.115573
C	0.4337706926053320 0.2602205739894684 0.1069941521165367	0.098236
C	0.3997535224420066 0.2270755675331647 0.1016806890390006	-0.165865
C	0.5647528610250225 0.3955606549267467 0.1068703868201369	0.100709
C	0.5970707002787652 0.4304664890682005 0.1013250203506636	-0.161114
C	0.7298863114848895 0.5635578244053480 0.0996188633371882	-0.113409
C	0.7644528559795298 0.5960493235158529 0.0998535677054617	-0.115573
C	0.9337707246053343 0.7602205239894713 0.1069941521165367	0.098236
C	0.8997535224420065 0.7270756005331634 0.1016806890390006	-0.165865
C	0.9352471389749775 0.1044393620732513 0.6068703708201356	0.100709
C	0.9029292997212348 0.0695335479317991 0.6013249813506636	-0.161113
C	0.7701136885151105 0.9364421755946520 0.5996188633371885	-0.113410
C	0.7355471440204702 0.9039506764841471 0.5998535827054665	-0.115573
C	0.5662292753946657 0.7397794760105287 0.6069940971165361	0.098237
C	0.6002464775579935 0.7729243994668366 0.6016806430390037	-0.165865
C	0.4352471709749732 0.6044393780732530 0.6068703708201356	0.100707
C	0.4029293317212375 0.5695335109318000 0.6013249813506636	-0.161115
C	0.2701136245151128 0.4364422085946514 0.5996188633371885	-0.113410
C	0.2355471120204674 0.4039507424841522 0.5998535827054665	-0.115573
C	0.0662292993946675 0.2397794590105307 0.6069940971165361	0.098237
C	0.1002464535579915 0.2729244324668351 0.6016806430390037	-0.165866
C	0.9352471389749775 0.8955606219267470 0.3931296291798647	0.100710
C	0.9029292997212348 0.9304664890682000 0.3986749566493308	-0.161113
C	0.7701136885151105 0.0635577874053481 0.4003811676628110	-0.113409
C	0.7355471440204702 0.0960492735158491 0.4001464482945328	-0.115574
C	0.5662292753946657 0.2602205739894684 0.3930058398834626	0.098236
C	0.6002464775579935 0.2270755675331647 0.3983193259609972	-0.165865
C	0.4352471709749732 0.3955606549267467 0.3931296291798647	0.100707
C	0.4029293317212375 0.4304664890682005 0.3986749566493308	-0.161116
C	0.2701136245151128 0.5635578244053480 0.4003811676628110	-0.113409
C	0.2355471120204674 0.5960493235158529 0.4001464482945328	-0.115574
C	0.0662292993946675 0.7602205239894713 0.3930058398834626	0.098236
C	0.1002464535579915 0.7270756005331634 0.3983193259609972	-0.165865
C	0.0647528290250268 0.1044393620732513 0.8931295981798654	0.100720
C	0.0970706762787630 0.0695335479317991 0.8986749246493357	-0.161114
C	0.2298863274848906 0.9364421755946520 0.9003811056628125	-0.113410
C	0.2644528719795312 0.9039506764841471 0.9001464482945325	-0.115573
C	0.4337706926053320 0.7397794760105287 0.8930058088834633	0.098237
C	0.3997535224420066 0.7729243994668366 0.8983193259609973	-0.165865
C	0.5647528610250225 0.6044393780732530 0.8931295981798654	0.100709
C	0.5970707002787652 0.5695335109318000 0.8986749246493357	-0.161113
C	0.7298863114848895 0.4364422085946514 0.9003811056628125	-0.113410
C	0.7644528559795298 0.4039507424841522 0.9001464482945325	-0.115573
C	0.9337707246053343 0.2397794590105307 0.8930058088834633	0.098237
C	0.8997535224420065 0.2729244324668351 0.8983193259609973	-0.165865
C	0.6527239566283020 0.8244459161122498 0.7500000160000013	-0.104404
C	0.8859243496961937 0.0512543916040815 0.7500000160000013	0.160074
C	0.8228193169636551 0.9866683438730727 0.7500000160000013	-0.099077
C	0.6181747294615851 0.7905118555037408 0.7500000160000013	0.166138
C	0.7879142350844278 0.9531716529372937 0.7500000160000013	0.125269
C	0.7176825642333381 0.8870912198492693 0.7500000160000013	0.137651
C	0.6826827041741779 0.8536637024849492 0.7500000160000013	-0.098296
C	0.8524574595558946 0.0162253279332186 0.7500000160000013	-0.104420
C	0.1527239406283009 0.3244459161122499 0.7500000160000013	-0.104404
C	0.3859242536961929 0.5512544036040824 0.7500000160000013	0.160075
C	0.3228193169636554 0.4866683438730726 0.7500000160000013	-0.099077
C	0.1181747214615842 0.2905118555037408 0.7500000160000013	0.166138
C	0.2879142030844319 0.4531716529372936 0.7500000160000013	0.125269
C	0.2176825482333366 0.3870912528492690 0.7500000160000013	0.137651
C	0.1826826711741786 0.3536636694849500 0.7500000160000013	-0.098296
C	0.3524574275558921 0.5162253229332151 0.7500000160000013	-0.104420
C	0.3472760753717004 0.1755540838877500 0.2500000000000000	-0.104404
C	0.1140757223038123 0.9487455963959176 0.2500000000000000	0.160076
C	0.1771806830363448 0.0133316521269270 0.2500000000000000	-0.099076
C	0.3818252705384151 0.2094881284962579 0.2500000000000000	0.166137
C	0.2120857809155737 0.0468283390627059 0.2500000000000000	0.125269
C	0.2823174357666623 0.1129087391507306 0.2500000000000000	0.137651
C	0.3173173288258215 0.1463362975150508 0.2500000000000000	-0.098295
C	0.1475425724441079 0.9837746440667857 0.2500000000000000	-0.104421
C	0.8472760433716980 0.6755540838877502 0.2500000000000000	-0.104403
C	0.6140756503038063 0.4487456293959166 0.2500000000000000	0.160074
C	0.6771806830363449 0.5133316561269273 0.2500000000000000	-0.099076
C	0.8818252705384149 0.7094881444962592 0.2500000000000000	0.166137
C	0.7120857649155722 0.5468283800627055 0.2500000000000000	0.125269
C	0.7823174357666619 0.6129087801507307 0.2500000000000000	0.137651
C	0.8173172958258221 0.6463362975150508 0.2500000000000000	-0.098296
C	0.6475425404441054 0.4837746440667862 0.2500000000000000	-0.104421
C	0.3472760753717004 0.8244459161122498 0.7500000160000013	-0.104404
C	0.1140757223038123 0.0512543916040815 0.7500000160000013	0.160076
C	0.1771806830363448 0.9866683438730727 0.7500000160000013	-0.099077
C	0.3818252705384151 0.7905118555037408 0.7500000160000013	0.166138
C	0.2120857809155737 0.9531716529372937 0.7500000160000013	0.125269
C	0.2823174357666623 0.8870912198492693 0.7500000160000013	0.137651
C	0.3173173288258215 0.8536637024849492 0.7500000160000013	-0.098296
C	0.1475425724441079 0.0162253279332186 0.7500000160000013	-0.104420
C	0.8472760433716980 0.3244459161122499 0.7500000160000013	-0.104404
C	0.6140756503038063 0.5512544036040824 0.7500000160000013	0.160074
C	0.6771806830363449 0.4866683438730726 0.7500000160000013	-0.099077
C	0.8818252705384149 0.2905118555037408 0.7500000160000013	0.166138
C	0.7120857649155722 0.4531716529372936 0.7500000160000013	0.125269
C	0.7823174357666619 0.3870912528492690 0.7500000160000013	0.137651
C	0.8173172958258221 0.3536636694849500 0.7500000160000013	-0.098296
C	0.6475425404441054 0.5162253229332151 0.7500000160000013	-0.104420
C	0.6527239566283020 0.1755540838877500 0.2500000000000000	-0.104404
C	0.8859243496961937 0.9487455963959176 0.2500000000000000	0.160074
C	0.8228193169636551 0.0133316521269270 0.2500000000000000	-0.099076
C	0.6181747294615851 0.2094881284962579 0.2500000000000000	0.166137
C	0.7879142350844278 0.0468283390627059 0.2500000000000000	0.125269
C	0.7176825642333381 0.1129087391507306 0.2500000000000000	0.137651
C	0.6826827041741779 0.1463362975150508 0.2500000000000000	-0.098296
C	0.8524574595558946 0.9837746440667857 0.2500000000000000	-0.104421
C	0.1527239406283009 0.6755540838877502 0.2500000000000000	-0.104404
C	0.3859242536961929 0.4487456293959166 0.2500000000000000	0.160076
C	0.3228193169636554 0.5133316561269273 0.2500000000000000	-0.099076
C	0.1181747214615842 0.7094881444962592 0.2500000000000000	0.166137
C	0.2879142030844319 0.5468283800627055 0.2500000000000000	0.125269
C	0.2176825482333366 0.6129087801507307 0.2500000000000000	0.137651
C	0.1826826711741786 0.6463362975150508 0.2500000000000000	-0.098296
C	0.3524574275558921 0.4837746440667862 0.2500000000000000	-0.104421
H	0.9487284505542064 0.1190768915678860 0.0063924087180918	0.099573
H	0.8910424787563751 0.0567387991834462 0.0174360335298307	0.123603
H	0.7839951607116012 0.9494877673513644 0.0158780139241895	0.105757
H	0.7217305802593078 0.8909286697416737 0.0156303534472055	0.115309
H	0.5520360417742566 0.7259402519152252 0.0063642849563330	0.099046
H	0.6127054196760424 0.7849394661737187 0.0171728400632236	0.129018
H	0.4487285465542067 0.6190769075678875 0.0063924087180918	0.099571
H	0.3910424147563770 0.5567388281834520 0.0174360335298307	0.123603
H	0.2839951607116015 0.4494877673513646 0.0158780139241895	0.105757
H	0.2217305962593091 0.3909287687416781 0.0156303534472055	0.115309
H	0.0520360497742575 0.2259403009152256 0.0063642849563330	0.099047
H	0.1127054356760368 0.2849394001737206 0.0171728400632236	0.129018
H	0.0512714894457889 0.8809230924321125 0.5063924377180906	0.099570
H	0.1089575692436217 0.9432611718165480 0.5174360685298298	0.123603
H	0.2160048712884012 0.0505122496486403 0.5158780459241920	0.105757
H	0.2782694197406922 0.1090712562583277 0.5156303494472051	0.115309
H	0.4479639582257430 0.2740596820847767 0.5063642849563329	0.099046
H	0.3872945803239575 0.2150605508262789 0.5171728710632226	0.129017
H	0.5512715494457936 0.3809230924321126 0.5063924377180906	0.099573
H	0.6089575212436249 0.4432612048165542 0.5174360685298298	0.123603
H	0.7160048392883988 0.5505122326486356 0.5158780459241920	0.105757
H	0.7782694197406922 0.6090713302583263 0.5156303494472051	0.115309
H	0.9479639582257434 0.7740597480847748 0.5063642849563329	0.099046
H	0.8872945803239576 0.7150605338262813 0.5171728710632226	0.129017
H	0.0512714894457889 0.1190768915678860 0.4936075932819085	0.099570
H	0.1089575692436217 0.0567387991834462 0.4825639314701630	0.123603
H	0.2160048712884012 0.9494877673513644 0.4841219860758104	0.105757
H	0.2782694197406922 0.8909286697416737 0.4843696505527949	0.115309
H	0.4479639582257430 0.7259402519152252 0.4936357470436696	0.099047
H	0.3872945803239575 0.7849394661737187 0.4828271599367763	0.129018
H	0.5512715494457936 0.6190769075678875 0.4936075932819085	0.099573
H	0.6089575212436249 0.5567388281834520 0.4825639314701630	0.123603
H	0.7160048392883988 0.4494877673513646 0.4841219860758104	0.105757
H	0.7782694197406922 0.3909287687416781 0.4843696505527949	0.115309
H	0.9479639582257434 0.2259403009152256 0.4936357470436696	0.099047
H	0.8872945803239576 0.2849394001737206 0.4828271599367763	0.129018
H	0.9487284505542064 0.8809230924321125 0.9936075932819084	0.099573
H	0.8910424787563751 0.9432611718165480 0.9825639004701641	0.123603
H	0.7839951607116012 0.0505122496486403 0.9841219860758107	0.105757
H	0.7217305802593078 0.1090712562583277 0.9843696195527888	0.115309
H	0.5520360417742566 0.2740596820847767 0.9936357150436671	0.099046
H	0.6127054196760424 0.2150605508262789 0.9828271599367764	0.129017
H	0.4487285465542067 0.3809230924321126 0.9936075932819084	0.099571
H	0.3910424147563770 0.4432612048165542 0.9825639004701641	0.123603
H	0.2839951607116015 0.5505122326486356 0.9841219860758107	0.105757
H	0.2217305962593091 0.6090713302583263 0.9843696195527888	0.115309
H	0.0520360497742575 0.7740597480847748 0.9936357150436671	0.099047
H	0.1127054356760368 0.7150605338262813 0.9828271599367764	0.129018
H	0.0512714894457889 0.8809230924321125 0.9936075932819084	0.099570
H	0.1089575692436217 0.9432611718165480 0.9825639004701642	0.123603
H	0.2160048712884012 0.0505122496486403 0.9841219860758107	0.105758
H	0.2782694197406922 0.1090712562583277 0.9843696195527888	0.115311
H	0.4479639582257430 0.2740596820847767 0.9936357150436671	0.099046
H	0.3872945803239575 0.2150605508262789 0.9828271599367764	0.129018
H	0.5512715494457936 0.3809230924321126 0.9936075932819084	0.099573
H	0.6089575212436249 0.4432612048165542 0.9825639004701641	0.123603
H	0.7160048392883988 0.5505122326486356 0.9841219860758107	0.105758
H	0.7782694197406922 0.6090713302583263 0.9843696195527888	0.115311
H	0.9479639582257434 0.7740597480847748 0.9936357150436671	0.099047
H	0.8872945803239576 0.7150605338262813 0.9828271599367764	0.129018
H	0.9487284505542064 0.1190768915678860 0.4936075932819085	0.099573
H	0.8910424787563751 0.0567387991834462 0.4825639314701630	0.123603
H	0.7839951607116012 0.9494877673513644 0.4841219860758104	0.105758
H	0.7217305802593078 0.8909286697416737 0.4843696505527949	0.115311
H	0.5520360417742566 0.7259402519152252 0.4936357470436696	0.099046
H	0.6127054196760424 0.7849394661737187 0.4828271599367763	0.129018
H	0.4487285465542067 0.6190769075678875 0.4936075932819085	0.099571
H	0.3910424147563770 0.5567388281834520 0.4825639314701630	0.123603
H	0.2839951607116015 0.4494877673513646 0.4841219860758104	0.105758
H	0.2217305962593091 0.3909287687416781 0.4843696505527949	0.115312
H	0.0520360497742575 0.2259403009152256 0.4936357470436696	0.099047
H	0.1127054356760368 0.2849394001737206 0.4828271599367763	0.129018
H	0.9487284505542064 0.8809230924321125 0.5063924377180906	0.099573
H	0.8910424787563751 0.9432611718165480 0.5174360685298298	0.123603
H	0.7839951607116012 0.0505122496486403 0.5158780459241920	0.105757
H	0.7217305802593078 0.1090712562583277 0.5156303494472051	0.115311
H	0.5520360417742566 0.2740596820847767 0.5063642849563329	0.099046
H	0.6127054196760424 0.2150605508262789 0.5171728710632226	0.129018
H	0.4487285465542067 0.3809230924321126 0.5063924377180906	0.099571
H	0.3910424147563770 0.4432612048165542 0.5174360685298298	0.123603
H	0.2839951607116015 0.5505122326486356 0.5158780459241920	0.105758
H	0.2217305962593091 0.6090713302583263 0.5156303494472051	0.115311
H	0.0520360497742575 0.7740597480847748 0.5063642849563329	0.099046
H	0.1127054356760368 0.7150605338262813 0.5171728710632226	0.129018
H	0.0512714894457889 0.1190768915678860 0.0063924087180918	0.099570
H	0.1089575692436217 0.0567387991834462 0.0174360335298307	0.123603
H	0.2160048712884012 0.9494877673513644 0.0158780139241895	0.105758
H	0.2782694197406922 0.8909286697416737 0.0156303534472055	0.115311
H	0.4479639582257430 0.7259402519152252 0.0063642849563330	0.099047
H	0.3872945803239575 0.7849394661737187 0.0171728400632236	0.129018
H	0.5512715494457936 0.6190769075678875 0.0063924087180918	0.099573
H	0.6089575212436249 0.5567388281834520 0.0174360335298307	0.123603
H	0.7160048392883988 0.4494877673513646 0.0158780139241894	0.105758
H	0.7782694197406922 0.3909287687416781 0.0156303534472055	0.115311
H	0.9479639582257434 0.2259403009152256 0.0063642849563330	0.099047
H	0.8872945803239576 0.2849394001737206 0.0171728400632236	0.129018
Co	0.5000000000000000 0.6728361235990385 0.7500000160000013	0.596455
Co	0.0000000000000000 0.1728361405990365 0.7500000160000013	0.596439
Co	0.5000000000000000 0.3271638764009612 0.2500000000000000	0.596455
Co	0.0000000000000000 0.8271638764009615 0.2500000000000000	0.596439
Ti	0.5000000000000000 0.6728729629324095 0.2500000000000000	2.299577
Ti	0.0000000000000000 0.1728729629324095 0.2500000000000000	2.299577
Ti	0.5000000000000000 0.3271270690675933 0.7500000160000013	2.299577
Ti	0.0000000000000000 0.8271270370675905 0.7500000160000013	2.299577
F	0.5000000000000000 0.7385936041616235 0.2500000000000000	-0.642008
F	0.5000000000000000 0.6071685577967922 0.2500000000000000	-0.638978
F	0.0000000000000000 0.2385935551616231 0.2500000000000000	-0.642008
F	0.0000000000000000 0.1071685417967910 0.2500000000000000	-0.638978
F	0.5000000000000000 0.2614064448383767 0.7500000160000013	-0.642008
F	0.5000000000000000 0.3928314092032084 0.7500000160000013	-0.638978
F	0.0000000000000000 0.7614063958383765 0.7500000160000013	-0.642008
F	0.0000000000000000 0.8928314422032078 0.7500000160000013	-0.638978
F	0.5638246088290824 0.6728640475758996 0.2500000000000000	-0.641923
F	0.0638246288290843 0.1728640805758987 0.2500000000000000	-0.641924
F	0.4361753591709144 0.3271358864241020 0.7500000160000013	-0.641924
F	0.9361753911709176 0.8271359524241004 0.7500000160000013	-0.641922
F	0.4361753591709144 0.6728640475758996 0.2500000000000000	-0.641924
F	0.9361753911709176 0.1728640805758987 0.2500000000000000	-0.641923
F	0.5638246088290824 0.3271358864241020 0.7500000160000013	-0.641922
F	0.0638246288290843 0.8271359524241004 0.7500000160000013	-0.641924
F	0.5000000000000000 0.6729461178562784 0.4892422961422271	-0.606399
F	0.0000000000000000 0.1729461348562763 0.4892422961422271	-0.606398
F	0.5000000000000000 0.3270539151437206 -0.0107577038577729	-0.606399
F	0.0000000000000000 0.8270538821437216 -0.0107577038577729	-0.606398
F	0.5000000000000000 0.6729461178562784 0.0107576998577725	-0.606399
F	0.0000000000000000 0.1729461348562763 0.0107576998577725	-0.606398
F	0.5000000000000000 0.3270539151437206 0.5107576718577772	-0.606399
F	0.0000000000000000 0.8270538821437216 0.5107576718577772	-0.606398
N	0.5492157268761884 0.7232206605035959 0.7500000160000013	-0.186091
N	0.9513835075681421 0.1218308054067899 0.7500000160000013	-0.186632
N	0.0492156908761852 0.2232206445035948 0.7500000160000013	-0.186086
N	0.4513835075681418 0.6218307894067884 0.7500000160000013	-0.186623
N	0.4507843371238100 0.2767793394964039 0.2500000000000000	-0.186091
N	0.0486165004318588 0.8781692105932116 0.2500000000000000	-0.186639
N	0.9507842731238116 0.7767793394964041 0.2500000000000000	-0.186088
N	0.5486164924318579 0.3781692105932114 0.2500000000000000	-0.186629
N	0.4507843371238100 0.7232206605035959 0.7500000160000013	-0.186091
N	0.0486165004318588 0.1218308054067899 0.7500000160000013	-0.186639
N	0.9507842731238116 0.2232206445035948 0.7500000160000013	-0.186089
N	0.5486164924318579 0.6218307894067884 0.7500000160000013	-0.186629
N	0.5492157268761884 0.2767793394964039 0.2500000000000000	-0.186091
N	0.9513835075681421 0.8781692105932116 0.2500000000000000	-0.186632
N	0.0492156908761852 0.7767793394964041 0.2500000000000000	-0.186085
N	0.4513835075681418 0.3781692105932114 0.2500000000000000	-0.186623
	  	
