#======================================================================

# CRYSTAL DATA

#----------------------------------------------------------------------

data_VESTA_phase_1


_pd_phase_name                         TIFSIX_7_Co
_cell_length_a                         18.72154
_cell_length_b                         18.72154
_cell_length_c                         8.20109
_cell_angle_alpha                      90
_cell_angle_beta                       90
_cell_angle_gamma                      90
_symmetry_space_group_name_H-M         P 1
_symmetry_Int_Tables_number            1

loop_
_symmetry_equiv_pos_as_xyz
   x, y, z

loop_
   _atom_site_label
   _atom_site_fract_x
   _atom_site_fract_y
   _atom_site_fract_z
   _atom_site_charge
C	0.6683262118820716 0.8683115898314616 0.6960586483325484	0.092704
C	0.6159562606372159 0.9206881432493691 0.7001730256620243	-0.170168
C	0.5817216438840378 0.8862053048417160 0.4302249817507890	-0.167723
C	0.6340850228504981 0.8340553250748889 0.4349546109464211	0.091383
C	0.8316737881179284 0.6316884101685384 0.6960586483325484	0.092704
C	0.8840437893627812 0.5793119077506316 0.7001730256620243	-0.170162
C	0.9182782551159645 0.6137947461582776 0.4302249817507890	-0.167709
C	0.8659149771495019 0.6659446749251111 0.4349546109464211	0.091381
C	0.6316884101685384 0.6683262118820716 0.6960586483325484	0.092684
C	0.5793119077506316 0.6159562606372159 0.7001730256620243	-0.170162
C	0.6137947461582776 0.5817216438840378 0.4302249817507890	-0.167712
C	0.6659446749251111 0.6340850228504981 0.4349546109464211	0.091364
C	0.8683115898314616 0.8316737881179284 0.6960586483325484	0.092684
C	0.9206881432493691 0.8840437893627812 0.7001730256620243	-0.170159
C	0.8862053048417160 0.9182782551159645 0.4302249817507890	-0.167715
C	0.8340553250748889 0.8659149771495019 0.4349546109464211	0.091364
C	0.3316737631179297 0.3683115398314571 0.3039413816674542	0.092704
C	0.3840437393627838 0.4206881432493689 0.2998270043379783	-0.170170
C	0.4182783561159618 0.3862052538417221 0.5697750182492106	-0.167725
C	0.3659149261495083 0.3340553250748889 0.5650454190535814	0.091383
C	0.1683262368820701 0.1316884471685452 0.3039413816674542	0.092704
C	0.1159562606372163 0.0793118567506311 0.2998270043379783	-0.170166
C	0.0817216248840331 0.1137947461582779 0.5697750182492106	-0.167720
C	0.1340850738504918 0.1659446629251102 0.5650454190535814	0.091382
C	0.3683115398314571 0.1683262368820701 0.3039413816674542	0.092684
C	0.4206881432493689 0.1159562606372163 0.2998270043379783	-0.170161
C	0.3862052538417221 0.0817216248840331 0.5697750182492106	-0.167717
C	0.3340553250748889 0.1340850738504918 0.5650454190535814	0.091364
C	0.1316884471685452 0.3316737631179297 0.3039413816674542	0.092684
C	0.0793118567506311 0.3840437393627838 0.2998270043379783	-0.170166
C	0.1137947461582779 0.4182783561159618 0.5697750182492106	-0.167723
C	0.1659446629251102 0.3659149261495083 0.5650454190535814	0.091365
C	0.4316566120851194 0.0712598301446909 0.4352778136129118	0.137245
C	0.4871752576073634 0.0169044861904390 0.4329124947189014	-0.121164
C	0.0683433879148807 0.4287401628553121 0.4352778136129118	0.137278
C	0.0128247103926337 0.4830954498095628 0.4329124947189014	-0.121168
C	0.4287401628553121 0.4316566120851194 0.4352778136129118	0.137278
C	0.4830954498095628 0.4871752576073634 0.4329124947189014	-0.121175
C	0.0712598301446909 0.0683433879148807 0.4352778136129118	0.137245
C	0.0169044861904390 0.0128247103926337 0.4329124947189014	-0.121157
C	0.5683433879148807 0.5712598371446879 0.5647221863870880	0.137259
C	0.5128247933926299 0.5169045001904329 0.5670875342810976	-0.120932
C	0.9316565620851223 0.9287401128553080 0.5647221863870880	0.137231
C	0.9871752576073637 0.9830955508095678 0.5670875342810976	-0.120914
C	0.5712598371446879 0.9316565620851223 0.5647221863870880	0.137264
C	0.5169045001904329 0.9871752576073637 0.5670875342810976	-0.120924
C	0.9287401128553080 0.5683433879148807 0.5647221863870880	0.137226
C	0.9830955508095678 0.5128247933926299 0.5670875342810976	-0.120920
H	0.7029393569174833 0.8592571878005476 0.8004988949748872	0.108401
H	0.6106452113547021 0.9533140733256755 0.8095742634536445	0.120201
H	0.5484322088701964 0.8900165461320958 0.3216956032939202	0.119548
H	0.6428230175975940 0.7990183231529604 0.3311529391170988	0.107815
H	0.7970606430825167 0.6407428121994524 0.8004988949748872	0.108401
H	0.8893547886452979 0.5466859776743251 0.8095742634536445	0.120201
H	0.9515678421298043 0.6099835048679049 0.3216956032939202	0.119543
H	0.8571769824024060 0.7009816768470396 0.3311529391170988	0.107816
H	0.6407428121994524 0.7029393569174833 0.8004988949748872	0.108402
H	0.5466859776743251 0.6106452113547021 0.8095742634536445	0.120215
H	0.6099835048679049 0.5484322088701964 0.3216956032939202	0.119558
H	0.7009816768470396 0.6428230175975940 0.3311529391170988	0.107816
H	0.8592571878005476 0.7970606430825167 0.8004988949748872	0.108402
H	0.9533140733256755 0.8893547886452979 0.8095742634536445	0.120214
H	0.8900165461320958 0.9515678421298043 0.3216956032939202	0.119561
H	0.7990183231529604 0.8571769824024060 0.3311529391170988	0.107816
H	0.2970606690825186 0.3592571118005487 0.1995010900251153	0.108401
H	0.3893547126452914 0.4533140223256746 0.1904256925463519	0.120228
H	0.4515678421298043 0.3900165461320962 0.6783043667060847	0.119555
H	0.3571770074024119 0.2990183491529626 0.6688470608829011	0.107815
H	0.2029393439174790 0.1407429141994533 0.1995010900251153	0.108401
H	0.1106452623547030 0.0466859936743266 0.1904256925463519	0.120227
H	0.0484321518701953 0.1099834798679060 0.6783043667060847	0.119555
H	0.1428230175975937 0.2009816388470364 0.6688470608829011	0.107815
H	0.3592571118005487 0.2029393439174790 0.1995010900251153	0.108401
H	0.4533140223256746 0.1106452623547030 0.1904256925463519	0.120241
H	0.3900165461320962 0.0484321518701953 0.6783043667060847	0.119569
H	0.2990183491529626 0.1428230175975937 0.6688470608829011	0.107816
H	0.1407429141994533 0.2970606690825185 0.1995010900251153	0.108401
H	0.0466859936743266 0.3893547126452914 0.1904256925463519	0.120241
H	0.1099834798679060 0.4515678421298043 0.6783043667060847	0.119570
H	0.2009816388470364 0.3571770074024119 0.6688470608829011	0.107816
H	0.5071513157196146 0.0014060265948800 0.3125069899041896	0.105076
H	0.9928487352803861 0.4985939454051176 0.3125069899041896	0.105067
H	0.4985939454051176 0.5071513157196146 0.3125069899041896	0.105068
H	0.0014060265948800 0.9928487352803861 0.3125069899041896	0.105075
H	0.4928486842803854 0.5014060045948852 0.6874930400958056	0.105047
H	0.0071513067196174 0.9985939454051178 0.6874930400958056	0.105053
H	0.5014060045948852 0.0071513067196174 0.6874930400958056	0.105045
H	0.9985939454051178 0.4928486842803854 0.6874930400958056	0.105054
Co	0.2500000000000000 0.2500000000000000 0.4343014993341088	0.589267
Co	0.7500000000000000 0.7500000000000000 0.5656985006658911	0.589267
Ti	0.2500000000000000 0.2500000000000000 0.9358716363563981	2.311136
Ti	0.7500000000000000 0.7500000000000000 0.0641283486436042	2.311136
F	0.2500000000000000 0.2500000000000000 0.1740861231365643	-0.619641
F	0.2500000000000000 0.2500000000000000 0.6977467250592061	-0.620708
F	0.7500000000000000 0.7500000000000000 0.8259139068634379	-0.619641
F	0.7500000000000000 0.7500000000000000 0.3022532749407938	-0.620708
F	0.3218522882123517 0.3209653561611309 0.9361119848147649	-0.651391
F	0.1781477367876468 0.1790346688388677 0.9361119848147649	-0.651391
F	0.1790346688388677 0.3218522882123517 0.9361119848147649	-0.651391
F	0.3209653561611309 0.1781477367876468 0.9361119848147649	-0.651391
F	0.6781477367876464 0.8209653561611311 0.0638880151852352	-0.651390
F	0.8218522632123536 0.6790346438388689 0.0638880151852352	-0.651390
F	0.8209653561611311 0.8218522632123536 0.0638880151852352	-0.651390
F	0.6790346438388689 0.6781477367876464 0.0638880151852352	-0.651390
N	0.3251522668219982 0.1773094147190830 0.4343661973835155	-0.187072
N	0.1748477581780003 0.3226906102809156 0.4343661973835155	-0.187072
N	0.3226906102809156 0.3251522668219982 0.4343661973835155	-0.187076
N	0.1773094147190830 0.1748477581780003 0.4343661973835155	-0.187076
N	0.6748477331780017 0.6773093897190845 0.5656338026164851	-0.187071
N	0.8251522668219983 0.8226906102809155 0.5656338026164851	-0.187071
N	0.6773093897190845 0.8251522668219983 0.5656338026164851	-0.187076
N	0.8226906102809155 0.6748477331780017 0.5656338026164851	-0.187075
	  	
