#======================================================================

# CRYSTAL DATA

#----------------------------------------------------------------------

data_VESTA_phase_1


_pd_phase_name                         TIFSIX_1_Fe
_cell_length_a                         11.46735
_cell_length_b                         11.46735
_cell_length_c                         8.00200
_cell_angle_alpha                      90
_cell_angle_beta                       90
_cell_angle_gamma                      90
_symmetry_space_group_name_H-M         P 1
_symmetry_Int_Tables_number            1

loop_
_symmetry_equiv_pos_as_xyz
   x, y, z

loop_
   _atom_site_label
   _atom_site_fract_x
   _atom_site_fract_y
   _atom_site_fract_z
   _atom_site_charge
C	0.2489206065691843 0.4575807042536439 0.3686647837229043	0.107764
C	0.1277048578028161 0.4569780332791715 0.3634335835317637	-0.174633
C	0.7510794804308195 0.5424193387463564 0.3686647837229043	0.107764
C	0.8722951861971876 0.5430219667208284 0.3634335835317637	-0.174634
C	0.5424193387463564 0.2489206065691843 0.3686647837229043	0.107764
C	0.5430219667208284 0.1277048578028161 0.3634335835317637	-0.174633
C	0.4575807042536439 0.7510794804308195 0.3686647837229043	0.107765
C	0.4569780332791715 0.8722951861971876 0.3634335835317637	-0.174634
C	0.7510794804308195 0.4575807042536439 0.6313351862770930	0.107765
C	0.8722951861971876 0.4569780332791715 0.6365663874682301	-0.174633
C	0.2489206065691843 0.5424193387463564 0.6313351862770930	0.107765
C	0.1277048578028161 0.5430219667208284 0.6365663874682301	-0.174632
C	0.4575807042536439 0.2489206065691843 0.6313351862770930	0.107765
C	0.4569780332791715 0.1277048578028161 0.6365663874682301	-0.174632
C	0.5424193387463564 0.7510794804308195 0.6313351862770930	0.107765
C	0.5430219667208284 0.8722951861971876 0.6365663874682301	-0.174633
C	0.0644639788110240 0.5000000000000000 0.5000000000000000	0.100249
C	0.9355360971889750 0.5000000000000000 0.5000000000000000	0.100254
C	0.5000000000000000 0.0644639788110240 0.5000000000000000	0.100249
C	0.5000000000000000 0.9355360971889750 0.5000000000000000	0.100254
H	0.2998638772091059 0.4237872160123445 0.2640992402572541	0.098401
H	0.0831942438627603 0.4210798069333737 0.2546658235106102	0.121790
H	0.7001360797908944 0.5762127839876554 0.2640992402572541	0.098401
H	0.9168057721372412 0.5789201930666263 0.2546658235106102	0.121790
H	0.5762127839876554 0.2998638772091059 0.2640992402572541	0.098401
H	0.5789201930666263 0.0831942438627603 0.2546658235106102	0.121791
H	0.4237872160123445 0.7001360797908944 0.2640992402572541	0.098401
H	0.4210798069333737 0.9168057721372412 0.2546658235106102	0.121790
H	0.7001360797908944 0.4237872160123445 0.7359007307427471	0.098401
H	0.9168057721372412 0.4210798069333737 0.7453342354893909	0.121789
H	0.2998638772091059 0.5762127839876554 0.7359007307427471	0.098401
H	0.0831942438627603 0.5789201930666263 0.7453342354893909	0.121788
H	0.4237872160123445 0.2998638772091059 0.7359007307427471	0.098401
H	0.4210798069333737 0.0831942438627603 0.7453342354893909	0.121789
H	0.5762127839876554 0.7001360797908944 0.7359007307427471	0.098401
H	0.5789201930666263 0.9168057721372412 0.7453342354893909	0.121789
Fe	0.5000000000000000 0.5000000000000000 0.5000000000000000	0.823164
Ti	0.5000000000000000 0.5000000000000000 0.0000000000000000	2.323865
F	0.5000000000000000 0.5000000000000000 0.7545516166166684	-0.600654
F	0.5000000000000000 0.5000000000000000 0.2454483833833316	-0.600654
F	0.3837842268385352 0.3837842268385352 0.0000000000000000	-0.642872
F	0.6162157731614648 0.6162157731614648 0.0000000000000000	-0.642872
F	0.6162157731614648 0.3837842268385352 0.0000000000000000	-0.642872
F	0.3837842268385352 0.6162157731614648 0.0000000000000000	-0.642872
N	0.3088851929403703 0.5000000000000000 0.5000000000000000	-0.250454
N	0.6911148290596318 0.5000000000000000 0.5000000000000000	-0.250454
N	0.5000000000000000 0.3088851929403703 0.5000000000000000	-0.250454
N	0.5000000000000000 0.6911148290596318 0.5000000000000000	-0.250454
	  	
