#======================================================================

# CRYSTAL DATA

#----------------------------------------------------------------------

data_VESTA_phase_1


_pd_phase_name                         TIFSIX_1_Zn
_cell_length_a                         11.36556
_cell_length_b                         11.36556
_cell_length_c                         8.03269
_cell_angle_alpha                      90
_cell_angle_beta                       90
_cell_angle_gamma                      90
_symmetry_space_group_name_H-M         P 1
_symmetry_Int_Tables_number            1

loop_
_symmetry_equiv_pos_as_xyz
   x, y, z

loop_
   _atom_site_label
   _atom_site_fract_x
   _atom_site_fract_y
   _atom_site_fract_z
   _atom_site_charge
C	0.2508712720574403 0.4577532453021803 0.3685074423958443	0.104984
C	0.1286283372911134 0.4573127369009730 0.3635504200954484	-0.172515
C	0.7491288149425636 0.5422467976978192 0.3685074423958443	0.104984
C	0.8713717067088902 0.5426872630990270 0.3635504200954484	-0.172515
C	0.5422467976978192 0.2508712720574403 0.3685074423958443	0.104985
C	0.5426872630990270 0.1286283372911134 0.3635504200954484	-0.172515
C	0.4577532453021803 0.7491288149425636 0.3685074423958443	0.104985
C	0.4573127369009730 0.8713717067088902 0.3635504200954484	-0.172515
C	0.7491288149425636 0.4577532453021803 0.6314925276041531	0.104985
C	0.8713717067088902 0.4573127369009730 0.6364495509045457	-0.172514
C	0.2508712720574403 0.5422467976978192 0.6314925276041531	0.104985
C	0.1286283372911134 0.5426872630990270 0.6364495509045457	-0.172513
C	0.4577532453021803 0.2508712720574403 0.6314925276041531	0.104986
C	0.4573127369009730 0.1286283372911134 0.6364495509045457	-0.172513
C	0.5422467976978192 0.7491288149425636 0.6314925276041531	0.104986
C	0.5426872630990270 0.8713717067088902 0.6364495509045457	-0.172514
C	0.0648979746791035 0.5000000000000000 0.5000000000000000	0.100912
C	0.9351021013208957 0.5000000000000000 0.5000000000000000	0.100914
C	0.5000000000000000 0.0648979746791035 0.5000000000000000	0.100912
C	0.5000000000000000 0.9351021013208957 0.5000000000000000	0.100914
H	0.3021110579701806 0.4241571173399525 0.2638967956258358	0.101886
H	0.0834238382549103 0.4218595905245395 0.2550526854988814	0.122910
H	0.6978888990298194 0.5758428826600475 0.2638967956258358	0.101886
H	0.9165761777450906 0.5781404094754602 0.2550526854988814	0.122910
H	0.5758428826600475 0.3021110579701806 0.2638967956258358	0.101886
H	0.5781404094754602 0.0834238382549103 0.2550526854988814	0.122910
H	0.4241571173399525 0.6978888990298194 0.2638967956258358	0.101886
H	0.4218595905245395 0.9165761777450906 0.2550526854988814	0.122910
H	0.6978888990298194 0.4241571173399525 0.7361031753741655	0.101886
H	0.9165761777450906 0.4218595905245395 0.7449473735011205	0.122908
H	0.3021110579701806 0.5758428826600475 0.7361031753741655	0.101885
H	0.0834238382549103 0.5781404094754602 0.7449473735011205	0.122908
H	0.4241571173399525 0.3021110579701806 0.7361031753741655	0.101885
H	0.4218595905245395 0.0834238382549103 0.7449473735011205	0.122909
H	0.5758428826600475 0.6978888990298194 0.7361031753741655	0.101885
H	0.5781404094754602 0.9165761777450906 0.7449473735011205	0.122908
Zn	0.5000000000000000 0.5000000000000000 0.5000000000000000	0.756891
Ti	0.5000000000000000 0.5000000000000000 0.0000000000000000	2.326131
F	0.5000000000000000 0.5000000000000000 0.7583842813503727	-0.615756
F	0.5000000000000000 0.5000000000000000 0.2416157186496275	-0.615756
F	0.3823152135587737 0.3823152135587737 0.0000000000000000	-0.650125
F	0.6176847864412259 0.6176847864412259 0.0000000000000000	-0.650125
F	0.6176847864412259 0.3823152135587737 0.0000000000000000	-0.650125
F	0.3823152135587737 0.6176847864412259 0.0000000000000000	-0.650125
N	0.3111462720782531 0.5000000000000000 0.5000000000000000	-0.228196
N	0.6888537499217491 0.5000000000000000 0.5000000000000000	-0.228196
N	0.5000000000000000 0.3111462720782531 0.5000000000000000	-0.228196
N	0.5000000000000000 0.6888537499217491 0.5000000000000000	-0.228196
	  	
