#======================================================================

# CRYSTAL DATA

#----------------------------------------------------------------------

data_VESTA_phase_1


_pd_phase_name                         TIFSIX_3_Co
_cell_length_a                         14.16846
_cell_length_b                         14.16846
_cell_length_c                         7.97676
_cell_angle_alpha                      90
_cell_angle_beta                       90
_cell_angle_gamma                      90
_symmetry_space_group_name_H-M         P 1
_symmetry_Int_Tables_number            1

loop_
_symmetry_equiv_pos_as_xyz
   x, y, z

loop_
   _atom_site_label
   _atom_site_fract_x
   _atom_site_fract_y
   _atom_site_fract_z
   _atom_site_charge
C	0.2704061893532093 0.4508013915850794 0.6400531901424555	0.070180
C	0.2295938106467910 0.0491986124149209 0.6400531901424555	0.070181
C	0.2295938106467910 0.4508013915850794 0.3599467778575418	0.070184
C	0.2704061893532093 0.0491986124149209 0.3599467778575418	0.070185
C	0.0491986124149209 0.2704061893532093 0.3599467778575418	0.070188
C	0.4508013915850794 0.2295938106467910 0.3599467778575418	0.070187
C	0.4508013915850794 0.2704061893532093 0.6400531901424555	0.070192
C	0.0491986124149209 0.2295938106467910 0.6400531901424555	0.070192
C	0.9508013235850810 0.2295938106467910 0.6400531901424555	0.070201
C	0.5491986764149190 0.2704061893532093 0.6400531901424555	0.070202
C	0.5491986764149192 0.2295938106467910 0.3599467778575418	0.070205
C	0.9508013235850808 0.2704061893532093 0.3599467778575418	0.070204
C	0.7295938276467889 0.0491986124149209 0.3599467778575418	0.070188
C	0.7704061723532111 0.4508013915850794 0.3599467778575418	0.070187
C	0.7704061723532111 0.0491986124149209 0.6400531901424555	0.070192
C	0.7295938276467889 0.4508013915850794 0.6400531901424555	0.070191
C	0.4508013915850794 0.7295938276467889 0.6400531901424555	0.070181
C	0.0491986124149209 0.7704061723532111 0.6400531901424555	0.070182
C	0.0491986124149209 0.7295938276467889 0.3599467778575418	0.070186
C	0.4508013915850794 0.7704061723532111 0.3599467778575418	0.070186
C	0.2295938106467910 0.5491986764149192 0.3599467778575418	0.070208
C	0.2704061893532093 0.9508013235850808 0.3599467778575418	0.070207
C	0.2704061893532093 0.5491986764149192 0.6400531901424555	0.070211
C	0.2295938106467910 0.9508013235850808 0.6400531901424555	0.070210
C	0.7704061723532111 0.9508013235850810 0.6400531901424555	0.070201
C	0.7295938276467889 0.5491986764149190 0.6400531901424555	0.070201
C	0.7295938276467889 0.9508013235850808 0.3599467778575418	0.070204
C	0.7704061723532111 0.5491986764149190 0.3599467778575418	0.070205
C	0.5491986764149192 0.7704061723532111 0.3599467778575418	0.070208
C	0.9508013235850808 0.7295938276467889 0.3599467778575418	0.070207
C	0.9508013235850808 0.7704061723532111 0.6400531901424555	0.070211
C	0.5491986764149192 0.7295938276467889 0.6400531901424555	0.070211
H	0.2868135428249043 0.4116698317178444 0.7541828815752250	0.111605
H	0.2131864231750926 0.0883301682821557 0.7541828815752250	0.111605
H	0.2131864231750926 0.4116698317178444 0.2458170874247758	0.111605
H	0.2868135428249043 0.0883301682821557 0.2458170874247758	0.111605
H	0.0883301682821557 0.2868135428249043 0.2458170874247758	0.111603
H	0.4116698317178444 0.2131864231750926 0.2458170874247758	0.111604
H	0.4116698317178444 0.2868135428249043 0.7541828815752250	0.111603
H	0.0883301682821557 0.2131864231750926 0.7541828815752250	0.111603
H	0.9116698997178501 0.2131864231750926 0.7541828815752250	0.111600
H	0.5883301002821499 0.2868135428249043 0.7541828815752250	0.111600
H	0.5883301002821499 0.2131864231750926 0.2458170874247758	0.111600
H	0.9116698997178501 0.2868135428249043 0.2458170874247758	0.111600
H	0.7131863891750969 0.0883301682821557 0.2458170874247758	0.111604
H	0.7868136108249031 0.4116698317178444 0.2458170874247758	0.111603
H	0.7868136108249031 0.0883301682821557 0.7541828815752250	0.111603
H	0.7131863891750969 0.4116698317178444 0.7541828815752250	0.111603
H	0.4116698317178444 0.7131863891750969 0.7541828815752250	0.111605
H	0.0883301682821557 0.7868136108249031 0.7541828815752250	0.111605
H	0.0883301682821557 0.7131863891750969 0.2458170874247758	0.111605
H	0.4116698317178444 0.7868136108249031 0.2458170874247758	0.111605
H	0.2131864231750926 0.5883301002821499 0.2458170874247758	0.111599
H	0.2868135428249043 0.9116698997178501 0.2458170874247758	0.111599
H	0.2868135428249043 0.5883301002821499 0.7541828815752250	0.111598
H	0.2131864231750926 0.9116698997178501 0.7541828815752250	0.111598
H	0.7868136108249031 0.9116698997178501 0.7541828815752250	0.111600
H	0.7131863891750969 0.5883301002821499 0.7541828815752250	0.111600
H	0.7131863891750969 0.9116698997178501 0.2458170874247758	0.111600
H	0.7868136108249031 0.5883301002821499 0.2458170874247758	0.111600
H	0.5883301002821499 0.7868136108249031 0.2458170874247758	0.111599
H	0.9116698997178501 0.7131863891750969 0.2458170874247758	0.111599
H	0.9116698997178501 0.7868136108249031 0.7541828815752250	0.111598
H	0.5883301002821499 0.7131863891750969 0.7541828815752250	0.111598
Co	0.2500000000000000 0.2500000000000000 0.5000000000000000	0.845149
Co	0.7500000340000028 0.2500000000000000 0.5000000000000000	0.845150
Co	0.2500000000000000 0.7500000340000028 0.5000000000000000	0.845150
Co	0.7500000340000028 0.7500000340000028 0.5000000000000000	0.845151
Ti	0.2500000000000000 0.2500000000000000 -0.0000000000000000	2.308111
Ti	0.7500000340000028 0.2500000000000000 -0.0000000000000000	2.308110
Ti	0.2500000000000000 0.7500000340000028 -0.0000000000000000	2.308110
Ti	0.7500000340000028 0.7500000340000028 -0.0000000000000000	2.308109
F	0.2500000000000000 0.2500000000000000 0.7567960193471488	-0.620381
F	0.2500000000000000 0.2500000000000000 0.2432039806528514	-0.620381
F	0.3440300298896728 0.3440300298896728 -0.0104147630957735	-0.621550
F	0.1559699701103270 0.1559699701103270 -0.0104147630957735	-0.621549
F	0.1559699701103270 0.3440300298896728 0.0104147840957714	-0.621549
F	0.3440300298896728 0.1559699701103270 0.0104147840957714	-0.621549
F	0.7500000340000028 0.2500000000000000 0.7567960193471488	-0.620381
F	0.7500000340000028 0.2500000000000000 0.2432039806528514	-0.620381
F	0.8440300638896755 0.3440300298896728 0.0104147840957714	-0.621551
F	0.6559699361103245 0.1559699701103270 0.0104147840957714	-0.621549
F	0.6559699361103245 0.3440300298896728 -0.0104147630957735	-0.621550
F	0.8440300638896755 0.1559699701103270 -0.0104147630957735	-0.621550
F	0.2500000000000000 0.7500000340000028 0.7567960193471488	-0.620381
F	0.2500000000000000 0.7500000340000028 0.2432039806528514	-0.620381
F	0.3440300298896728 0.8440300638896755 0.0104147840957714	-0.621551
F	0.1559699701103270 0.6559699361103245 0.0104147840957714	-0.621549
F	0.1559699701103270 0.8440300638896755 -0.0104147630957735	-0.621550
F	0.3440300298896728 0.6559699361103245 -0.0104147630957735	-0.621550
F	0.7500000340000028 0.7500000340000028 0.7567960193471488	-0.620381
F	0.7500000340000028 0.7500000340000028 0.2432039806528514	-0.620381
F	0.8440300638896755 0.8440300638896755 -0.0104147630957735	-0.621552
F	0.6559699361103245 0.6559699361103245 -0.0104147630957735	-0.621550
F	0.6559699361103245 0.8440300638896755 0.0104147840957714	-0.621551
F	0.8440300638896755 0.6559699361103245 0.0104147840957714	-0.621551
N	0.4017241269551146 0.2500000000000000 0.5000000000000000	-0.220169
N	0.0982758730448854 0.2500000000000000 0.5000000000000000	-0.220168
N	0.2500000000000000 0.4017241269551146 0.5000000000000000	-0.220167
N	0.2500000000000000 0.0982758730448854 0.5000000000000000	-0.220166
N	0.9017241269551147 0.2500000000000000 0.5000000000000000	-0.220172
N	0.5982758730448853 0.2500000000000000 0.5000000000000000	-0.220171
N	0.7500000340000028 0.4017241269551146 0.5000000000000000	-0.220168
N	0.7500000340000028 0.0982758730448854 0.5000000000000000	-0.220168
N	0.4017241269551146 0.7500000340000028 0.5000000000000000	-0.220167
N	0.0982758730448854 0.7500000340000028 0.5000000000000000	-0.220167
N	0.2500000000000000 0.9017241269551147 0.5000000000000000	-0.220173
N	0.2500000000000000 0.5982758730448853 0.5000000000000000	-0.220173
N	0.9017241269551147 0.7500000340000028 0.5000000000000000	-0.220174
N	0.5982758730448853 0.7500000340000028 0.5000000000000000	-0.220173
N	0.7500000340000028 0.9017241269551147 0.5000000000000000	-0.220172
N	0.7500000340000028 0.5982758730448853 0.5000000000000000	-0.220171
	  	
