#======================================================================

# CRYSTAL DATA

#----------------------------------------------------------------------

data_VESTA_phase_1


_pd_phase_name                         TIFSIX_5_Zn_i
_cell_length_a                         19.97992
_cell_length_b                         19.97992
_cell_length_c                         15.74669
_cell_angle_alpha                      90
_cell_angle_beta                       90
_cell_angle_gamma                      90
_symmetry_space_group_name_H-M         P 1
_symmetry_Int_Tables_number            1

loop_
_symmetry_equiv_pos_as_xyz
   x, y, z

loop_
   _atom_site_label
   _atom_site_fract_x
   _atom_site_fract_y
   _atom_site_fract_z
   _atom_site_charge
F	0.3237117006357567 0.1903674382917699 0.3507656344022198	-0.654723
F	0.1762882873642423 0.3096325617082298 0.3507656344022198	-0.654727
F	0.3096325617082298 0.3237117006357567 0.3507656344022198	-0.654726
F	0.1903674382917699 0.1762882873642423 0.3507656344022198	-0.654724
F	0.6762883233642381 0.6903674622917716 0.1492343655977802	-0.654724
F	0.8237116766357619 0.8096325377082284 0.1492343655977802	-0.654726
F	0.6903674622917716 0.8237116766357619 0.1492343655977802	-0.654726
F	0.8096325377082284 0.6762883233642381 0.1492343655977802	-0.654724
F	0.6762883233642381 0.8096325377082284 0.6492343975977836	-0.654727
F	0.8237116766357619 0.6903674622917716 0.6492343975977836	-0.654723
F	0.6903674622917716 0.6762883233642381 0.6492343975977836	-0.654724
F	0.8096325377082284 0.8237116766357619 0.6492343975977836	-0.654726
F	0.3237117006357567 0.3096325617082298 0.8507656024022164	-0.654726
F	0.1762882873642423 0.1903674382917699 0.8507656024022164	-0.654724
F	0.3096325617082298 0.1762882873642423 0.8507656024022164	-0.654724
F	0.1903674382917699 0.3237117006357567 0.8507656024022164	-0.654726
F	0.2500000000000000 0.2500000000000000 0.4724272627175288	-0.611183
F	0.2500000000000000 0.2500000000000000 0.2293977895624778	-0.611855
F	0.7500000000000000 0.7500000000000000 0.0275727642824699	-0.611183
F	0.7500000000000000 0.7500000000000000 0.2706021944375209	-0.611855
F	0.7500000000000000 0.7500000000000000 0.5275727682824701	-0.611181
F	0.7500000000000000 0.7500000000000000 0.7706021944375210	-0.611856
F	0.2500000000000000 0.2500000000000000 0.9724272317175299	-0.611181
F	0.2500000000000000 0.2500000000000000 0.7293978055624790	-0.611856
N	0.3576326139846807 0.2475221578815127 0.6013075438740698	-0.233136
N	0.1423673860153193 0.2524778421184874 0.6013075438740698	-0.233136
N	0.2524778421184874 0.3576326139846807 0.6013075438740698	-0.233137
N	0.2475221578815127 0.1423673860153193 0.6013075438740698	-0.233136
N	0.6423674100153215 0.7475221338815106 0.8986924561259302	-0.233136
N	0.8576325899846785 0.7524778661184894 0.8986924561259302	-0.233136
N	0.7475221338815106 0.8576325899846785 0.8986924561259302	-0.233137
N	0.7524778661184894 0.6423674100153215 0.8986924561259302	-0.233136
N	0.6423674100153215 0.7524778661184894 0.3986924871259296	-0.233134
N	0.8576325899846785 0.7475221338815106 0.3986924871259296	-0.233134
N	0.7475221338815106 0.6423674100153215 0.3986924871259296	-0.233134
N	0.7524778661184894 0.8576325899846785 0.3986924871259296	-0.233135
N	0.3576326139846807 0.2524778421184874 0.1013075438740694	-0.233134
N	0.1423673860153193 0.2475221578815127 0.1013075438740694	-0.233134
N	0.2524778421184874 0.1423673860153193 0.1013075438740694	-0.233134
N	0.2475221578815127 0.3576326139846807 0.1013075438740694	-0.233135
C	0.3907568942948629 0.2181040910376378 0.6657618835543415	0.104385
C	0.4602146742659798 0.2166251369613426 0.6695307498543352	-0.177788
C	0.4980179477526694 0.2471189439077469 0.6051486394318168	0.107214
C	0.4626480797038406 0.2774604509083817 0.5384050996289910	-0.180548
C	0.3930902699660468 0.2764393759878009 0.5384969878120890	0.103953
C	0.5717316820100061 0.2478127297966968 0.6082285271498530	0.053730
C	0.6076787459870674 0.1918590857463027 0.6375206360828053	-0.131138
C	0.6772355133508052 0.1926362412663970 0.6400399575431646	-0.123381
C	0.7131589887120566 0.2497933514973572 0.6149371579898376	0.066879
C	0.6772341273019171 0.3060726108662309 0.5869043273732075	-0.117571
C	0.6077271423332470 0.3048335926028009 0.5827590102431841	-0.126969
C	0.1092430817051422 0.2818959329623641 0.6657618835543415	0.104386
C	0.0397852657340224 0.2833748870386594 0.6695307498543352	-0.177790
C	0.0019820312473325 0.2528810560922532 0.6051486394318168	0.107212
C	0.0373519472961581 0.2225395490916182 0.5384050996289910	-0.180543
C	0.1069096940339504 0.2235606480122011 0.5384969878120890	0.103951
C	0.9282682699899970 0.2521872462033011 0.6082285271498530	0.053730
C	0.8923213020129295 0.3081409492536966 0.6375206360828053	-0.131136
C	0.8227644866491948 0.3073637707335968 0.6400399575431646	-0.123380
C	0.7868410112879434 0.2502066245026409 0.6149371579898376	0.066877
C	0.8227659196980832 0.1939273891337691 0.5869043273732075	-0.117567
C	0.8922729536667539 0.1951664423971984 0.5827590102431841	-0.126969
C	0.2818959329623641 0.3907568942948629 0.6657618835543415	0.104387
C	0.2833748870386594 0.4602146742659798 0.6695307498543352	-0.177790
C	0.2528810560922532 0.4980179477526694 0.6051486394318168	0.107213
C	0.2225395490916182 0.4626480797038406 0.5384050996289910	-0.180545
C	0.2235606480122011 0.3930902699660468 0.5384969878120890	0.103954
C	0.2521872462033011 0.5717316820100061 0.6082285271498530	0.053729
C	0.3081409492536966 0.6076787459870674 0.6375206360828053	-0.131139
C	0.3073637707335968 0.6772355133508052 0.6400399575431646	-0.123381
C	0.2502066245026409 0.7131589887120566 0.6149371579898376	0.066877
C	0.1939273891337691 0.6772341273019171 0.5869043273732075	-0.117570
C	0.1951664423971984 0.6077271423332470 0.5827590102431841	-0.126970
C	0.2181040910376378 0.1092430817051422 0.6657618835543415	0.104385
C	0.2166251369613426 0.0397852657340224 0.6695307498543352	-0.177787
C	0.2471189439077469 0.0019820312473325 0.6051486394318168	0.107213
C	0.2774604509083817 0.0373519472961581 0.5384050996289910	-0.180545
C	0.2764393759878009 0.1069096940339504 0.5384969878120890	0.103951
C	0.2478127297966968 0.9282682699899970 0.6082285271498530	0.053730
C	0.1918590857463027 0.8923213020129295 0.6375206360828053	-0.131135
C	0.1926362412663970 0.8227644866491948 0.6400399575431646	-0.123379
C	0.2497933514973572 0.7868410112879434 0.6149371579898376	0.066879
C	0.3060726108662309 0.8227659196980832 0.5869043273732075	-0.117568
C	0.3048335926028009 0.8922729536667539 0.5827590102431841	-0.126967
C	0.6092430817051417 0.7181041390376349 0.8342381164456585	0.104384
C	0.5397852777340235 0.7166251609613372 0.8304692501456648	-0.177786
C	0.5019820522473307 0.7471189919077437 0.8948513605681832	0.107212
C	0.5373520162961603 0.7774604029083780 0.9615949003710090	-0.180547
C	0.6069097540339482 0.7764393999877959 0.9615030121879110	0.103951
C	0.4282683179899942 0.7478128017966954 0.8917714728501470	0.053730
C	0.3923212540129329 0.6918590507463034 0.8624793639171947	-0.131136
C	0.3227644146491887 0.6926362052664009 0.8599600424568354	-0.123380
C	0.2868410592879475 0.7497933754973594 0.8850628420101624	0.066878
C	0.3227658246980790 0.8060726108662307 0.9130956726267925	-0.117569
C	0.3922728816667478 0.8048335216027991 0.9172409897568159	-0.126967
C	0.8907569182948583 0.7818958609623651 0.8342381164456585	0.104387
C	0.9602147222659765 0.7833748390386628 0.8304692501456648	-0.177791
C	0.9980179957526661 0.7528810080922563 0.8948513605681832	0.107214
C	0.9626480317038437 0.7225395970916220 0.9615949003710090	-0.180544
C	0.8930902459660518 0.7235606000122041 0.9615030121879110	0.103952
C	0.0717317180100017 0.7521871982033046 0.8917714728501470	0.053729
C	0.1076787339870662 0.8081409492536966 0.8624793639171947	-0.131137
C	0.1772355613508093 0.8073637467336022 0.8599600424568354	-0.123381
C	0.2131589407120524 0.7502066245026406 0.8850628420101624	0.066879
C	0.1772341513019190 0.6939273891337693 0.9130956726267925	-0.117569
C	0.1077271183332522 0.6951664313972006 0.9172409897568159	-0.126971
C	0.7181041390376349 0.8907569182948583 0.8342381164456585	0.104389
C	0.7166251609613372 0.9602147222659765 0.8304692501456648	-0.177788
C	0.7471189919077437 0.9980179957526661 0.8948513605681832	0.107213
C	0.7774604029083780 0.9626480317038437 0.9615949003710090	-0.180547
C	0.7764393999877959 0.8930902459660518 0.9615030121879110	0.103953
C	0.7478128017966954 0.0717317180100017 0.8917714728501470	0.053729
C	0.6918590507463034 0.1076787339870662 0.8624793639171947	-0.131138
C	0.6926362052664009 0.1772355613508093 0.8599600424568354	-0.123380
C	0.7497933754973594 0.2131589407120524 0.8850628420101624	0.066878
C	0.8060726108662307 0.1772341513019190 0.9130956726267925	-0.117569
C	0.8048335216027991 0.1077271183332522 0.9172409897568159	-0.126970
C	0.7818958609623651 0.6092430817051417 0.8342381164456585	0.104384
C	0.7833748390386628 0.5397852777340235 0.8304692501456648	-0.177789
C	0.7528810080922563 0.5019820522473307 0.8948513605681832	0.107213
C	0.7225395970916220 0.5373520162961603 0.9615949003710090	-0.180543
C	0.7235606000122041 0.6069097540339482 0.9615030121879110	0.103952
C	0.7521871982033046 0.4282683179899942 0.8917714728501470	0.053730
C	0.8081409492536966 0.3923212540129329 0.8624793639171947	-0.131135
C	0.8073637467336022 0.3227644146491887 0.8599600424568354	-0.123381
C	0.7502066245026406 0.2868410592879475 0.8850628420101624	0.066879
C	0.6939273891337693 0.3227658246980790 0.9130956726267925	-0.117569
C	0.6951664313972006 0.3922728816667478 0.9172409897568159	-0.126968
C	0.6092430817051417 0.7818958609623651 0.3342381474456568	0.104386
C	0.5397852777340235 0.7833748390386628 0.3304692501456646	-0.177789
C	0.5019820522473307 0.7528810080922563 0.3948513605681833	0.107212
C	0.5373520162961603 0.7225395970916220 0.4615949313710151	-0.180543
C	0.6069097540339482 0.7235606000122041 0.4615030121879108	0.103951
C	0.4282683179899942 0.7521871982033046 0.3917714728501468	0.053730
C	0.3923212540129329 0.8081409492536966 0.3624793329171958	-0.131134
C	0.3227644146491887 0.8073637467336022 0.3599600734568345	-0.123381
C	0.2868410592879475 0.7502066245026406 0.3850627480101613	0.066878
C	0.3227658246980790 0.6939273891337693 0.4130957036267913	-0.117567
C	0.3922728816667478 0.6951664313972006 0.4172409897568161	-0.126967
C	0.8907569182948583 0.7181041390376349 0.3342381474456568	0.104386
C	0.9602147222659765 0.7166251609613372 0.3304692501456646	-0.177787
C	0.9980179957526661 0.7471189919077437 0.3948513605681833	0.107215
C	0.9626480317038437 0.7774604029083780 0.4615949313710151	-0.180547
C	0.8930902459660518 0.7764393999877959 0.4615030121879108	0.103953
C	0.0717317180100017 0.7478128017966954 0.3917714728501468	0.053729
C	0.1076787339870662 0.6918590507463034 0.3624793329171958	-0.131137
C	0.1772355613508093 0.6926362052664009 0.3599600734568345	-0.123382
C	0.2131589407120524 0.7497933754973594 0.3850627480101613	0.066879
C	0.1772341513019190 0.8060726108662307 0.4130957036267913	-0.117571
C	0.1077271183332522 0.8048335216027991 0.4172409897568161	-0.126968
C	0.7181041390376349 0.6092430817051417 0.3342381474456568	0.104385
C	0.7166251609613372 0.5397852777340235 0.3304692501456646	-0.177787
C	0.7471189919077437 0.5019820522473307 0.3948513605681833	0.107213
C	0.7774604029083780 0.5373520162961603 0.4615949313710151	-0.180545
C	0.7764393999877959 0.6069097540339482 0.4615030121879108	0.103951
C	0.7478128017966954 0.4282683179899942 0.3917714728501468	0.053730
C	0.6918590507463034 0.3923212540129329 0.3624793329171958	-0.131134
C	0.6926362052664009 0.3227644146491887 0.3599600734568345	-0.123380
C	0.7497933754973594 0.2868410592879475 0.3850627480101613	0.066880
C	0.8060726108662307 0.3227658246980790 0.4130957036267913	-0.117569
C	0.8048335216027991 0.3922728816667478 0.4172409897568161	-0.126966
C	0.7818958609623651 0.8907569182948583 0.3342381474456568	0.104388
C	0.7833748390386628 0.9602147222659765 0.3304692501456646	-0.177789
C	0.7528810080922563 0.9980179957526661 0.3948513605681833	0.107213
C	0.7225395970916220 0.9626480317038437 0.4615949313710151	-0.180545
C	0.7235606000122041 0.8930902459660518 0.4615030121879108	0.103954
C	0.7521871982033046 0.0717317180100017 0.3917714728501468	0.053729
C	0.8081409492536966 0.1076787339870662 0.3624793329171958	-0.131138
C	0.8073637467336022 0.1772355613508093 0.3599600734568345	-0.123383
C	0.7502066245026406 0.2131589407120524 0.3850627480101613	0.066877
C	0.6939273891337693 0.1772341513019190 0.4130957036267913	-0.117570
C	0.6951664313972006 0.1077271183332522 0.4172409897568161	-0.126969
C	0.3907568942948629 0.2818959329623641 0.1657618685543442	0.104387
C	0.4602146742659798 0.2833748870386594 0.1695307188543364	-0.177791
C	0.4980179477526694 0.2528810560922532 0.1051486394318169	0.107214
C	0.4626480797038406 0.2225395490916182 0.0384050646289917	-0.180544
C	0.3930902699660468 0.2235606480122011 0.0384969798120884	0.103952
C	0.5717316820100061 0.2521872462033011 0.1082285191498526	0.053729
C	0.6076787459870674 0.3081409492536966 0.1375206360828053	-0.131137
C	0.6772355133508052 0.3073637707335968 0.1400399105431643	-0.123382
C	0.7131589887120566 0.2502066245026409 0.1149372289898402	0.066880
C	0.6772341273019171 0.1939273891337691 0.0869043113732064	-0.117570
C	0.6077271423332470 0.1951664423971984 0.0827590252431816	-0.126970
C	0.1092430817051422 0.2181040910376378 0.1657618685543442	0.104384
C	0.0397852657340224 0.2166251369613426 0.1695307188543364	-0.177786
C	0.0019820312473325 0.2471189439077469 0.1051486394318169	0.107213
C	0.0373519472961581 0.2774604509083817 0.0384050646289917	-0.180547
C	0.1069096940339504 0.2764393759878009 0.0384969798120884	0.103951
C	0.9282682699899970 0.2478127297966968 0.1082285191498526	0.053730
C	0.8923213020129295 0.1918590857463027 0.1375206360828053	-0.131136
C	0.8227644866491948 0.1926362412663970 0.1400399105431643	-0.123380
C	0.7868410112879434 0.2497933514973572 0.1149372289898402	0.066878
C	0.8227659196980832 0.3060726108662309 0.0869043113732064	-0.117569
C	0.8922729536667539 0.3048335926028009 0.0827590252431816	-0.126966
C	0.2818959329623641 0.1092430817051422 0.1657618685543442	0.104384
C	0.2833748870386594 0.0397852657340224 0.1695307188543364	-0.177789
C	0.2528810560922532 0.0019820312473325 0.1051486394318169	0.107214
C	0.2225395490916182 0.0373519472961581 0.0384050646289917	-0.180543
C	0.2235606480122011 0.1069096940339504 0.0384969798120884	0.103952
C	0.2521872462033011 0.9282682699899970 0.1082285191498526	0.053730
C	0.3081409492536966 0.8923213020129295 0.1375206360828053	-0.131135
C	0.3073637707335968 0.8227644866491948 0.1400399105431643	-0.123382
C	0.2502066245026409 0.7868410112879434 0.1149372289898402	0.066879
C	0.1939273891337691 0.8227659196980832 0.0869043113732064	-0.117569
C	0.1951664423971984 0.8922729536667539 0.0827590252431816	-0.126967
C	0.2181040910376378 0.3907568942948629 0.1657618685543442	0.104389
C	0.2166251369613426 0.4602146742659798 0.1695307188543364	-0.177787
C	0.2471189439077469 0.4980179477526694 0.1051486394318169	0.107213
C	0.2774604509083817 0.4626480797038406 0.0384050646289917	-0.180547
C	0.2764393759878009 0.3930902699660468 0.0384969798120884	0.103953
C	0.2478127297966968 0.5717316820100061 0.1082285191498526	0.053729
C	0.1918590857463027 0.6076787459870674 0.1375206360828053	-0.131138
C	0.1926362412663970 0.6772355133508052 0.1400399105431643	-0.123381
C	0.2497933514973572 0.7131589887120566 0.1149372289898402	0.066878
C	0.3060726108662309 0.6772341273019171 0.0869043113732064	-0.117569
C	0.3048335926028009 0.6077271423332470 0.0827590252431816	-0.126969
H	0.3603540457781199 0.1963698518013950 0.7163963384887144	0.101163
H	0.4846429251087218 0.1935560970292934 0.7240622320764049	0.114561
H	0.4890646477927645 0.3006080563922830 0.4854156272026851	0.114916
H	0.3644034184567037 0.2986134091210625 0.4865598801038328	0.100525
H	0.5804734726703679 0.1470078350233051 0.6570011591366119	0.100506
H	0.7043356016673172 0.1488135109827416 0.6629165859494444	0.101567
H	0.7042664225387375 0.3504641531312179 0.5657035915523962	0.101684
H	0.5806212863495317 0.3489169841498867 0.5605584150748274	0.104005
H	0.1396459182218773 0.3036301721986070 0.7163963384887144	0.101161
H	0.0153570808912716 0.3064439269707086 0.7240622320764049	0.114564
H	0.0109353412072383 0.1993919556077180 0.4854156272026851	0.114913
H	0.1355966055432984 0.2013865788789365 0.4865598801038328	0.100525
H	0.9195265743296325 0.3529921649766947 0.6570011591366119	0.100507
H	0.7956643983326828 0.3511864770172574 0.6629165859494444	0.101566
H	0.7957335774612625 0.1495358588687830 0.5657035915523962	0.101689
H	0.9193787136504683 0.1510830038501195 0.5605584150748274	0.104007
H	0.3036301721986070 0.3603540457781199 0.7163963384887144	0.101163
H	0.3064439269707086 0.4846429251087218 0.7240622320764049	0.114564
H	0.1993919556077180 0.4890646477927645 0.4854156272026851	0.114915
H	0.2013865788789365 0.3644034184567037 0.4865598801038328	0.100525
H	0.3529921649766947 0.5804734726703679 0.6570011591366119	0.100505
H	0.3511864770172574 0.7043356016673172 0.6629165859494444	0.101565
H	0.1495358588687830 0.7042664225387375 0.5657035915523962	0.101687
H	0.1510830038501195 0.5806212863495317 0.5605584150748274	0.104008
H	0.1963698518013950 0.1396459182218773 0.7163963384887144	0.101161
H	0.1935560970292934 0.0153570808912716 0.7240622320764049	0.114561
H	0.3006080563922830 0.0109353412072383 0.4854156272026851	0.114914
H	0.2986134091210625 0.1355966055432984 0.4865598801038328	0.100525
H	0.1470078350233051 0.9195265743296325 0.6570011591366119	0.100507
H	0.1488135109827416 0.7956643983326828 0.6629165859494444	0.101567
H	0.3504641531312179 0.7957335774612625 0.5657035915523962	0.101686
H	0.3489169841498867 0.9193787136504683 0.5605584150748274	0.104004
H	0.6396459062218763 0.6963698518013952 0.7836036615112856	0.101161
H	0.5153570268912741 0.6935560730292913 0.7759377679235951	0.114561
H	0.5109353522072355 0.8006080563922829 0.0145843577973100	0.114914
H	0.6355965815432962 0.7986133851210609 0.0134401478961694	0.100524
H	0.4195265273296317 0.6470078350233051 0.8429988408633881	0.100507
H	0.2956644223326843 0.6488135229827426 0.8370834140505556	0.101567
H	0.2957335774612623 0.8504641531312183 0.9342964084476038	0.101686
H	0.4193787616504653 0.8489170081498816 0.9394415849251726	0.104007
H	0.8603541417781205 0.8036301961986088 0.7836036615112856	0.101162
H	0.9846428771087251 0.8064439269707087 0.7759377679235951	0.114562
H	0.9890645997927676 0.6993919436077171 0.0145843577973100	0.114915
H	0.8644033224567029 0.7013866148789391 0.0134401478961694	0.100527
H	0.0804734726703682 0.8529921649766949 0.8429988408633881	0.100505
H	0.2043355776673157 0.8511864770172574 0.8370834140505556	0.101565
H	0.2042664225387377 0.6495358948687786 0.9342964084476038	0.101687
H	0.0806212803495312 0.6510829918501184 0.9394415849251726	0.104005
H	0.6963698518013952 0.8603541417781205 0.7836036615112856	0.101162
H	0.6935560730292913 0.9846428771087251 0.7759377679235951	0.114562
H	0.8006080563922829 0.9890645997927676 0.0145843577973100	0.114917
H	0.7986133851210609 0.8644033224567029 0.0134401478961694	0.100526
H	0.6470078350233051 0.0804734726703682 0.8429988408633881	0.100507
H	0.6488135229827426 0.2043355776673157 0.8370834140505556	0.101566
H	0.8504641531312183 0.2042664225387377 0.9342964084476038	0.101686
H	0.8489170081498816 0.0806212803495312 0.9394415849251726	0.104005
H	0.8036301961986088 0.6396459062218763 0.7836036615112856	0.101162
H	0.8064439269707087 0.5153570268912741 0.7759377679235951	0.114562
H	0.6993919436077171 0.5109353522072355 0.0145843577973100	0.114913
H	0.7013866148789391 0.6355965815432962 0.0134401478961694	0.100524
H	0.8529921649766949 0.4195265273296317 0.8429988408633881	0.100505
H	0.8511864770172574 0.2956644223326843 0.8370834140505556	0.101566
H	0.6495358948687786 0.2957335774612623 0.9342964084476038	0.101688
H	0.6510829918501184 0.4193787616504653 0.9394415849251726	0.104007
H	0.6396459062218763 0.8036301961986088 0.2836036935112812	0.101161
H	0.5153570268912741 0.8064439269707087 0.2759377989235942	0.114562
H	0.5109353522072355 0.6993919436077171 0.5145843417973157	0.114912
H	0.6355965815432962 0.7013866148789391 0.5134401198961670	0.100525
H	0.4195265273296317 0.8529921649766949 0.3429988098633891	0.100506
H	0.2956644223326843 0.8511864770172574 0.3370833820505533	0.101566
H	0.2957335774612623 0.6495358948687786 0.4342964394476031	0.101689
H	0.4193787616504653 0.6510829918501184 0.4394416469251706	0.104006
H	0.8603541417781205 0.6963698518013952 0.2836036935112812	0.101162
H	0.9846428771087251 0.6935560730292913 0.2759377989235942	0.114559
H	0.9890645997927676 0.8006080563922829 0.5145843417973157	0.114914
H	0.8644033224567029 0.7986133851210609 0.5134401198961670	0.100525
H	0.0804734726703682 0.6470078350233051 0.3429988098633891	0.100505
H	0.2043355776673157 0.6488135229827426 0.3370833820505533	0.101566
H	0.2042664225387377 0.8504641531312183 0.4342964394476031	0.101684
H	0.0806212803495312 0.8489170081498816 0.4394416469251706	0.104003
H	0.6963698518013952 0.6396459062218763 0.2836036935112812	0.101161
H	0.6935560730292913 0.5153570268912741 0.2759377989235942	0.114559
H	0.8006080563922829 0.5109353522072355 0.5145843417973157	0.114913
H	0.7986133851210609 0.6355965815432962 0.5134401198961670	0.100525
H	0.6470078350233051 0.4195265273296317 0.3429988098633891	0.100507
H	0.6488135229827426 0.2956644223326843 0.3370833820505533	0.101567
H	0.8504641531312183 0.2957335774612623 0.4342964394476031	0.101687
H	0.8489170081498816 0.4193787616504653 0.4394416469251706	0.104003
H	0.8036301961986088 0.8603541417781205 0.2836036935112812	0.101162
H	0.8064439269707087 0.9846428771087251 0.2759377989235942	0.114562
H	0.6993919436077171 0.9890645997927676 0.5145843417973157	0.114913
H	0.7013866148789391 0.8644033224567029 0.5134401198961670	0.100525
H	0.8529921649766949 0.0804734726703682 0.3429988098633891	0.100504
H	0.8511864770172574 0.2043355776673157 0.3370833820505533	0.101565
H	0.6495358948687786 0.2042664225387377 0.4342964394476031	0.101687
H	0.6510829918501184 0.0806212803495312 0.4394416469251706	0.104006
H	0.3603540457781199 0.3036301721986070 0.2163963384887144	0.101162
H	0.4846429251087218 0.3064439269707086 0.2240622470764095	0.114561
H	0.4890646477927645 0.1993919556077180 0.9854156892026904	0.114913
H	0.3644034184567037 0.2013865788789365 0.9865598491038340	0.100526
H	0.5804734726703679 0.3529921649766947 0.1570011741366096	0.100505
H	0.7043356016673172 0.3511864770172574 0.1629166329494443	0.101565
H	0.7042664225387375 0.1495358588687830 0.0657035525523963	0.101687
H	0.5806212863495317 0.1510830038501195 0.0605583760748277	0.104004
H	0.1396459182218773 0.1963698518013950 0.2163963384887144	0.101161
H	0.0153570808912716 0.1935560970292934 0.2240622470764095	0.114560
H	0.0109353412072383 0.3006080563922830 0.9854156892026904	0.114912
H	0.1355966055432984 0.2986134091210625 0.9865598491038340	0.100524
H	0.9195265743296325 0.1470078350233051 0.1570011741366096	0.100507
H	0.7956643983326828 0.1488135109827416 0.1629166329494443	0.101567
H	0.7957335774612625 0.3504641531312179 0.0657035525523963	0.101686
H	0.9193787136504683 0.3489169841498867 0.0605583760748277	0.104005
H	0.3036301721986070 0.1396459182218773 0.2163963384887144	0.101162
H	0.3064439269707086 0.0153570808912716 0.2240622470764095	0.114560
H	0.1993919556077180 0.0109353412072383 0.9854156892026904	0.114911
H	0.2013865788789365 0.1355966055432984 0.9865598491038340	0.100524
H	0.3529921649766947 0.9195265743296325 0.1570011741366096	0.100504
H	0.3511864770172574 0.7956643983326828 0.1629166329494443	0.101566
H	0.1495358588687830 0.7957335774612625 0.0657035525523963	0.101688
H	0.1510830038501195 0.9193787136504683 0.0605583760748277	0.104005
H	0.1963698518013950 0.3603540457781199 0.2163963384887144	0.101162
H	0.1935560970292934 0.4846429251087218 0.2240622470764095	0.114560
H	0.3006080563922830 0.4890646477927645 0.9854156892026904	0.114915
H	0.2986134091210625 0.3644034184567037 0.9865598491038340	0.100526
H	0.1470078350233051 0.5804734726703679 0.1570011741366096	0.100507
H	0.1488135109827416 0.7043356016673172 0.1629166329494443	0.101566
H	0.3504641531312179 0.7042664225387375 0.0657035525523963	0.101685
H	0.3489169841498867 0.5806212863495317 0.0605583760748277	0.104004
Zn	0.2500000000000000 0.2500000000000000 0.6007354223292335	0.763482
Zn	0.7500000000000000 0.7500000000000000 0.8992645776707665	0.763482
Zn	0.7500000000000000 0.7500000000000000 0.3992645156707684	0.763478
Zn	0.2500000000000000 0.2500000000000000 0.1007354453292319	0.763478
Ti	0.2500000000000000 0.2500000000000000 0.3510171440276870	2.340210
Ti	0.7500000000000000 0.7500000000000000 0.1489828709723108	2.340210
Ti	0.7500000000000000 0.7500000000000000 0.6489829489723100	2.340209
Ti	0.2500000000000000 0.2500000000000000 0.8510170510276900	2.340210
	  	
