#======================================================================

# CRYSTAL DATA

#----------------------------------------------------------------------

data_VESTA_phase_1


_pd_phase_name                         TIFSIX_1_Co
_cell_length_a                         11.00833
_cell_length_b                         11.00833
_cell_length_c                         8.13795
_cell_angle_alpha                      90
_cell_angle_beta                       90
_cell_angle_gamma                      90
_symmetry_space_group_name_H-M         P 1
_symmetry_Int_Tables_number            1

loop_
_symmetry_equiv_pos_as_xyz
   x, y, z

loop_
   _atom_site_label
   _atom_site_fract_x
   _atom_site_fract_y
   _atom_site_fract_z
   _atom_site_charge
C	0.2591400636103319 0.4574294542356436 0.3691922213973691	0.097386
C	0.1329140756293400 0.4567894669931590 0.3649503240447698	-0.167882
C	0.7408600233896714 0.5425705887643564 0.3691922213973691	0.097405
C	0.8670859683706639 0.5432105330068410 0.3649503240447698	-0.167969
C	0.5425705887643563 0.2591400636103319 0.3691922213973691	0.097386
C	0.5432105330068410 0.1329140756293400 0.3649503240447698	-0.167882
C	0.4574294542356436 0.7408600233896714 0.3691922213973691	0.097405
C	0.4567894669931590 0.8670859683706639 0.3649503240447698	-0.167969
C	0.7408600233896714 0.4574294542356436 0.6308077486026286	0.097406
C	0.8670859683706639 0.4567894669931590 0.6350496469552238	-0.167967
C	0.2591400636103319 0.5425705887643564 0.6308077486026286	0.097386
C	0.1329140756293400 0.5432105330068410 0.6350496469552238	-0.167880
C	0.4574294542356436 0.2591400636103319 0.6308077486026286	0.097387
C	0.4567894669931590 0.1329140756293400 0.6350496469552238	-0.167880
C	0.5425705887643563 0.7408600233896714 0.6308077486026286	0.097406
C	0.5432105330068410 0.8670859683706639 0.6350496469552238	-0.167967
C	0.0670195450965183 0.5000000000000000 0.5000000000000000	0.098681
C	0.9329805309034810 0.5000000000000000 0.5000000000000000	0.098766
C	0.5000000000000000 0.0670195450965183 0.5000000000000000	0.098681
C	0.5000000000000000 0.9329805309034810 0.5000000000000000	0.098766
H	0.3120275089803670 0.4247322445817480 0.2649876943487262	0.106339
H	0.0867593793031240 0.4208678497065729 0.2569910002505206	0.125982
H	0.6879724480196329 0.5752677554182521 0.2649876943487262	0.106338
H	0.9132406366968774 0.5791321502934274 0.2569910002505206	0.125995
H	0.5752677554182521 0.3120275089803670 0.2649876943487262	0.106339
H	0.5791321502934274 0.0867593793031240 0.2569910002505206	0.125983
H	0.4247322445817480 0.6879724480196329 0.2649876943487262	0.106338
H	0.4208678497065729 0.9132406366968774 0.2569910002505206	0.125997
H	0.6879724480196329 0.4247322445817480 0.7350122766512750	0.106338
H	0.9132406366968774 0.4208678497065729 0.7430090587494808	0.125995
H	0.3120275089803670 0.5752677554182521 0.7350122766512750	0.106339
H	0.0867593793031240 0.5791321502934274 0.7430090587494808	0.125979
H	0.4247322445817480 0.3120275089803670 0.7350122766512750	0.106339
H	0.4208678497065729 0.0867593793031240 0.7430090587494808	0.125982
H	0.5752677554182521 0.6879724480196329 0.7350122766512750	0.106338
H	0.5791321502934274 0.9132406366968774 0.7430090587494808	0.125995
Co	0.5000000000000000 0.5000000000000000 0.5000000000000000	0.590793
Ti	0.5000000000000000 0.5000000000000000 -0.0000000000000000	2.314353
F	0.5000000000000000 0.5000000000000000 0.7636549486386897	-0.618985
F	0.5000000000000000 0.5000000000000000 0.2363450513613104	-0.618985
F	0.3779862514155819 0.3779862514155819 -0.0000000000000000	-0.651851
F	0.6220137485844180 0.6220137485844180 -0.0000000000000000	-0.651851
F	0.6220137485844180 0.3779862514155819 -0.0000000000000000	-0.651851
F	0.3779862514155819 0.6220137485844180 -0.0000000000000000	-0.651851
N	0.3214367710760103 0.5000000000000000 0.5000000000000000	-0.187261
N	0.6785632509239915 0.5000000000000000 0.5000000000000000	-0.187267
N	0.5000000000000000 0.3214367710760103 0.5000000000000000	-0.187261
N	0.5000000000000000 0.6785632509239915 0.5000000000000000	-0.187267
	  	
