#======================================================================

# CRYSTAL DATA

#----------------------------------------------------------------------

data_VESTA_phase_1


_pd_phase_name                         TIFSIX_4_Fe_i
_cell_length_a                         23.37187
_cell_length_b                         20.42089
_cell_length_c                         9.47939
_cell_angle_alpha                      90
_cell_angle_beta                       90
_cell_angle_gamma                      90
_symmetry_space_group_name_H-M         P 1
_symmetry_Int_Tables_number            1

loop_
_symmetry_equiv_pos_as_xyz
   x, y, z

loop_
   _atom_site_label
   _atom_site_fract_x
   _atom_site_fract_y
   _atom_site_fract_z
   _atom_site_charge
C	0.4177174143513201 0.5973798953933440 0.6288167361453860	0.093742
C	0.3738718617805883 0.5516537295137557 0.6269573475693243	-0.166687
C	0.2774316662531949 0.4486734891251847 0.6262064904270443	-0.116806
C	0.2312358043253425 0.4059860936252898 0.6249995643786025	-0.113006
C	0.1294397776725431 0.3190960590797475 0.6238523833659861	-0.164509
C	0.0827338283717047 0.2772328521542356 0.6270898680242232	0.088938
C	0.9177174973513165 0.0973799063933487 0.6288167361453860	0.093736
C	0.8738718197805920 0.0516536715137579 0.6269573475693243	-0.166683
C	0.7774316872531998 0.9486735361251848 0.6262064904270443	-0.116785
C	0.7312357843253410 0.9059861396252867 0.6249995643786025	-0.113076
C	0.6294397776725429 0.8190961060797483 0.6238523833659861	-0.164509
C	0.5827338133717004 0.7772329451542328 0.6270898680242233	0.088940
C	0.5822825856486797 0.4026200586066520 0.1288167441453865	0.093745
C	0.6261281802194080 0.4483463164862481 0.1269573625693218	-0.166686
C	0.7225683127468002 0.5513264638748152 0.1262064984270449	-0.116784
C	0.7687642156746590 0.5940139063747100 0.1249995723786033	-0.113076
C	0.8705602223274571 0.6809039409202521 0.1238523903659901	-0.164509
C	0.9172661866282996 0.7227671018457675 0.1270898830242212	0.088940
C	0.0822825966486843 0.9026201516066563 0.1288167441453865	0.093747
C	0.1261281382194114 0.9483462244862476 0.1269573625693219	-0.166689
C	0.2225683547468033 0.0513265108748152 0.1262064984270449	-0.116805
C	0.2687641746746595 0.0940138833747117 0.1249995723786033	-0.113007
C	0.3705602643274601 0.1809039519202499 0.1238523903659901	-0.164509
C	0.4172661866283001 0.2227671718457664 0.1270898830242211	0.088938
C	0.5822825856486797 0.5973798953933440 0.8711832328546150	0.093747
C	0.6261281802194080 0.5516537295137557 0.8730426214306767	-0.166688
C	0.7225683127468002 0.4486734891251847 0.8737935405729547	-0.116806
C	0.7687642156746590 0.4059860936252898 0.8750004666213965	-0.113007
C	0.8705602223274571 0.3190960590797475 0.8761476476340129	-0.164510
C	0.9172661866282996 0.2772328521542356 0.8729101629757758	0.088939
C	0.0822825966486843 0.0973799063933487 0.8711832328546150	0.093745
C	0.1261281382194114 0.0516536715137579 0.8730426214306767	-0.166685
C	0.2225683547468033 0.9486735361251848 0.8737935405729547	-0.116785
C	0.2687641746746595 0.9059861396252867 0.8750004666213965	-0.113076
C	0.3705602643274601 0.8190961060797483 0.8761476476340129	-0.164510
C	0.4172661866283001 0.7772329451542327 0.8729101629757758	0.088940
C	0.4177174143513201 0.4026200586066520 0.3711832638546139	0.093745
C	0.3738718617805883 0.4483463164862481 0.3730426214306769	-0.166686
C	0.2774316662531949 0.5513264638748152 0.3737935095729558	-0.116784
C	0.2312358043253425 0.5940139063747100 0.3750004046213983	-0.113077
C	0.1294397776725431 0.6809039409202521 0.3761475856340079	-0.164510
C	0.0827338283717047 0.7227671018457675 0.3729101009757776	0.088939
C	0.9177174973513165 0.9026201516066563 0.3711832638546139	0.093748
C	0.8738718197805920 0.9483462244862476 0.3730426214306769	-0.166685
C	0.7774316872531998 0.0513265108748152 0.3737935095729558	-0.116805
C	0.7312357843253410 0.0940138833747117 0.3750004046213983	-0.113007
C	0.6294397776725429 0.1809039519202499 0.3761475856340079	-0.164510
C	0.5827338133717004 0.2227671718457664 0.3729101009757776	0.088938
C	0.5822825856486797 0.4026200586066520 0.3711832638546139	0.093746
C	0.6261281802194080 0.4483463164862481 0.3730426214306769	-0.166686
C	0.7225683127468002 0.5513264638748152 0.3737935095729558	-0.116784
C	0.7687642156746590 0.5940139063747100 0.3750004046213983	-0.113076
C	0.8705602223274571 0.6809039409202521 0.3761475856340079	-0.164510
C	0.9172661866282996 0.7227671018457675 0.3729101009757776	0.088940
C	0.0822825966486843 0.9026201516066563 0.3711832638546139	0.093748
C	0.1261281382194114 0.9483462244862476 0.3730426214306769	-0.166689
C	0.2225683547468033 0.0513265108748152 0.3737935095729558	-0.116805
C	0.2687641746746595 0.0940138833747117 0.3750004046213983	-0.113007
C	0.3705602643274601 0.1809039519202499 0.3761475856340079	-0.164510
C	0.4172661866283001 0.2227671718457664 0.3729101009757776	0.088938
C	0.4177174143513201 0.5973798953933440 0.8711832328546150	0.093748
C	0.3738718617805883 0.5516537295137557 0.8730426214306767	-0.166688
C	0.2774316662531949 0.4486734891251847 0.8737935405729547	-0.116806
C	0.2312358043253425 0.4059860936252898 0.8750004666213965	-0.113006
C	0.1294397776725431 0.3190960590797475 0.8761476476340129	-0.164511
C	0.0827338283717047 0.2772328521542356 0.8729101629757758	0.088939
C	0.9177174973513165 0.0973799063933487 0.8711832328546150	0.093747
C	0.8738718197805920 0.0516536715137579 0.8730426214306767	-0.166683
C	0.7774316872531998 0.9486735361251848 0.8737935405729547	-0.116785
C	0.7312357843253410 0.9059861396252867 0.8750004666213965	-0.113076
C	0.6294397776725429 0.8190961060797483 0.8761476476340129	-0.164511
C	0.5827338133717004 0.7772329451542328 0.8729101629757758	0.088940
C	0.4177174143513201 0.4026200586066520 0.1288167441453865	0.093746
C	0.3738718617805883 0.4483463164862481 0.1269573625693218	-0.166686
C	0.2774316662531949 0.5513264638748152 0.1262064984270449	-0.116784
C	0.2312358043253425 0.5940139063747100 0.1249995723786033	-0.113077
C	0.1294397776725431 0.6809039409202521 0.1238523903659901	-0.164511
C	0.0827338283717047 0.7227671018457675 0.1270898830242212	0.088940
C	0.9177174973513165 0.9026201516066563 0.1288167441453865	0.093749
C	0.8738718197805920 0.9483462244862476 0.1269573625693219	-0.166685
C	0.7774316872531998 0.0513265108748152 0.1262064984270449	-0.116805
C	0.7312357843253410 0.0940138833747117 0.1249995723786033	-0.113007
C	0.6294397776725429 0.1809039519202499 0.1238523903659901	-0.164511
C	0.5827338133717004 0.2227671718457664 0.1270898830242211	0.088938
C	0.5822825856486797 0.5973798953933440 0.6288167361453860	0.093744
C	0.6261281802194079 0.5516537295137557 0.6269573475693243	-0.166687
C	0.7225683127468002 0.4486734891251847 0.6262064904270443	-0.116806
C	0.7687642156746590 0.4059860936252898 0.6249995643786025	-0.113007
C	0.8705602223274571 0.3190960590797475 0.6238523833659860	-0.164512
C	0.9172661866282996 0.2772328521542356 0.6270898680242232	0.088939
C	0.0822825966486843 0.0973799063933487 0.6288167361453860	0.093741
C	0.1261281382194114 0.0516536715137579 0.6269573475693243	-0.166684
C	0.2225683547468033 0.9486735361251848 0.6262064904270443	-0.116786
C	0.2687641746746595 0.9059861396252867 0.6249995643786025	-0.113076
C	0.3705602643274601 0.8190961060797483 0.6238523833659861	-0.164512
C	0.4172661866283001 0.7772329451542328 0.6270898680242232	0.088940
C	0.3494141560219299 0.5246636739579799 0.7500000149999977	0.116807
C	0.3022162335125990 0.4745391730275555 0.7500000149999977	0.073685
C	0.2054558518380536 0.3841862032710461 0.7500000149999977	0.066453
C	0.1549312697954494 0.3407911474187474 0.7500000149999977	0.100760
C	0.8494141140219339 0.0246636569579815 0.7500000149999977	0.116801
C	0.8022162955125968 0.9745391260275555 0.7500000149999977	0.073719
C	0.7054558518380535 0.8841862262710443 0.7500000149999977	0.066487
C	0.6549312697954496 0.8407910784187448 0.7500000149999977	0.100758
C	0.6505858439780697 0.4753363720420175 0.2500000000000000	0.116802
C	0.6977837044874032 0.5254608269724441 0.2500000000000000	0.073719
C	0.7945441481619465 0.6158138207289561 0.2500000000000000	0.066488
C	0.8450687712045574 0.6592088295812547 0.2500000000000000	0.100758
C	0.1505858549780672 0.9753364190420172 0.2500000000000000	0.116807
C	0.1977837874873992 0.0254608299724410 0.2500000000000000	0.073684
C	0.2945441481619464 0.1158137737289556 0.2500000000000000	0.066454
C	0.3450687302045506 0.1592088635812571 0.2500000000000000	0.100759
C	0.6505858439780697 0.5246636739579799 0.7500000149999977	0.116806
C	0.6977837044874032 0.4745391730275555 0.7500000149999977	0.073685
C	0.7945441481619465 0.3841862032710461 0.7500000149999977	0.066453
C	0.8450687712045574 0.3407911474187474 0.7500000149999977	0.100760
C	0.1505858549780672 0.0246636569579815 0.7500000149999977	0.116802
C	0.1977837874873992 0.9745391260275555 0.7500000149999977	0.073720
C	0.2945441481619464 0.8841862262710443 0.7500000149999977	0.066488
C	0.3450687302045506 0.8407910784187448 0.7500000149999977	0.100758
C	0.3494141560219299 0.4753363720420175 0.2500000000000000	0.116802
C	0.3022162335125990 0.5254608269724441 0.2500000000000000	0.073719
C	0.2054558518380536 0.6158138207289561 0.2500000000000000	0.066488
C	0.1549312697954494 0.6592088295812547 0.2500000000000000	0.100758
C	0.8494141140219339 0.9753364190420172 0.2500000000000000	0.116806
C	0.8022162955125968 0.0254608299724410 0.2500000000000000	0.073684
C	0.7054558518380535 0.1158137737289556 0.2500000000000000	0.066454
C	0.6549312697954496 0.1592088635812571 0.2500000000000000	0.100760
H	0.4357295303482550 0.6164861436439047 0.5307204895820248	0.115250
H	0.3606894875565324 0.5391363693816118 0.5218742150921855	0.107106
H	0.2934323398965789 0.4607127903142342 0.5232623516415842	0.086610
H	0.2154838672613638 0.3899409495663793 0.5225286350224213	0.104511
H	0.1454619045720395 0.3338716177990849 0.5208582904352642	0.123515
H	0.0627673564162799 0.2591118772575755 0.5303532493457811	0.116157
H	0.9357294883482519 0.1164861786439043 0.5307204895820248	0.115257
H	0.8606894465565328 0.0391363053816065 0.5218742150921855	0.107109
H	0.7934323188965812 0.9607127903142344 0.5232623516415842	0.086617
H	0.7154838252613603 0.8899408805663847 0.5225286350224213	0.104521
H	0.6454618945720392 0.8338716177990855 0.5208582904352643	0.123515
H	0.5627673874162785 0.7591118542575773 0.5303532493457811	0.116157
H	0.5642704696517447 0.3835138563560950 0.0307205515820227	0.115247
H	0.6393105124434674 0.4608636776183889 0.0218742150921853	0.107108
H	0.7065676811034188 0.5392871636857618 0.0232624136415825	0.086617
H	0.7845161747386397 0.6100590274336148 0.0225285740224196	0.104521
H	0.8545381054279608 0.6661283362009107 0.0208582904352644	0.123515
H	0.9372325715837216 0.7408881457424227 0.0303532183457824	0.116158
H	0.0642704756517452 0.8835138563560953 0.0307205515820227	0.115247
H	0.1393105534434675 0.9608636776183885 0.0218742150921853	0.107106
H	0.2065676811034189 0.0392872066857622 0.0232624136415825	0.086611
H	0.2845161327386361 0.1100590614336179 0.0225285740224196	0.104511
H	0.3545381054279613 0.1661283592009093 0.0208582904352644	0.123515
H	0.4372326125837210 0.2408881227424246 0.0303532183457824	0.116157
H	0.5642704696517447 0.6164861436439047 -0.0307205085820228	0.115246
H	0.6393105124434674 0.5391363693816118 -0.0218742420921913	0.107106
H	0.7065676811034188 0.4607127903142342 -0.0232623696415785	0.086610
H	0.7845161747386397 0.3899409495663793 -0.0225286280224168	0.104511
H	0.8545381054279608 0.3338716177990849 -0.0208582904352644	0.123515
H	0.9372325715837216 0.2591118772575755 -0.0303532563457852	0.116157
H	0.0642704756517452 0.1164861786439043 -0.0307205085820228	0.115246
H	0.1393105534434675 0.0391363053816065 -0.0218742420921913	0.107108
H	0.2065676811034189 0.9607127903142344 -0.0232623696415785	0.086616
H	0.2845161327386361 0.8899408805663847 -0.0225286280224168	0.104521
H	0.3545381054279613 0.8338716177990855 -0.0208582904352644	0.123515
H	0.4372326125837210 0.7591118542575773 -0.0303532563457852	0.116157
H	0.4357295303482550 0.3835138563560950 0.4692794794179760	0.115246
H	0.3606894875565324 0.4608636776183889 0.4781258159078138	0.107108
H	0.2934323398965789 0.5392871636857618 0.4767376173584166	0.086616
H	0.2154838672613638 0.6100590274336148 0.4774713339775799	0.104521
H	0.1454619045720395 0.6661283362009107 0.4791416785647364	0.123515
H	0.0627673564162799 0.7408881457424227 0.4696467506542186	0.116157
H	0.9357294883482519 0.8835138563560953 0.4692794794179760	0.115244
H	0.8606894465565328 0.9608636776183885 0.4781258159078138	0.107106
H	0.7934323188965812 0.0392872066857621 0.4767376173584166	0.086610
H	0.7154838252613603 0.1100590614336179 0.4774713339775799	0.104511
H	0.6454618945720392 0.1661283592009093 0.4791416785647364	0.123514
H	0.5627673874162785 0.2408881227424246 0.4696467506542186	0.116156
H	0.5642704696517447 0.3835138563560950 0.4692794794179760	0.115246
H	0.6393105124434674 0.4608636776183889 0.4781258159078138	0.107108
H	0.7065676811034188 0.5392871636857618 0.4767376173584167	0.086617
H	0.7845161747386397 0.6100590274336148 0.4774713339775799	0.104521
H	0.8545381054279608 0.6661283362009107 0.4791416785647364	0.123515
H	0.9372325715837216 0.7408881457424227 0.4696467506542186	0.116158
H	0.0642704756517452 0.8835138563560953 0.4692794794179760	0.115247
H	0.1393105534434675 0.9608636776183885 0.4781258159078138	0.107106
H	0.2065676811034189 0.0392872066857622 0.4767376173584167	0.086610
H	0.2845161327386361 0.1100590614336179 0.4774713339775799	0.104511
H	0.3545381054279613 0.1661283592009093 0.4791416785647364	0.123514
H	0.4372326125837210 0.2408881227424246 0.4696467506542186	0.116157
H	0.4357295303482551 0.6164861436439047 -0.0307205085820228	0.115247
H	0.3606894875565324 0.5391363693816118 -0.0218742420921913	0.107106
H	0.2934323398965789 0.4607127903142342 -0.0232623696415785	0.086610
H	0.2154838672613638 0.3899409495663793 -0.0225286280224168	0.104511
H	0.1454619045720395 0.3338716177990849 -0.0208582904352644	0.123515
H	0.0627673564162799 0.2591118772575755 -0.0303532563457852	0.116157
H	0.9357294883482519 0.1164861786439043 -0.0307205085820228	0.115244
H	0.8606894465565328 0.0391363053816065 -0.0218742420921913	0.107108
H	0.7934323188965812 0.9607127903142344 -0.0232623696415785	0.086617
H	0.7154838252613603 0.8899408805663847 -0.0225286280224168	0.104521
H	0.6454618945720392 0.8338716177990855 -0.0208582904352644	0.123515
H	0.5627673874162785 0.7591118542575773 -0.0303532563457852	0.116157
H	0.4357295303482551 0.3835138563560950 0.0307205515820227	0.115247
H	0.3606894875565324 0.4608636776183889 0.0218742150921853	0.107108
H	0.2934323398965789 0.5392871636857618 0.0232624136415825	0.086617
H	0.2154838672613638 0.6100590274336148 0.0225285740224196	0.104521
H	0.1454619045720395 0.6661283362009107 0.0208582904352644	0.123515
H	0.0627673564162799 0.7408881457424227 0.0303532183457824	0.116158
H	0.9357294883482519 0.8835138563560953 0.0307205515820227	0.115244
H	0.8606894465565328 0.9608636776183885 0.0218742150921853	0.107106
H	0.7934323188965812 0.0392872066857622 0.0232624136415825	0.086610
H	0.7154838252613603 0.1100590614336179 0.0225285740224196	0.104511
H	0.6454618945720392 0.1661283592009093 0.0208582904352644	0.123515
H	0.5627673874162785 0.2408881227424246 0.0303532183457824	0.116157
H	0.5642704696517447 0.6164861436439047 0.5307204895820248	0.115250
H	0.6393105124434674 0.5391363693816118 0.5218742150921855	0.107106
H	0.7065676811034188 0.4607127903142342 0.5232623516415842	0.086610
H	0.7845161747386397 0.3899409495663793 0.5225286350224213	0.104511
H	0.8545381054279608 0.3338716177990849 0.5208582904352643	0.123515
H	0.9372325715837216 0.2591118772575755 0.5303532493457811	0.116157
H	0.0642704756517452 0.1164861786439043 0.5307204895820248	0.115249
H	0.1393105534434675 0.0391363053816065 0.5218742150921855	0.107108
H	0.2065676811034189 0.9607127903142344 0.5232623516415842	0.086617
H	0.2845161327386361 0.8899408805663847 0.5225286350224213	0.104521
H	0.3545381054279613 0.8338716177990855 0.5208582904352643	0.123515
H	0.4372326125837210 0.7591118542575773 0.5303532493457811	0.116157
Fe	0.5000000000000000 0.6883274651152235 0.7500000149999977	0.600110
Fe	-0.0000000000000000 0.1883275231152210 0.7500000149999977	0.600144
Fe	0.5000000000000000 0.3116724648847779 0.2500000000000000	0.600145
Fe	-0.0000000000000000 0.8116725348847765 0.2500000000000000	0.600111
F	0.5000000000000000 0.6854536266894363 0.4598420553991016	-0.664488
F	-0.0000000000000000 0.1854536616894356 0.4598420553991016	-0.664499
F	0.5000000000000000 0.3145463503105584 0.9598420553991013	-0.664498
F	-0.0000000000000000 0.8145463733105637 0.9598420553991013	-0.664495
F	0.5000000000000000 0.6854536266894363 0.0401579306008972	-0.664488
F	-0.0000000000000000 0.1854536616894356 0.0401579306008972	-0.664498
F	0.5000000000000000 0.3145463503105584 0.5401579146008962	-0.664498
F	-0.0000000000000000 0.8145463733105637 0.5401579146008962	-0.664495
F	0.4425510747917840 0.7492849904863996 0.2500000000000000	-0.671196
F	0.5571739513990966 0.6182996473706951 0.2500000000000000	-0.664660
F	0.9425510747917841 0.2492849904863998 0.2500000000000000	-0.671196
F	0.0571739723991020 0.1182996473706948 0.2500000000000000	-0.664659
F	0.5574488842082160 0.2507149865136020 0.7500000149999977	-0.671176
F	0.4428260486009032 0.3817003526293051 0.7500000149999977	-0.664687
F	0.0574489362082204 0.7507150095136004 0.7500000149999977	-0.671195
F	0.9428260486009034 0.8817003526293049 0.7500000149999977	-0.664660
F	0.5574488842082160 0.7492849904863996 0.2500000000000000	-0.671196
F	0.4428260486009032 0.6182996473706951 0.2500000000000000	-0.664660
F	0.0574489362082204 0.2492849904863998 0.2500000000000000	-0.671196
F	0.9428260486009034 0.1182996473706948 0.2500000000000000	-0.664659
F	0.4425510747917840 0.2507149865136020 0.7500000149999977	-0.671176
F	0.5571739513990966 0.3817003526293051 0.7500000149999977	-0.664687
F	0.9425510747917841 0.7507150095136004 0.7500000149999977	-0.671195
F	0.0571739723991020 0.8817003526293049 0.7500000149999977	-0.664660
N	0.4401356567813229 0.6201478066294255 0.7500000149999977	-0.183345
N	0.5601707742083284 0.7560096137275580 0.7500000149999977	-0.194138
N	0.9401356157813164 0.1201477946294250 0.7500000149999977	-0.183354
N	0.0601707482083261 0.2560095907275528 0.7500000149999977	-0.194137
N	0.5598643432186767 0.3798521933705740 0.2500000000000000	-0.183353
N	0.4398292257916718 0.2439904092724471 0.2500000000000000	-0.194137
N	0.0598643432186769 0.8798521933705745 0.2500000000000000	-0.183344
N	0.9398292667916714 0.7439903862724420 0.2500000000000000	-0.194138
N	0.5598643432186766 0.6201478066294255 0.7500000149999977	-0.183345
N	0.4398292257916718 0.7560096137275580 0.7500000149999977	-0.194138
N	0.0598643432186769 0.1201477946294250 0.7500000149999977	-0.183352
N	0.9398292667916714 0.2560095907275528 0.7500000149999977	-0.194137
N	0.4401356567813229 0.3798521933705740 0.2500000000000000	-0.183353
N	0.5601707742083284 0.2439904092724471 0.2500000000000000	-0.194137
N	0.9401356157813163 0.8798521933705745 0.2500000000000000	-0.183343
N	0.0601707482083261 0.7439903862724420 0.2500000000000000	-0.194138
Ti	0.5000000000000000 0.6840794677507308 0.2500000000000000	2.340842
Ti	-0.0000000000000000 0.1840794917507328 0.2500000000000000	2.340845
Ti	0.5000000000000000 0.3159204852492687 0.7500000149999977	2.340865
Ti	-0.0000000000000000 0.8159205322492692 0.7500000149999977	2.340845
	  	
