#======================================================================

# CRYSTAL DATA

#----------------------------------------------------------------------

data_VESTA_phase_1


_pd_phase_name                         TIFSIX_16_Zn_i
_cell_length_a                         25.13387
_cell_length_b                         25.13387
_cell_length_c                         7.83832
_cell_angle_alpha                      90
_cell_angle_beta                       90
_cell_angle_gamma                      90
_symmetry_space_group_name_H-M         P 1
_symmetry_Int_Tables_number            1

loop_
_symmetry_equiv_pos_as_xyz
   x, y, z

loop_
   _atom_site_label
   _atom_site_fract_x
   _atom_site_fract_y
   _atom_site_fract_z
   _atom_site_charge
C	0.4781269267785790 0.3870585577237816 0.3694103746119604	0.102606
C	0.4772081266610727 0.3318295964530521 0.3645534430652660	-0.169861
C	0.9550017918617969 0.6130729465063837 0.9433891110100238	-0.125738
C	0.9551592260646475 0.5577982997991534 0.9440950774376584	-0.123989
C	0.5218731112214171 0.6129414802762143 0.3694103746119604	0.102605
C	0.5227918733389275 0.6681704415469440 0.3645534430652660	-0.169841
C	0.0449981321382042 0.3869270144936167 0.9433891110100238	-0.125738
C	0.0448407929353508 0.4422017382008497 0.9440950774376584	-0.123989
C	0.6129414802762143 0.4781269267785790 0.3694103746119604	0.102605
C	0.6681704415469440 0.4772081266610727 0.3645534430652660	-0.169841
C	0.3869270144936167 0.9550017918617969 0.9433891110100238	-0.125737
C	0.4422017382008497 0.9551592260646475 0.9440950774376584	-0.123989
C	0.3870585577237816 0.5218731112214171 0.3694103746119604	0.102606
C	0.3318295964530521 0.5227918733389275 0.3645534430652660	-0.169861
C	0.6130729465063837 0.0449981321382042 0.9433891110100238	-0.125738
C	0.5577982997991534 0.0448407929353508 0.9440950774376584	-0.123989
C	0.5218731112214171 0.3870585577237816 0.6305896253880401	0.102607
C	0.5227918733389275 0.3318295964530521 0.6354465249347315	-0.169860
C	0.0449981321382042 0.6130729465063837 0.0566109009899771	-0.125738
C	0.0448407929353508 0.5577982997991534 0.0559048985623399	-0.123989
C	0.4781269267785790 0.6129414802762143 0.6305896253880401	0.102605
C	0.4772081266610727 0.6681704415469440 0.6354465249347315	-0.169840
C	0.9550017918617969 0.3869270144936167 0.0566109009899771	-0.125737
C	0.9551592260646475 0.4422017382008497 0.0559048985623399	-0.123989
C	0.3870585577237816 0.4781269267785790 0.6305896253880401	0.102607
C	0.3318295964530521 0.4772081266610727 0.6354465249347315	-0.169860
C	0.6130729465063837 0.9550017918617969 0.0566109009899771	-0.125738
C	0.5577982997991534 0.9551592260646475 0.0559048985623399	-0.123989
C	0.6129414802762143 0.5218731112214171 0.6305896253880401	0.102605
C	0.6681704415469440 0.5227918733389275 0.6354465249347315	-0.169840
C	0.3869270144936167 0.0449981321382042 0.0566109009899771	-0.125738
C	0.4422017382008497 0.0448407929353508 0.0559048985623399	-0.123989
C	0.5449981701382071 0.8869269764936206 0.5566109209899718	-0.125736
C	0.5448407739353525 0.9422017382008497 0.5559048905623389	-0.123989
C	0.0218730652214202 0.1129414232762205 0.1305896253880399	0.102606
C	0.0227918713389273 0.1681704035469480 0.1354465409347326	-0.169860
C	0.4550018678617958 0.1130729945063807 0.5566109209899718	-0.125737
C	0.4551591880646513 0.0577982467991526 0.5559048905623389	-0.123989
C	0.9781268887785829 0.8870585197237857 0.1305896253880399	0.102606
C	0.9772081266610725 0.8318295964530520 0.1354465409347326	-0.169861
C	0.1130729945063807 0.5449981701382071 0.5566109209899718	-0.125737
C	0.0577982467991526 0.5448407739353525 0.5559048905623389	-0.123989
C	0.8870585197237857 0.0218730652214202 0.1305896253880399	0.102606
C	0.8318295964530520 0.0227918713389273 0.1354465409347326	-0.169861
C	0.8869269764936206 0.4550018678617958 0.5566109209899718	-0.125736
C	0.9422017382008497 0.4551591880646513 0.5559048905623389	-0.123989
C	0.1129414232762205 0.9781268887785829 0.1305896253880399	0.102606
C	0.1681704035469480 0.9772081266610725 0.1354465409347326	-0.169861
C	0.4550018678617958 0.8869269764936206 0.4433891110100239	-0.125736
C	0.4551591880646513 0.9422017382008497 0.4440951094376607	-0.123989
C	0.9781268887785829 0.1129414232762205 0.8694104066119555	0.102607
C	0.9772081266610725 0.1681704035469480 0.8645534430652658	-0.169860
C	0.5449981701382071 0.1130729945063807 0.4433891110100239	-0.125737
C	0.5448407739353525 0.0577982467991526 0.4440951094376607	-0.123989
C	0.0218730652214202 0.8870585197237857 0.8694104066119555	0.102607
C	0.0227918713389273 0.8318295964530520 0.8645534430652658	-0.169860
C	0.8869269764936206 0.5449981701382071 0.4433891110100239	-0.125736
C	0.9422017382008497 0.5448407739353525 0.4440951094376607	-0.123989
C	0.1129414232762205 0.0218730652214202 0.8694104066119555	0.102607
C	0.1681704035469480 0.0227918713389273 0.8645534430652658	-0.169860
C	0.1130729945063807 0.4550018678617958 0.4433891110100239	-0.125737
C	0.0577982467991526 0.4551591880646513 0.4440951094376607	-0.123989
C	0.8870585197237857 0.9781268887785829 0.8694104066119555	0.102607
C	0.8318295964530520 0.9772081266610725 0.8645534430652658	-0.169860
C	0.5000000000000000 0.3029381655870169 0.5000000000000000	0.174602
C	0.5000000000000000 0.2465375216506194 0.5000000000000000	-0.115779
C	0.5000000000000000 0.1980168010696626 0.5000000000000000	-0.094978
C	0.5000000000000000 0.1416232801695637 0.5000000000000000	0.125589
C	0.5000000000000000 0.0292890841423697 0.5000000000000000	0.065558
C	0.0000000000000000 0.8029381465870119 -0.0000000000000000	0.174602
C	0.0000000000000000 0.7465375016506178 -0.0000000000000000	-0.115779
C	0.0000000000000000 0.6980167630696665 -0.0000000000000000	-0.094978
C	0.0000000000000000 0.6416232421695607 -0.0000000000000000	0.125590
C	0.0000000000000000 0.5292890981423710 -0.0000000000000000	0.065559
C	0.5000000000000000 0.6970618154129850 0.5000000000000000	0.174515
C	0.5000000000000000 0.7534625363493782 0.5000000000000000	-0.115726
C	0.5000000000000000 0.8019831989303374 0.5000000000000000	-0.094975
C	0.5000000000000000 0.8583767198304362 0.5000000000000000	0.125590
C	0.5000000000000000 0.9707109018576290 0.5000000000000000	0.065558
C	0.0000000000000000 0.1970618344129829 -0.0000000000000000	0.174602
C	0.0000000000000000 0.2534624783493807 -0.0000000000000000	-0.115779
C	0.0000000000000000 0.3019831789303355 -0.0000000000000000	-0.094978
C	0.0000000000000000 0.3583767198304361 -0.0000000000000000	0.125589
C	0.0000000000000000 0.4707109398576324 -0.0000000000000000	0.065559
C	0.6970618154129850 0.5000000000000000 0.5000000000000000	0.174515
C	0.7534625363493782 0.5000000000000000 0.5000000000000000	-0.115726
C	0.8019831989303374 0.5000000000000000 0.5000000000000000	-0.094975
C	0.8583767198304362 0.5000000000000000 0.5000000000000000	0.125590
C	0.9707109018576290 0.5000000000000000 0.5000000000000000	0.065558
C	0.1970618344129829 0.0000000000000000 -0.0000000000000000	0.174602
C	0.2534624783493807 0.0000000000000000 -0.0000000000000000	-0.115779
C	0.3019831789303355 0.0000000000000000 -0.0000000000000000	-0.094978
C	0.3583767198304361 0.0000000000000000 -0.0000000000000000	0.125589
C	0.4707109398576324 0.0000000000000000 -0.0000000000000000	0.065558
C	0.3029381655870169 0.5000000000000000 0.5000000000000000	0.174602
C	0.2465375216506194 0.5000000000000000 0.5000000000000000	-0.115779
C	0.1980168010696626 0.5000000000000000 0.5000000000000000	-0.094978
C	0.1416232801695637 0.5000000000000000 0.5000000000000000	0.125589
C	0.0292890841423697 0.5000000000000000 0.5000000000000000	0.065559
C	0.8029381465870119 0.0000000000000000 -0.0000000000000000	0.174602
C	0.7465375016506178 0.0000000000000000 -0.0000000000000000	-0.115779
C	0.6980167630696665 0.0000000000000000 -0.0000000000000000	-0.094978
C	0.6416232421695607 0.0000000000000000 -0.0000000000000000	0.125590
C	0.5292890981423710 0.0000000000000000 -0.0000000000000000	0.065559
H	0.4614158614812799 0.4105020585413793 0.2650285272715252	0.102727
H	0.4592647039010223 0.3112799572364701 0.2566509156685194	0.126181
H	0.9203000020426068 0.6348691902081712 0.8978637618437452	0.111471
H	0.9205560210514812 0.5361786787073124 0.8965128535503920	0.106092
H	0.5385841385187202 0.5894979414586204 0.2650285272715252	0.102727
H	0.5407353340989809 0.6887201187635295 0.2566509156685194	0.126178
H	0.0796999789573957 0.3651308097918288 0.8978637618437452	0.111471
H	0.0794440079485177 0.4638213602926873 0.8965128535503920	0.106091
H	0.5894979414586204 0.4614158614812799 0.2650285272715252	0.102727
H	0.6887201187635295 0.4592647039010223 0.2566509156685194	0.126178
H	0.3651308097918288 0.9203000020426068 0.8978637618437452	0.111471
H	0.4638213602926873 0.9205560210514812 0.8965128535503920	0.106092
H	0.4105020585413793 0.5385841385187202 0.2650285272715252	0.102727
H	0.3112799572364701 0.5407353340989809 0.2566509156685194	0.126181
H	0.6348691902081712 0.0796999789573957 0.8978637618437452	0.111471
H	0.5361786787073124 0.0794440079485177 0.8965128535503920	0.106092
H	0.5385841385187202 0.4105020585413793 0.7349714567284733	0.102727
H	0.5407353340989809 0.3112799572364701 0.7433490843314805	0.126181
H	0.0796999789573957 0.6348691902081712 0.1021362141562529	0.111471
H	0.0794440079485177 0.5361786787073124 0.1034871464496081	0.106092
H	0.4614158614812799 0.5894979414586204 0.7349714567284733	0.102727
H	0.4592647039010223 0.6887201187635295 0.7433490843314805	0.126177
H	0.9203000020426068 0.3651308097918288 0.1021362141562529	0.111471
H	0.9205560210514812 0.4638213602926873 0.1034871464496081	0.106092
H	0.4105020585413793 0.4614158614812799 0.7349714567284733	0.102727
H	0.3112799572364701 0.4592647039010223 0.7433490843314805	0.126181
H	0.6348691902081712 0.9203000020426068 0.1021362141562529	0.111471
H	0.5361786787073124 0.9205560210514812 0.1034871464496081	0.106092
H	0.5894979414586204 0.5385841385187202 0.7349714567284733	0.102727
H	0.6887201187635295 0.5407353340989809 0.7433490843314805	0.126177
H	0.3651308097918288 0.0796999789573957 0.1021362141562529	0.111471
H	0.4638213602926873 0.0794440079485177 0.1034871464496081	0.106091
H	0.5796999979573932 0.8651308097918288 0.6021362061562522	0.111471
H	0.5794439789485188 0.9638213602926873 0.6034871784496106	0.106091
H	0.0385841485187211 0.0894979124586220 0.2349714727284748	0.102727
H	0.0407353390989777 0.1887200617635280 0.2433491163314761	0.126181
H	0.4203000400426096 0.1348692192081703 0.6021362061562522	0.111470
H	0.4205559820514814 0.0361786637073075 0.6034871784496106	0.106091
H	0.9614158614812798 0.9105021355413753 0.2349714727284748	0.102727
H	0.9592646659010191 0.8112799952364729 0.2433491163314761	0.126181
H	0.1348692192081703 0.5796999979573932 0.6021362061562522	0.111470
H	0.0361786637073075 0.5794439789485188 0.6034871784496106	0.106092
H	0.9105021355413753 0.0385841485187211 0.2349714727284748	0.102727
H	0.8112799952364729 0.0407353390989777 0.2433491163314761	0.126181
H	0.8651308097918288 0.4203000400426096 0.6021362061562522	0.111471
H	0.9638213602926873 0.4205559820514814 0.6034871784496106	0.106091
H	0.0894979124586220 0.9614158614812798 0.2349714727284748	0.102727
H	0.1887200617635280 0.9592646659010191 0.2433491163314761	0.126181
H	0.4203000400426096 0.8651308097918288 0.3978637618437452	0.111470
H	0.4205559820514814 0.9638213602926873 0.3965128855503873	0.106091
H	0.9614158614812798 0.0894979124586220 0.7650285112715240	0.102727
H	0.9592646659010191 0.1887200617635280 0.7566508836685240	0.126181
H	0.5796999979573932 0.1348692192081703 0.3978637618437452	0.111470
H	0.5794439789485188 0.0361786637073075 0.3965128855503873	0.106091
H	0.0385841485187211 0.9105021355413753 0.7650285112715240	0.102727
H	0.0407353390989777 0.8112799952364729 0.7566508836685240	0.126181
H	0.8651308097918288 0.5796999979573932 0.3978637618437452	0.111470
H	0.9638213602926873 0.5794439789485188 0.3965128855503873	0.106091
H	0.0894979124586220 0.0385841485187211 0.7650285112715240	0.102727
H	0.1887200617635280 0.0407353390989777 0.7566508836685240	0.126181
H	0.1348692192081703 0.4203000400426096 0.3978637618437452	0.111470
H	0.0361786637073075 0.4205559820514814 0.3965128855503873	0.106091
H	0.9105021355413753 0.9614158614812798 0.7650285112715240	0.102727
H	0.8112799952364729 0.9592646659010191 0.7566508836685240	0.126181
Zn	0.5000000000000000 0.5000000000000000 0.5000000000000000	0.762147
Zn	0.0000000000000000 0.0000000000000000 -0.0000000000000000	0.762148
Ti	0.5000000000000000 0.5000000000000000 -0.0000000000000000	2.328660
Ti	0.0000000000000000 0.0000000000000000 0.5000000000000000	2.328660
F	0.5000000000000000 0.5000000000000000 0.2434677438243010	-0.606487
F	0.0000000000000000 0.0000000000000000 0.7434677118243054	-0.606487
F	0.5000000000000000 0.5000000000000000 0.7565321921757009	-0.606487
F	0.0000000000000000 0.0000000000000000 0.2565322561756990	-0.606487
F	0.5533264003222647 0.5533264003222647 -0.0000000000000000	-0.650357
F	0.0533263533222641 0.0533263533222641 0.5000000000000000	-0.650357
F	0.4466736756777419 0.4466736756777419 -0.0000000000000000	-0.650357
F	0.9466736376777385 0.9466736376777385 0.5000000000000000	-0.650357
F	0.4466736756777419 0.5533264003222647 -0.0000000000000000	-0.650357
F	0.9466736376777385 0.0533263533222641 0.5000000000000000	-0.650357
F	0.5533264003222647 0.4466736756777419 -0.0000000000000000	-0.650357
F	0.0533263533222641 0.9466736376777385 0.5000000000000000	-0.650357
N	0.5000000000000000 0.4142201718412802 0.5000000000000000	-0.233074
N	0.0000000000000000 0.9142202098412835 -0.0000000000000000	-0.233074
N	0.5000000000000000 0.5857798281587197 0.5000000000000000	-0.233073
N	0.0000000000000000 0.0857798371587170 -0.0000000000000000	-0.233074
N	0.5857798281587197 0.5000000000000000 0.5000000000000000	-0.233073
N	0.0857798371587170 0.0000000000000000 -0.0000000000000000	-0.233074
N	0.4142201718412802 0.5000000000000000 0.5000000000000000	-0.233074
N	0.9142202098412835 0.0000000000000000 -0.0000000000000000	-0.233074
	  	
