#======================================================================

# CRYSTAL DATA

#----------------------------------------------------------------------

data_VESTA_phase_1


_pd_phase_name                         TIFSIX_2_Ni_i
_cell_length_a                         13.86695
_cell_length_b                         13.86695
_cell_length_c                         8.05227
_cell_angle_alpha                      90
_cell_angle_beta                       90
_cell_angle_gamma                      90
_symmetry_space_group_name_H-M         P 1
_symmetry_Int_Tables_number            1

loop_
_symmetry_equiv_pos_as_xyz
   x, y, z

loop_
   _atom_site_label
   _atom_site_fract_x
   _atom_site_fract_y
   _atom_site_fract_z
   _atom_site_charge
C	-0.0000000000000000 0.3017786868382232 0.3505207566640102	-0.158852
C	-0.0000000000000000 0.2018077981753461 0.3561100259320583	0.110467
C	0.5000000000000000 0.8017786868382231 0.8505207856640092	-0.158853
C	0.5000000000000000 0.7018078161753474 0.8561100259320582	0.110467
C	-0.0000000000000000 0.6982213131617768 0.3505207566640102	-0.158855
C	-0.0000000000000000 0.7981921838246526 0.3561100259320583	0.110469
C	0.5000000000000000 0.1982213301617747 0.8505207856640092	-0.158855
C	0.5000000000000000 0.2981921838246521 0.8561100259320582	0.110469
C	0.6982213131617768 0.0000000000000000 0.3505207566640102	-0.158852
C	0.7981921838246526 0.0000000000000000 0.3561100259320583	0.110469
C	0.1982213301617747 0.5000000000000000 0.8505207856640092	-0.158852
C	0.2981921838246521 0.5000000000000000 0.8561100259320582	0.110469
C	0.3017786868382232 0.0000000000000000 0.3505207566640102	-0.158855
C	0.2018077981753461 0.0000000000000000 0.3561100259320583	0.110471
C	0.8017786868382232 0.5000000000000000 0.8505207856640092	-0.158855
C	0.7018078161753474 0.5000000000000000 0.8561100259320582	0.110471
C	-0.0000000000000000 0.3017786868382232 0.6494792143359908	-0.158849
C	-0.0000000000000000 0.2018077981753461 0.6438899740679418	0.110467
C	0.5000000000000000 0.8017786868382232 0.1494792433359900	-0.158849
C	0.5000000000000000 0.7018078161753474 0.1438899590679442	0.110467
C	-0.0000000000000000 0.6982213131617769 0.6494792143359908	-0.158851
C	-0.0000000000000000 0.7981921838246526 0.6438899740679418	0.110469
C	0.5000000000000000 0.1982213301617747 0.1494792433359900	-0.158851
C	0.5000000000000000 0.2981921838246521 0.1438899590679442	0.110469
C	0.3017786868382232 0.0000000000000000 0.6494792143359908	-0.158851
C	0.2018077981753461 0.0000000000000000 0.6438899740679418	0.110471
C	0.8017786868382232 0.5000000000000000 0.1494792433359900	-0.158851
C	0.7018078161753474 0.5000000000000000 0.1438899590679442	0.110471
C	0.6982213131617768 0.0000000000000000 0.6494792143359908	-0.158849
C	0.7981921838246526 0.0000000000000000 0.6438899740679418	0.110469
C	0.1982213301617747 0.5000000000000000 0.1494792433359900	-0.158849
C	0.2981921838246521 0.5000000000000000 0.1438899590679442	0.110469
C	-0.0000000000000000 0.4560517833071052 0.5000000000000000	-0.095141
C	-0.0000000000000000 0.3541116668244181 0.5000000000000000	0.163696
C	0.5000000000000000 0.9560518173071079 0.0000000000000000	-0.095141
C	0.5000000000000000 0.8541116318244188 0.0000000000000000	0.163696
C	-0.0000000000000000 0.5439482166928949 0.5000000000000000	-0.094883
C	-0.0000000000000000 0.6458883681755812 0.5000000000000000	0.163664
C	0.5000000000000000 0.0439481956928894 0.0000000000000000	-0.094883
C	0.5000000000000000 0.1458883681755813 0.0000000000000000	0.163665
C	0.5439482166928949 0.0000000000000000 0.5000000000000000	-0.095141
C	0.6458883681755812 0.0000000000000000 0.5000000000000000	0.163696
C	0.0439481956928894 0.5000000000000000 0.0000000000000000	-0.095141
C	0.1458883681755813 0.5000000000000000 0.0000000000000000	0.163696
C	0.4560517833071052 0.0000000000000000 0.5000000000000000	-0.094883
C	0.3541116668244181 0.0000000000000000 0.5000000000000000	0.163664
C	0.9560518173071079 0.5000000000000000 0.0000000000000000	-0.094883
C	0.8541116318244188 0.5000000000000000 0.0000000000000000	0.163665
H	-0.0000000000000000 0.3388308557093948 0.2314806819528928	0.120634
H	-0.0000000000000000 0.1601542002203060 0.2418028685696023	0.093064
H	0.5000000000000000 0.8388308557093948 0.7314806819528926	0.120634
H	0.5000000000000000 0.6601541472203051 0.7418028985696047	0.093064
H	-0.0000000000000000 0.6611691442906052 0.2314806819528928	0.120633
H	-0.0000000000000000 0.8398458527796949 0.2418028685696023	0.093064
H	0.5000000000000000 0.1611691442906053 0.7314806819528926	0.120633
H	0.5000000000000000 0.3398458177796884 0.7418028985696047	0.093064
H	0.6611691442906052 0.0000000000000000 0.2314806819528928	0.120634
H	0.8398458527796949 0.0000000000000000 0.2418028685696023	0.093063
H	0.1611691442906053 0.5000000000000000 0.7314806819528926	0.120634
H	0.3398458177796884 0.5000000000000000 0.7418028985696047	0.093063
H	0.3388308557093948 0.0000000000000000 0.2314806819528928	0.120633
H	0.1601542002203060 0.0000000000000000 0.2418028685696023	0.093063
H	0.8388308557093948 0.5000000000000000 0.7314806819528926	0.120633
H	0.6601541472203051 0.5000000000000000 0.7418028985696047	0.093063
H	-0.0000000000000000 0.3388308557093948 0.7685193180471074	0.120632
H	-0.0000000000000000 0.1601542002203060 0.7581970434303976	0.093064
H	0.5000000000000000 0.8388308557093948 0.2685193180471070	0.120632
H	0.5000000000000000 0.6601541472203051 0.2581971314303976	0.093064
H	-0.0000000000000000 0.6611691442906052 0.7685193180471074	0.120630
H	-0.0000000000000000 0.8398458527796949 0.7581970434303976	0.093064
H	0.5000000000000000 0.1611691442906053 0.2685193180471070	0.120630
H	0.5000000000000000 0.3398458177796884 0.2581971314303976	0.093064
H	0.3388308557093948 0.0000000000000000 0.7685193180471074	0.120630
H	0.1601542002203060 0.0000000000000000 0.7581970434303976	0.093063
H	0.8388308557093948 0.5000000000000000 0.2685193180471070	0.120630
H	0.6601541472203051 0.5000000000000000 0.2581971314303975	0.093063
H	0.6611691442906052 0.0000000000000000 0.7685193180471074	0.120632
H	0.8398458527796949 0.0000000000000000 0.7581970434303976	0.093063
H	0.1611691442906053 0.5000000000000000 0.2685193180471070	0.120632
H	0.3398458177796884 0.5000000000000000 0.2581971314303976	0.093063
Ni	-0.0000000000000000 0.0000000000000000 0.5000000000000000	0.788919
Ni	0.5000000000000000 0.5000000000000000 0.0000000000000000	0.788919
Ti	-0.0000000000000000 0.0000000000000000 0.0000000000000000	2.309055
Ti	0.5000000000000000 0.5000000000000000 0.5000000000000000	2.309056
N	-0.0000000000000000 0.1518500736660884 0.5000000000000000	-0.235265
N	0.5000000000000000 0.6518500556660870 0.0000000000000000	-0.235265
N	-0.0000000000000000 0.8481499443339130 0.5000000000000000	-0.235264
N	0.5000000000000000 0.3481499443339131 0.0000000000000000	-0.235264
N	0.8481499443339130 0.0000000000000000 0.5000000000000000	-0.235266
N	0.3481499443339131 0.5000000000000000 0.0000000000000000	-0.235266
N	0.1518500736660884 0.0000000000000000 0.5000000000000000	-0.235266
N	0.6518500556660870 0.5000000000000000 0.0000000000000000	-0.235266
F	-0.0000000000000000 0.0000000000000000 0.7563484141297806	-0.615127
F	0.5000000000000000 0.5000000000000000 0.2563485031297843	-0.615128
F	-0.0000000000000000 0.0000000000000000 0.2436515118702205	-0.615127
F	0.5000000000000000 0.5000000000000000 0.7436515858702194	-0.615127
F	0.5959238703101730 0.5959238703101730 0.5000000000000000	-0.630959
F	0.5959238703101730 0.4040761296898270 0.5000000000000000	-0.630959
F	0.4040761296898270 0.5959238703101730 0.5000000000000000	-0.630959
F	0.4040761296898270 0.4040761296898270 0.5000000000000000	-0.630959
F	0.0959238873101709 0.0959238873101709 0.0000000000000000	-0.630959
F	0.9040761296898270 0.9040761296898270 0.0000000000000000	-0.630959
F	0.9040761296898270 0.0959238873101709 0.0000000000000000	-0.630959
F	0.0959238873101709 0.9040761296898270 0.0000000000000000	-0.630959
	  	
