#======================================================================

# CRYSTAL DATA

#----------------------------------------------------------------------

data_VESTA_phase_1


_pd_phase_name                         TIFSIX_18_Co
_cell_length_a                         14.07518
_cell_length_b                         13.81243
_cell_length_c                         8.22358
_cell_angle_alpha                      90
_cell_angle_beta                       95.42690
_cell_angle_gamma                      90
_symmetry_space_group_name_H-M         P 1
_symmetry_Int_Tables_number            1

loop_
_symmetry_equiv_pos_as_xyz
   x, y, z

loop_
   _atom_site_label
   _atom_site_fract_x
   _atom_site_fract_y
   _atom_site_fract_z
   _atom_site_charge
F	0.4093343176312639 0.3688720840261505 0.5018452966634723	-0.630355
F	0.5172766270079169 0.4810090280300579 0.7358398765201191	-0.630942
F	0.4000275590878425 0.5615349275733849 0.5082589572393895	-0.615660
F	0.9093343516312586 0.8688720150261481 0.5018452966634723	-0.630357
F	0.0172766530079118 0.9810089930300586 0.7358398765201191	-0.630942
F	0.9000275930878455 0.0615348935733892 0.5082589572393895	-0.615659
F	0.5906656453687376 0.3688720840261505 0.4981547033365271	-0.630357
F	0.4827233699920866 0.4810090280300579 0.2641601234798812	-0.630941
F	0.5999724369121570 0.5615349275733849 0.4917410437606142	-0.615659
F	0.0906656663687350 0.8688720150261481 0.4981547033365271	-0.630355
F	0.9827232349920859 0.9810089930300586 0.2641601234798811	-0.630942
F	0.0999724119121587 0.0615348935733892 0.4917410437606142	-0.615660
C	0.6822224302489460 0.1554493196001490 0.6603564605598743	-0.427506
C	0.7560104316298487 0.1518115688257335 0.8018732982747556	0.215542
C	0.7600248785566911 0.1968968230410439 0.9550155029925863	-0.152715
C	0.6885470841487304 0.2610377704743868 0.0148599061881448	-0.143443
C	0.6728792425441702 0.3599507733882955 0.9736822322650462	0.218455
C	0.7287605000021139 0.4219711585310787 0.8688390224864997	-0.427089
C	0.8911867967597643 0.2030536535646569 0.1999928203181913	-0.440484
C	0.8491687281724709 0.1698837525603135 0.0366827090688971	0.222886
C	0.6222407384877640 0.2389478311085300 0.1263122551654536	0.210026
C	0.6016211204922445 0.1478521064835189 0.2129425219078976	-0.425787
C	0.1822224802489428 0.6554493716001460 0.6603564605598743	-0.427417
C	0.2560104656298525 0.6518115518257280 0.8018732982747556	0.215522
C	0.2600248445566876 0.6968967890410414 0.9550155029925863	-0.152711
C	0.1885470841487304 0.7610377874743849 0.0148599061881448	-0.143443
C	0.1728792255441653 0.8599508073882980 0.9736822322650462	0.218456
C	0.2287605160021079 0.9219711235310791 0.8688390224864997	-0.427089
C	0.3911866957597597 0.7030535675646570 0.1999928203181913	-0.440484
C	0.3491687961724697 0.6698837525603135 0.0366827090688971	0.222886
C	0.1222407134877659 0.7389477451085301 0.1263122551654536	0.210025
C	0.1016212044922441 0.6478521754835207 0.2129425219078976	-0.425788
C	0.3177775667510574 0.1554493196001490 0.3396435404401305	-0.427417
C	0.2439895613701468 0.1518115688257335 0.1981266217252445	0.215522
C	0.2399751504433085 0.1968968230410439 0.0449844730074191	-0.152710
C	0.3114529118512694 0.2610377704743868 0.9851400848118580	-0.143451
C	0.3271208234558351 0.3599507733882955 0.0263178187349544	0.218485
C	0.2712395149978912 0.4219711585310787 0.1311609935135016	-0.427109
C	0.1088132862402388 0.2030536535646569 0.8000072276818124	-0.440484
C	0.1508312508275308 0.1698837525603135 0.9633172789311014	0.222886
C	0.3777592925122345 0.2389478311085300 0.8736877688345408	0.210026
C	0.3983788055077565 0.1478521064835189 0.7870573990921066	-0.425788
C	0.8177775667510573 0.6554493716001460 0.3396435404401305	-0.427506
C	0.7439895613701472 0.6518115518257280 0.1981266217252445	0.215542
C	0.7399751164433120 0.6968967890410414 0.0449844730074191	-0.152715
C	0.8114529118512692 0.7610377874743849 0.9851400848118580	-0.143443
C	0.8271207564558333 0.8599508073882980 0.0263178187349544	0.218455
C	0.7712394979978859 0.9219711235310791 0.1311609935135016	-0.427089
C	0.6088132022402392 0.7030535675646570 0.8000072276818124	-0.440484
C	0.6508312678275288 0.6698837525603135 0.9633172789311014	0.222885
C	0.8777592585122322 0.7389477451085301 0.8736877688345408	0.210026
C	0.8983788725077585 0.6478521754835207 0.7870573990921066	-0.425787
H	0.7141843441970464 0.1741164831320007 0.5477250428064299	0.154484
H	0.6287804931578528 0.2107165938282591 0.6803649078291307	0.144462
H	0.6462100895288421 0.0850234779177164 0.6418559699867921	0.134406
H	0.6822262262475640 0.4638610343683757 0.7807211840784539	0.145371
H	0.7755176555907415 0.3766652044463354 0.8014324666657591	0.139528
H	0.7735211842831458 0.4728944564928712 0.9452751716200339	0.129113
H	0.8631196925167969 0.0701771684172488 0.6975833172188151	0.285377
H	0.8933630380532922 0.1455791766199025 0.2923524722262017	0.156863
H	0.8478452574086391 0.2626700998474932 0.2413422912741058	0.135201
H	0.9646547819032362 0.2288616667624748 0.1942369375387004	0.142299
H	0.5774534547883267 0.1635071254193619 0.3332438327707317	0.146562
H	0.6656823989094127 0.1025181170959636 0.2305378403800445	0.151556
H	0.5454080119713136 0.1055430071283886 0.1427185999593721	0.131587
H	0.5222157131177297 0.3343584521773167 0.2225063592416671	0.271830
H	0.2141843951970472 0.6741163801320031 0.5477250428064299	0.154469
H	0.1287805771578525 0.7107165248282574 0.6803649078291307	0.144420
H	0.1462101395288391 0.5850234179177114 0.6418559699867921	0.134389
H	0.1822262432475619 0.9638609663683693 0.7807211840784539	0.145371
H	0.2755176895907440 0.8766652384463384 0.8014324666657591	0.139528
H	0.2735212172831448 0.9728944564928712 0.9452751716200339	0.129113
H	0.3631196585168013 0.5701772114172481 0.6975833172188151	0.285377
H	0.3933631050532940 0.6455791426198991 0.2923524722262017	0.156863
H	0.3478451894086401 0.7626701348474925 0.2413422912741058	0.135201
H	0.4646548489032308 0.7288617177624680 0.1942369375387004	0.142299
H	0.0774534467883258 0.6635071424193603 0.3332438327707317	0.146561
H	0.1656823649094096 0.6025180740959636 0.2305378403800445	0.151556
H	0.0454080479713167 0.6055429551283916 0.1427185999593721	0.131587
H	0.0222156981177318 0.8343584521773170 0.2225063592416671	0.271829
H	0.2858155868029583 0.1741164831320007 0.4522749891935653	0.154469
H	0.3712194058421427 0.2107165938282591 0.3196351571708714	0.144420
H	0.3537898394711629 0.0850234779177164 0.3581440300132083	0.134389
H	0.3177737687524392 0.4638610343683757 0.2192787839215505	0.145397
H	0.2244823394092547 0.3766652044463354 0.1985675013342383	0.139509
H	0.2264788117168615 0.4728944564928712 0.0547248013799678	0.129109
H	0.1368803084831996 0.0701771684172488 0.3024165877811807	0.285377
H	0.1066368849467052 0.1455791766199024 0.7076475597738009	0.156863
H	0.1521548065913595 0.2626700998474932 0.7586577087258948	0.135201
H	0.0353451470967686 0.2288616667624748 0.8057630944612950	0.142298
H	0.4225465752116759 0.1635071254193619 0.6667561672292683	0.146561
H	0.3343176630905927 0.1025181170959636 0.7694621116199514	0.151556
H	0.4545919530286869 0.1055430071283886 0.8572814400406313	0.131587
H	0.4777842478822709 0.3343584521773167 0.7774935937583326	0.271829
H	0.7858156538029535 0.6741163801320031 0.4522749891935653	0.154484
H	0.8712195068421472 0.7107165248282574 0.3196351571708714	0.144462
H	0.8537898394711627 0.5850234179177114 0.3581440300132083	0.134406
H	0.8177737687524391 0.9638609663683693 0.2192787839215505	0.145371
H	0.7244823394092545 0.8766652384463384 0.1985675013342383	0.139528
H	0.7264788117168610 0.9728944564928712 0.0547248013799678	0.129113
H	0.6368802994832025 0.5701772114172481 0.3024165877811807	0.285377
H	0.6066369939467033 0.6455791426198991 0.7076475597738009	0.156863
H	0.6521547395913571 0.7626701348474925 0.7586577087258948	0.135201
H	0.5353451830967645 0.7288617177624680 0.8057630944612950	0.142298
H	0.9225465082116738 0.6635071424193603 0.6667561672292683	0.146562
H	0.8343175960905904 0.6025180740959636 0.7694621116199514	0.151556
H	0.9545919530286870 0.6055429551283916 0.8572814400406313	0.131586
H	0.9777842138822749 0.8343584521773170 0.7774935937583326	0.271830
N	0.8371182987465929 0.1002389951635243 0.7996109300561062	-0.144811
N	0.6008550655378924 0.3949506995334253 0.0531174168008923	-0.267189
N	0.8950863236168840 0.1101956530202110 0.9404644443425239	-0.277626
N	0.5723265754491277 0.3208510377703116 0.1441831845491511	-0.137370
N	0.3371182987465927 0.6002389181635281 0.7996109300561062	-0.144810
N	0.1008551325378942 0.8949506995334243 0.0531174168008923	-0.267189
N	0.3950863576168869 0.6101957040202118 0.9404644443425239	-0.277625
N	0.0723265674491268 0.8208510027703120 0.1441831845491511	-0.137370
N	0.1628816832534057 0.1002389951635243 0.2003891179438911	-0.144810
N	0.3991448284621060 0.3949506995334253 0.9468825591991057	-0.267195
N	0.1049136463831135 0.1101956530202110 0.0595355356574744	-0.277625
N	0.4276734215508758 0.3208510377703116 0.8558168314508504	-0.137370
N	0.6628817002534034 0.6002389181635281 0.2003891179438911	-0.144811
N	0.8991449294621108 0.8949506995334243 0.9468825591991057	-0.267189
N	0.6049136713831191 0.6101957040202118 0.0595355356574744	-0.277626
N	0.9276734555508713 0.8208510027703120 0.8558168314508504	-0.137370
Ti	0.4999999979999998 0.4681273915162872 0.5000000000000000	2.299025
Ti	0.0000000000000000 0.9681273915162870 0.5000000000000000	2.299025
Co	0.5000000000000000 0.5085942887867602 0.0000000000000000	0.871838
Co	0.0000000000000000 0.0085942957867640 0.0000000000000000	0.871838
	  	
