#======================================================================

# CRYSTAL DATA

#----------------------------------------------------------------------

data_VESTA_phase_1


_pd_phase_name                         TIFSIX_13_Cu_i
_cell_length_a                         15.17569
_cell_length_b                         15.17304
_cell_length_c                         8.06034
_cell_angle_alpha                      90.11012
_cell_angle_beta                       89.80074
_cell_angle_gamma                      89.89017
_symmetry_space_group_name_H-M         P 1
_symmetry_Int_Tables_number            1

loop_
_symmetry_equiv_pos_as_xyz
   x, y, z

loop_
   _atom_site_label
   _atom_site_fract_x
   _atom_site_fract_y
   _atom_site_fract_z
   _atom_site_charge
C	0.5398531078601929 0.6814082928427153 0.8716402661957876	0.109652
C	0.5429041704217142 0.7730752518151688 0.8699590063969085	-0.145856
C	0.4639260712318328 0.3211512965074399 0.8791352208631564	0.109272
C	0.4606731240393935 0.2295593425112107 0.8789037823559671	-0.139742
C	0.8205012316943477 0.9736737449945769 0.3665674138575251	0.111446
C	0.7290360315780937 0.9711201483873001 0.3632596006618636	-0.133697
C	0.3208976471019551 0.5407878163914480 0.8698605369989660	0.108563
C	0.2292682545242448 0.5446754092730435 0.8678733767323714	-0.143430
C	0.1818103787910000 0.9716877369822223 0.3586094828145666	0.106661
C	0.2733975736148699 0.9704841471795465 0.3555460036114282	-0.133081
C	0.6809183476509338 0.4634181876415698 0.8844192767462512	0.107254
C	0.7724369350291668 0.4605676870037312 0.8832470118716722	-0.136329
C	0.4555459310022337 0.6817420569151772 0.1137576024542019	0.108367
C	0.4522074972215683 0.7732859250840927 0.1160638995624514	-0.134563
C	0.5391445497017057 0.3230473134348867 0.1307911633000144	0.106744
C	0.5416818176688858 0.2313822748798370 0.1354806137979258	-0.144301
C	0.1796323107616000 0.0199427271044101 0.6332051699245267	0.111818
C	0.2710192867348561 0.0218090664837098 0.6393291323388430	-0.134275
C	0.6788574691164662 0.5430113753865814 0.1320157874391441	0.109843
C	0.7705582889330344 0.5462568361042209 0.1354104352841057	-0.143421
C	0.8201331508849843 0.0289856276651615 0.6364530320236329	0.103144
C	0.7285866281970176 0.0298803180475209 0.6420297819969116	-0.130364
C	0.3196612258737204 0.4589786927195577 0.1141867337741974	0.108774
C	0.2280965725482284 0.4564978615991614 0.1162515865340821	-0.135600
C	0.9660861998840469 0.8184432228209854 0.6329818246048918	0.110784
C	0.9650838331678374 0.7268750589310832 0.6387779729575469	-0.133395
C	0.9837613435479265 0.1785304631704418 0.6377254085290670	0.104532
C	0.9803890091456086 0.2699577454528762 0.6412868190039317	-0.134157
C	0.0208436418719708 0.8171958711118426 0.3626459233897938	0.103094
C	0.0234223238651648 0.7257533053542220 0.3595870112443534	-0.132993
C	0.0308503785906778 0.1778933066329597 0.3622142233584613	0.113223
C	0.0306773243782167 0.2694526445589829 0.3565717077236563	-0.133948
C	0.0039605304672143 0.3163492127563313 0.4980165623157010	0.044600
C	0.0010537377548328 0.4128610894419076 0.4978092924403707	0.255568
C	0.4978545619442510 0.8199132700131627 0.9934869491663746	0.058557
C	0.4988384707039681 0.9171195938490073 0.9984484914102146	0.247486
C	0.9951976886395724 0.6795709373085324 0.5002165862242293	0.040225
C	0.9971333399532392 0.5829244041490247 0.5001997931526131	0.250052
C	0.5009831068290956 0.1837567923423921 0.0085491470837140	0.058102
C	0.5003295412932899 0.0864597024425755 0.0091738746481865	0.248651
C	0.6821032459279934 0.9998655711467859 0.5032599110728040	0.039687
C	0.5855000296440163 0.9977047587779089 0.5042666249918021	0.246369
C	0.1819714221762071 0.5011602626506616 0.9921363159103894	0.056667
C	0.0847638256821995 0.5021753493484336 0.9948959972351301	0.247400
C	0.3189042223933444 0.9961328135375935 0.4984358765934221	0.043137
C	0.4154275511023807 0.9960612024925116 0.5014409494636282	0.256634
C	0.8181878495924597 0.5036453641677747 0.0099379758583346	0.056529
C	0.9154633822464074 0.5034906608840547 0.0071830945089371	0.247941
H	0.5705950713318246 0.6425089964050122 0.7730491433378648	0.110600
H	0.5790093967003589 0.8068289176489334 0.7719068323209410	0.126893
H	0.4368473971614937 0.3593292500284393 0.7765417821840862	0.111554
H	0.4295759595363494 0.1941885469770822 0.7771137343666853	0.121414
H	0.8591388945365814 0.9527273808990084 0.2592995645870089	0.108333
H	0.6951400044002070 0.9476512773933422 0.2529454782065977	0.123456
H	0.3599516049739236 0.5703082457095376 0.7704424392263236	0.110713
H	0.1958735543994975 0.5801609978697622 0.7689602393898786	0.126644
H	0.1446077558980378 0.9540455342004328 0.2480230981219841	0.102805
H	0.3080229534262702 0.9512895934018500 0.2425290817426506	0.118334
H	0.6426344078775239 0.4346600009954728 0.7837005916365416	0.111800
H	0.8078887928602024 0.4279148393232827 0.7826812021492594	0.119599
H	0.4250710883845445 0.6428480190214160 0.2120344027276607	0.111974
H	0.4178072782846395 0.8080457750999390 0.2153482970062804	0.118545
H	0.5666556663922181 0.3624204553500539 0.2316867039110669	0.111592
H	0.5737240355304556 0.1982386245109104 0.2387809771558390	0.126930
H	0.1403452748882145 0.0383547672191289 0.7412021283992516	0.107737
H	0.3039910142374500 0.0416145237469275 0.7530926059073247	0.121955
H	0.6394204182386620 0.5719856737289284 0.2318878941190665	0.110777
H	0.8036291097505210 0.5803903356003324 0.2365575611587917	0.125987
H	0.8580480036951478 0.0493115100033453 0.7445178883738521	0.103765
H	0.6946919282383532 0.0521216911091427 0.7537927682990069	0.122914
H	0.3581656164971995 0.4292254174466146 0.2135453945385259	0.111276
H	0.1929401627405948 0.4232504957878151 0.2160458190188588	0.118932
H	0.9448453232096993 0.8573897772195795 0.7396772286549291	0.110125
H	0.9426008484857749 0.6934796301995370 0.7505725075038541	0.122761
H	0.9677274903227672 0.1406477320239168 0.7483324772594087	0.100684
H	0.9606441567480188 0.3040405249443990 0.7544285070184750	0.122854
H	0.0402731496881823 0.8547941570697581 0.2535636521077198	0.102027
H	0.0463493447999103 0.6914747346676732 0.2488310828973082	0.122032
H	0.0496840970383466 0.1391266212483549 0.2537254768310796	0.109401
H	0.0492434911780553 0.3031859034843338 0.2425959481447962	0.121558
N	0.9453530960514165 0.5399270432847415 0.6102947311100969	-0.136078
N	0.4210026566737551 0.0461859001761395 0.0083886174283822	-0.145216
N	0.5425302681690704 0.0488419115152550 0.6160820255961293	-0.134662
N	0.9560833136925242 0.4241846521289056 0.0023061714363240	-0.145256
N	0.0502876960462731 0.5425577489963117 0.3881133392624373	-0.135035
N	0.5788620250235493 0.0444951439856090 0.0112726389154186	-0.146833
N	0.9570152961786159 0.5821123096059753 0.0049744668501283	-0.145749
N	0.5451640002180804 0.9435399068919018 0.3948045977327597	-0.130496
N	0.0527137401419643 0.4559002108133004 0.3877491525275708	-0.130502
N	0.5781412817156844 0.9574240328136435 0.0011221783735478	-0.144415
N	0.4584422170429918 0.9425374094666118 0.3938747821049052	-0.132985
N	0.0440720006964581 0.5814106479216187 0.9944753802335021	-0.143585
N	0.9469189460330587 0.4531626511965389 0.6080485354342292	-0.132326
N	0.4203106812394229 0.9590025724696435 0.0068377360974092	-0.144567
N	0.0432427601541644 0.4235138058388107 0.9995324784475278	-0.145584
N	0.4558189267825820 0.0482347899757789 0.6140626299878772	-0.135051
N	0.0070814025347683 0.1334756043841400 0.5001309101913574	-0.212522
N	0.4980152279906560 0.6369123412944259 0.9930433014079502	-0.220234
N	0.9939797405979796 0.8626248735510109 0.4974990004716304	-0.211321
N	0.5016136843959556 0.3667277233543954 0.0037838875947718	-0.224294
N	0.8650788201315412 0.0018405285669178 0.5010650999740337	-0.213583
N	0.3649331177497767 0.4996903257190839 0.9923432848842944	-0.224200
N	0.1359592218766282 0.9952071920244705 0.4953088087886446	-0.213555
N	0.6352400134600447 0.5031328080611889 0.0074259291035584	-0.222369
Cu	0.0004978300219513 0.9981230782401974 0.4982753995322607	0.736018
Cu	0.5001142781799160 0.5017606654974813 0.9991586255999764	0.746376
Ti	0.9998079790629063 0.9968630422558821 0.9984491587833637	2.319413
Ti	0.4994277350374434 0.5035107375498878 0.4988101078439802	2.338240
F	0.9973545195730361 0.0016942035680292 0.2350533472129085	-0.646417
F	0.5064370368005346 0.4993778512143571 0.7355509364340355	-0.654134
F	0.0026473470511667 0.9926497665585252 0.7616504054322843	-0.646263
F	0.4926313844624777 0.5063878886133989 0.2620408767118750	-0.654223
F	0.0886216222741802 0.0848350780501945 0.9953040258545756	-0.643736
F	0.5857155473354707 0.5944309372149262 0.4946043670187539	-0.658960
F	0.9108126940993938 0.9093787487821345 0.0012059757128574	-0.643227
F	0.4133139826527751 0.4127147146797254 0.5033097452754377	-0.660478
F	0.9124007538626160 0.0862576705144265 0.9834631990398094	-0.641136
F	0.4091914762402123 0.5903369183252687 0.5131881313093974	-0.658459
F	0.0879664868350469 0.9083093912900372 0.0131415386770126	-0.640996
F	0.5905218424789078 0.4174455309784935 0.4835975338800350	-0.659193
	  	
