#======================================================================

# CRYSTAL DATA

#----------------------------------------------------------------------

data_VESTA_phase_1


_pd_phase_name                         TIFSIX_16_Fe_i
_cell_length_a                         25.23159
_cell_length_b                         25.23159
_cell_length_c                         7.82108
_cell_angle_alpha                      90
_cell_angle_beta                       90
_cell_angle_gamma                      90
_symmetry_space_group_name_H-M         P 1
_symmetry_Int_Tables_number            1

loop_
_symmetry_equiv_pos_as_xyz
   x, y, z

loop_
   _atom_site_label
   _atom_site_fract_x
   _atom_site_fract_y
   _atom_site_fract_z
   _atom_site_charge
C	0.4780775346592224 0.3859091775819901 0.3697081494652238	0.098528
C	0.4772257505870658 0.3308913676163767 0.3645648789074395	-0.171021
C	0.9551969023038891 0.6126972131593910 0.9436666510423570	-0.127318
C	0.9553620698786388 0.5576584158201288 0.9443552982288832	-0.122330
C	0.5219225033407734 0.6140908604180065 0.3697081494652238	0.098523
C	0.5227742494129343 0.6691086703836194 0.3645648789074395	-0.171054
C	0.0448030216961118 0.3873027478406093 0.9436666510423570	-0.127320
C	0.0446379491213593 0.4423416221798742 0.9443552982288832	-0.122332
C	0.6140908604180065 0.4780775346592224 0.3697081494652238	0.098535
C	0.6691086703836194 0.4772257505870658 0.3645648789074395	-0.171062
C	0.3873027478406093 0.9551969023038891 0.9436666510423570	-0.127320
C	0.4423416221798742 0.9553620698786388 0.9443552982288832	-0.122332
C	0.3859091775819901 0.5219225033407734 0.3697081494652238	0.098517
C	0.3308913676163767 0.5227742494129343 0.3645648789074395	-0.171013
C	0.6126972131593910 0.0448030216961118 0.9436666510423570	-0.127318
C	0.5576584158201288 0.0446379491213593 0.9443552982288832	-0.122330
C	0.5219225033407734 0.3859091775819901 0.6302918505347763	0.098517
C	0.5227742494129343 0.3308913676163767 0.6354350890925579	-0.171014
C	0.0448030216961118 0.6126972131593910 0.0563333609576439	-0.127317
C	0.0446379491213593 0.5576584158201288 0.0556446777711146	-0.122330
C	0.4780775346592224 0.6140908604180065 0.6302918505347763	0.098535
C	0.4772257505870658 0.6691086703836194 0.6354350890925579	-0.171062
C	0.9551969023038891 0.3873027478406093 0.0563333609576439	-0.127319
C	0.9553620698786388 0.4423416221798742 0.0556446777711146	-0.122332
C	0.3859091775819901 0.4780775346592224 0.6302918505347763	0.098528
C	0.3308913676163767 0.4772257505870658 0.6354350890925579	-0.171022
C	0.6126972131593910 0.9551969023038891 0.0563333609576439	-0.127317
C	0.5576584158201288 0.9553620698786388 0.0556446777711146	-0.122330
C	0.6140908604180065 0.5219225033407734 0.6302918505347763	0.098523
C	0.6691086703836194 0.5227742494129343 0.6354350890925579	-0.171054
C	0.3873027478406093 0.0448030216961118 0.0563333609576439	-0.127319
C	0.4423416221798742 0.0446379491213593 0.0556446777711146	-0.122332
C	0.5448030596961149 0.8873027098406133 0.5563333809576385	-0.127319
C	0.5446379301213612 0.9423416221798744 0.5556446697711142	-0.122332
C	0.0219224573407769 0.1140908034180121 0.1302918505347762	0.098529
C	0.0227742474129340 0.1691086323836234 0.1354351050925593	-0.171021
C	0.4551969783038882 0.1126972611593881 0.5563333809576385	-0.127319
C	0.4553620318786425 0.0576583628201280 0.5556446697711142	-0.122332
C	0.9780774966592266 0.8859091395819935 0.1302918505347762	0.098515
C	0.9772257505870657 0.8308913676163766 0.1354351050925593	-0.171014
C	0.1126972611593881 0.5448030596961149 0.5563333809576385	-0.127318
C	0.0576583628201280 0.5446379301213612 0.5556446697711142	-0.122332
C	0.8859091395819935 0.0219224573407769 0.1302918505347762	0.098527
C	0.8308913676163766 0.0227742474129340 0.1354351050925593	-0.171023
C	0.8873027098406133 0.4551969783038882 0.5563333809576385	-0.127319
C	0.9423416221798744 0.4553620318786425 0.5556446697711142	-0.122332
C	0.1140908034180121 0.9780774966592266 0.1302918505347762	0.098517
C	0.1691086323836234 0.9772257505870657 0.1354351050925593	-0.171013
C	0.4551969783038882 0.8873027098406133 0.4436666510423571	-0.127320
C	0.4553620318786425 0.9423416221798744 0.4443553302288862	-0.122332
C	0.9780774966592266 0.1140908034180121 0.8697081814652192	0.098516
C	0.9772257505870657 0.1691086323836234 0.8645648789074395	-0.171013
C	0.5448030596961149 0.1126972611593881 0.4436666510423571	-0.127319
C	0.5446379301213612 0.0576583628201280 0.4443553302288862	-0.122332
C	0.0219224573407769 0.8859091395819935 0.8697081814652192	0.098527
C	0.0227742474129340 0.8308913676163766 0.8645648789074395	-0.171023
C	0.8873027098406133 0.5448030596961149 0.4436666510423571	-0.127319
C	0.9423416221798744 0.5446379301213612 0.4443553302288862	-0.122332
C	0.1140908034180121 0.0219224573407769 0.8697081814652192	0.098529
C	0.1691086323836234 0.0227742474129340 0.8645648789074395	-0.171022
C	0.1126972611593881 0.4551969783038882 0.4436666510423571	-0.127319
C	0.0576583628201280 0.4553620318786425 0.4443553302288862	-0.122332
C	0.8859091395819935 0.9780774966592266 0.8697081814652192	0.098515
C	0.8308913676163766 0.9772257505870657 0.8645648789074395	-0.171015
C	0.5000000000000000 0.3020070465815757 0.5000000000000000	0.170875
C	0.5000000000000000 0.2457916634394838 0.5000000000000000	-0.113585
C	0.5000000000000000 0.1974366652851602 0.5000000000000000	-0.097340
C	0.5000000000000000 0.1412045163855552 0.5000000000000000	0.126110
C	0.5000000000000000 0.0291705645347810 0.5000000000000000	0.065231
C	-0.0000000000000000 0.8020070275815707 -0.0000000000000000	0.170875
C	-0.0000000000000000 0.7457916434394823 -0.0000000000000000	-0.113583
C	-0.0000000000000000 0.6974366272851645 -0.0000000000000000	-0.097348
C	-0.0000000000000000 0.6412044783855521 -0.0000000000000000	0.126110
C	-0.0000000000000000 0.5291705785347820 -0.0000000000000000	0.065233
C	0.5000000000000000 0.6979929344184261 0.5000000000000000	0.170897
C	0.5000000000000000 0.7542083945605137 0.5000000000000000	-0.113585
C	0.5000000000000000 0.8025633347148394 0.5000000000000000	-0.097341
C	0.5000000000000000 0.8587954836144448 0.5000000000000000	0.126110
C	0.5000000000000000 0.9708294214652180 0.5000000000000000	0.065232
C	-0.0000000000000000 0.1979929534184244 -0.0000000000000000	0.170875
C	-0.0000000000000000 0.2542083365605162 -0.0000000000000000	-0.113585
C	-0.0000000000000000 0.3025633147148381 -0.0000000000000000	-0.097340
C	-0.0000000000000000 0.3587954836144448 -0.0000000000000000	0.126111
C	-0.0000000000000000 0.4708294594652211 -0.0000000000000000	0.065231
C	0.6979929344184261 0.5000000000000000 0.5000000000000000	0.170897
C	0.7542083945605137 0.5000000000000000 0.5000000000000000	-0.113585
C	0.8025633347148394 0.5000000000000000 0.5000000000000000	-0.097341
C	0.8587954836144448 0.5000000000000000 0.5000000000000000	0.126110
C	0.9708294214652180 0.5000000000000000 0.5000000000000000	0.065231
C	0.1979929534184244 0.0000000000000000 -0.0000000000000000	0.170875
C	0.2542083365605162 0.0000000000000000 -0.0000000000000000	-0.113585
C	0.3025633147148381 0.0000000000000000 -0.0000000000000000	-0.097340
C	0.3587954836144448 0.0000000000000000 -0.0000000000000000	0.126111
C	0.4708294594652211 0.0000000000000000 -0.0000000000000000	0.065231
C	0.3020070465815757 0.5000000000000000 0.5000000000000000	0.170875
C	0.2457916634394838 0.5000000000000000 0.5000000000000000	-0.113585
C	0.1974366652851602 0.5000000000000000 0.5000000000000000	-0.097340
C	0.1412045163855552 0.5000000000000000 0.5000000000000000	0.126110
C	0.0291705645347810 0.5000000000000000 0.5000000000000000	0.065232
C	0.8020070275815707 0.0000000000000000 -0.0000000000000000	0.170875
C	0.7457916434394823 0.0000000000000000 -0.0000000000000000	-0.113583
C	0.6974366272851645 0.0000000000000000 -0.0000000000000000	-0.097348
C	0.6412044783855521 0.0000000000000000 -0.0000000000000000	0.126110
C	0.5291705785347820 0.0000000000000000 -0.0000000000000000	0.065233
H	0.4611449634347374 0.4091384500227984 0.2653429716436985	0.105778
H	0.4592441990817701 0.3105725726492088 0.2563130531763038	0.127801
H	0.9206063213203712 0.6343956874668910 0.8983714861581864	0.111779
H	0.9208094911287381 0.5362973330178000 0.8968378166251673	0.105525
H	0.5388550365652626 0.5908615499772015 0.2653429716436985	0.105812
H	0.5407558389182329 0.6894275033507904 0.2563130531763038	0.127825
H	0.0793936596796307 0.3656043125331092 0.8983714861581864	0.111780
H	0.0791905378712607 0.4637027059821995 0.8968378166251673	0.105526
H	0.5908615499772015 0.4611449634347374 0.2653429716436985	0.105777
H	0.6894275033507904 0.4592441990817701 0.2563130531763038	0.127826
H	0.3656043125331092 0.9206063213203712 0.8983714861581864	0.111780
H	0.4637027059821995 0.9208094911287381 0.8968378166251673	0.105526
H	0.4091384500227984 0.5388550365652626 0.2653429716436985	0.105813
H	0.3105725726492088 0.5407558389182329 0.2563130531763038	0.127800
H	0.6343956874668910 0.0793936596796307 0.8983714861581864	0.111779
H	0.5362973330178000 0.0791905378712607 0.8968378166251673	0.105525
H	0.5388550365652626 0.4091384500227984 0.7346570123563008	0.105813
H	0.5407558389182329 0.3105725726492088 0.7436869468236963	0.127800
H	0.0793936596796307 0.6343956874668910 0.1016284898418119	0.111777
H	0.0791905378712607 0.5362973330178000 0.1031621833748330	0.105526
H	0.4611449634347374 0.5908615499772015 0.7346570123563008	0.105778
H	0.4592441990817701 0.6894275033507904 0.7436869468236963	0.127826
H	0.9206063213203712 0.3656043125331092 0.1016284898418119	0.111778
H	0.9208094911287381 0.4637027059821995 0.1031621833748330	0.105526
H	0.4091384500227984 0.4611449634347374 0.7346570123563008	0.105778
H	0.3105725726492088 0.4592441990817701 0.7436869468236963	0.127801
H	0.6343956874668910 0.9206063213203712 0.1016284898418119	0.111777
H	0.5362973330178000 0.9208094911287381 0.1031621833748330	0.105526
H	0.5908615499772015 0.5388550365652626 0.7346570123563008	0.105812
H	0.6894275033507904 0.5407558389182329 0.7436869468236963	0.127825
H	0.3656043125331092 0.0793936596796307 0.1016284898418119	0.111778
H	0.4637027059821995 0.0791905378712607 0.1031621833748330	0.105526
H	0.5793936786796288 0.8656043125331090 0.6016284818418109	0.111777
H	0.5791905088712619 0.9637027059821996 0.6031622153748354	0.105526
H	0.0388550465652635 0.0908615209772026 0.2346570283563017	0.105778
H	0.0407558439182298 0.1894274463507892 0.2436869788236916	0.127800
H	0.4206063593203744 0.1343957164668896 0.6016284818418109	0.111777
H	0.4208094521287383 0.0362973180177953 0.6031622153748354	0.105526
H	0.9611449634347374 0.9091385270227942 0.2346570283563017	0.105812
H	0.9592441610817671 0.8105726106492119 0.2436869788236916	0.127799
H	0.1343957164668896 0.5793936786796288 0.6016284818418109	0.111777
H	0.0362973180177953 0.5791905088712619 0.6031622153748354	0.105526
H	0.9091385270227942 0.0388550465652635 0.2346570283563017	0.105778
H	0.8105726106492119 0.0407558439182298 0.2436869788236916	0.127800
H	0.8656043125331090 0.4206063593203744 0.6016284818418109	0.111777
H	0.9637027059821996 0.4208094521287383 0.6031622153748354	0.105526
H	0.0908615209772026 0.9611449634347374 0.2346570283563017	0.105812
H	0.1894274463507892 0.9592441610817671 0.2436869788236916	0.127799
H	0.4206063593203744 0.8656043125331090 0.3983714861581860	0.111777
H	0.4208094521287383 0.9637027059821996 0.3968378486251625	0.105526
H	0.9611449634347374 0.0908615209772026 0.7653429556436966	0.105812
H	0.9592441610817671 0.1894274463507892 0.7563130211763082	0.127799
H	0.5793936786796288 0.1343957164668896 0.3983714861581860	0.111777
H	0.5791905088712619 0.0362973180177953 0.3968378486251625	0.105526
H	0.0388550465652635 0.9091385270227942 0.7653429556436966	0.105778
H	0.0407558439182298 0.8105726106492119 0.7563130211763082	0.127800
H	0.8656043125331090 0.5793936786796288 0.3983714861581860	0.111777
H	0.9637027059821996 0.5791905088712619 0.3968378486251625	0.105526
H	0.0908615209772026 0.0388550465652635 0.7653429556436966	0.105778
H	0.1894274463507892 0.0407558439182298 0.7563130211763082	0.127800
H	0.1343957164668896 0.4206063593203744 0.3983714861581860	0.111778
H	0.0362973180177953 0.4208094521287383 0.3968378486251625	0.105526
H	0.9091385270227942 0.9611449634347374 0.7653429556436966	0.105812
H	0.8105726106492119 0.9592441610817671 0.7563130211763082	0.127799
Fe	0.5000000000000000 0.5000000000000000 0.5000000000000000	0.644197
Fe	-0.0000000000000000 0.0000000000000000 -0.0000000000000000	0.644199
Ti	0.5000000000000000 0.5000000000000000 -0.0000000000000000	2.313555
Ti	-0.0000000000000000 0.0000000000000000 0.5000000000000000	2.313553
F	0.5000000000000000 0.5000000000000000 0.2467130845747905	-0.589771
F	-0.0000000000000000 0.0000000000000000 0.7467130525747948	-0.589770
F	0.5000000000000000 0.5000000000000000 0.7532868514252115	-0.589771
F	-0.0000000000000000 0.0000000000000000 0.2532869154252094	-0.589770
F	0.5528934912470113 0.5528934912470113 -0.0000000000000000	-0.651211
F	0.0528934442470108 0.0528934442470108 0.5000000000000000	-0.651208
F	0.4471065847529950 0.4471065847529950 -0.0000000000000000	-0.651208
F	0.9471065467529919 0.9471065467529919 0.5000000000000000	-0.651207
F	0.4471065847529950 0.5528934912470113 -0.0000000000000000	-0.651209
F	0.9471065467529919 0.0528934442470108 0.5000000000000000	-0.651208
F	0.5528934912470113 0.4471065847529950 -0.0000000000000000	-0.651209
F	0.0528934442470108 0.9471065467529919 0.5000000000000000	-0.651208
N	0.5000000000000000 0.4131965105875461 0.5000000000000000	-0.202144
N	-0.0000000000000000 0.9131965485875490 -0.0000000000000000	-0.202139
N	0.5000000000000000 0.5868034894124542 0.5000000000000000	-0.202142
N	-0.0000000000000000 0.0868034984124512 -0.0000000000000000	-0.202144
N	0.5868034894124542 0.5000000000000000 0.5000000000000000	-0.202142
N	0.0868034984124512 0.0000000000000000 -0.0000000000000000	-0.202144
N	0.4131965105875461 0.5000000000000000 0.5000000000000000	-0.202144
N	0.9131965485875490 0.0000000000000000 -0.0000000000000000	-0.202139
	  	
