#======================================================================

# CRYSTAL DATA

#----------------------------------------------------------------------

data_VESTA_phase_1


_pd_phase_name                         TIFSIX_13_Ni_i
_cell_length_a                         15.28411
_cell_length_b                         15.28072
_cell_length_c                         7.86973
_cell_angle_alpha                      89.92797
_cell_angle_beta                       89.95646
_cell_angle_gamma                      89.84814
_symmetry_space_group_name_H-M         P 1
_symmetry_Int_Tables_number            1

loop_
_symmetry_equiv_pos_as_xyz
   x, y, z

loop_
   _atom_site_label
   _atom_site_fract_x
   _atom_site_fract_y
   _atom_site_fract_z
   _atom_site_charge
C	0.5403684287971555 0.6833227936063276 0.8707314757389959	0.108340
C	0.5435033196618075 0.7743602854114957 0.8684370600507086	-0.147707
C	0.4631526245676065 0.3194557250996266 0.8775289194833540	0.108258
C	0.4600036837154601 0.2284954405057401 0.8771383619491838	-0.139914
C	0.8185171819815490 0.9732648088514247 0.3647791588967573	0.112308
C	0.7277051463856522 0.9704986814766848 0.3608917294214171	-0.136392
C	0.3189042580015370 0.5414802338314205 0.8685864423001541	0.107809
C	0.2279231757289696 0.5454124146054459 0.8659304105774853	-0.147229
C	0.1836781138270899 0.9710046755624974 0.3561041674045566	0.106207
C	0.2745861560955669 0.9698567486712385 0.3529038362173499	-0.136316
C	0.6826027535321810 0.4627829578158739 0.8834087785742797	0.109915
C	0.7735014416399263 0.4599909976651400 0.8819690443970687	-0.141827
C	0.4548128086304792 0.6834416836271732 0.1146514718288901	0.109728
C	0.4515973604242270 0.7743652124073254 0.1171859399258830	-0.136478
C	0.5398440139499988 0.3209450344761754 0.1322711454186634	0.108210
C	0.5424090931419223 0.2299086136573387 0.1378380291383038	-0.146380
C	0.1816196244103317 0.0202314242193973 0.6349712642225722	0.112099
C	0.2723782488648788 0.0223110710887238 0.6418002582352831	-0.137913
C	0.6808535349516108 0.5435764030028151 0.1331216455759751	0.108481
C	0.7718994066676083 0.5468455436382225 0.1371376344134475	-0.148087
C	0.8182597073224276 0.0297206882813453 0.6384671738166808	0.103127
C	0.7273943227657331 0.0305391663269521 0.6443390436715137	-0.134522
C	0.3179927580694645 0.4581588730725524 0.1155818612007705	0.108985
C	0.2270625144708466 0.4557523271747195 0.1178574587221193	-0.139352
C	0.9654541807590682 0.8164800980173407 0.6346510582664118	0.110226
C	0.9644613350090021 0.7255238314670428 0.6413367473180396	-0.134428
C	0.9833622249747946 0.1803524662918767 0.6401884938096631	0.106363
C	0.9798216858375801 0.2710874247290112 0.6437130676662449	-0.136786
C	0.0212806505095202 0.8154237333005210 0.3603546580422824	0.105049
C	0.0240488520499576 0.7246449401277123 0.3574140149710170	-0.135190
C	0.0314342873709280 0.1799072034096683 0.3603153669138803	0.113427
C	0.0312539742615456 0.2708336549266024 0.3538063152913132	-0.136350
C	0.0039510549748263 0.3174313582362437 0.4976466977143543	0.043376
C	0.0010204148548635 0.4132831282405205 0.4974090309661091	0.254802
C	0.4978556594486032 0.8209176375298208 0.9932019572624460	0.056035
C	0.4988408385383333 0.9175272818229763 0.9980012133306071	0.249110
C	0.9952020749485734 0.6785145013246265 0.5005836528609681	0.038470
C	0.9971561845116403 0.5825143963666845 0.5005714175861253	0.248868
C	0.5009975342554280 0.1826759880675429 0.0090144675694414	0.055203
C	0.5003375367105265 0.0859832370216424 0.0097763601540965	0.251809
C	0.6810236560602038 0.9998551584440862 0.5031663005285635	0.039121
C	0.5850897124723997 0.9977436868864277 0.5041696479136012	0.246577
C	0.1809636951613522 0.5011471179345729 0.9918317212898395	0.057144
C	0.0843387962088376 0.5021716915221681 0.9943964808987559	0.248405
C	0.3200028522829560 0.9961210297097517 0.4985012597724450	0.042514
C	0.4158762871793428 0.9960956706835421 0.5016216619830646	0.255476
C	0.8192262035222997 0.5036345181015961 0.0102233931515084	0.057956
C	0.9159048449290835 0.5034905954081653 0.0075567026243138	0.248999
H	0.5719329729231590 0.6449119759150640 0.7711928648678487	0.105800
H	0.5801539064342767 0.8077640099283834 0.7690051955161914	0.124385
H	0.4351347565803453 0.3573670136578021 0.7731794295974537	0.106624
H	0.4284603593234808 0.1936248877255698 0.7734907836555546	0.118793
H	0.8566463530944841 0.9516745162299718 0.2555672748256224	0.101839
H	0.6941563464687002 0.9465067103907826 0.2482956665960177	0.120662
H	0.3575268391959740 0.5718936036023216 0.7680220651823612	0.106515
H	0.1948366354128693 0.5815494832644236 0.7652951234513095	0.124950
H	0.1468354885218246 0.9528053679099968 0.2432129672630716	0.097389
H	0.3087933547276726 0.9502812880271229 0.2375736992443837	0.116760
H	0.6447169445498470 0.4331484429018523 0.7812889281622482	0.106076
H	0.8084616051174818 0.4269468186734492 0.7798898335801918	0.118169
H	0.4234395617407367 0.6449397401617575 0.2141845710491894	0.106177
H	0.4168014409782827 0.8086572479879451 0.2178394171914257	0.116364
H	0.5682218645312559 0.3598692270306947 0.2344525243802414	0.106442
H	0.5750360611238757 0.1970478257436866 0.2431654970052475	0.124018
H	0.1428805530515345 0.0392234149239943 0.7450950284825963	0.100539
H	0.3049760272026380 0.0426801266176918 0.7580499607292281	0.120355
H	0.6419128278286375 0.5733497897401044 0.2340658578811295	0.105972
H	0.8046298714670236 0.5814575152135134 0.2398637393431787	0.124270
H	0.8558568575562495 0.0507574849990045 0.7485200135090682	0.097418
H	0.6939375277825964 0.0531602977336248 0.7583488778904250	0.121135
H	0.3562053967632779 0.4273956172316352 0.2164419921406247	0.105973
H	0.1923836724999269 0.4220218744049170 0.2193418609769514	0.116604
H	0.9435919957842305 0.8548896765728192 0.7432936297565493	0.103577
H	0.9415943765310841 0.6924476524088968 0.7556431804888893	0.120306
H	0.9667586904318496 0.1428201581070659 0.7531943670761075	0.094967
H	0.9595385913870229 0.3046906639773544 0.7590926399873763	0.120121
H	0.0413865678654246 0.8526719969759344 0.2490932474464734	0.096087
H	0.0475194451701274 0.6908473701979290 0.2445920238788122	0.119181
H	0.0508773044696135 0.1416835764461220 0.2497167625216585	0.103133
H	0.0502119854099614 0.3042372377022258 0.2371755139091159	0.119154
N	0.9446030083675478 0.5394103952379465 0.6106264687928966	-0.136520
N	0.4216648390295911 0.0458936706728786 0.0087650943400218	-0.149799
N	0.5424024468079481 0.0496854494119176 0.6161600297584668	-0.136353
N	0.9564629752642871 0.4248609678490562 0.0026186912626975	-0.147471
N	0.0510857160769240 0.5425083643295663 0.3881990380561639	-0.134972
N	0.5782270981779006 0.0440586308862548 0.0114817759300117	-0.147955
N	0.9572810985762455 0.5814653479410645 0.0051013625930639	-0.147662
N	0.5447593178980765 0.9428015685901107 0.3947897478460092	-0.132345
N	0.0534455597666159 0.4564257976224986 0.3874170110106199	-0.130274
N	0.5774970282307927 0.9576440817929909 0.0009407205417367	-0.147707
N	0.4586201591215048 0.9419034014560073 0.3939623667685937	-0.130485
N	0.0436903307230746 0.5807643105479020 0.9942778974188097	-0.146078
N	0.9461888069226223 0.4532264286647348 0.6079273766604981	-0.131203
N	0.4209977624360560 0.9593475955671765 0.0062450008053526	-0.144992
N	0.0429779224568396 0.4241730768560525 0.9989989011493723	-0.147531
N	0.4562720339973232 0.0489821201218102 0.6144340185886559	-0.133899
N	0.0073010541367927 0.1352449467061951 0.5005912110199354	-0.228028
N	0.4978406858429654 0.6386680119811248 0.9930433858305620	-0.233822
N	0.9937370939374084 0.8608699937256163 0.4969906714392922	-0.225996
N	0.5015571947780471 0.3648715831394520 0.0036659782542057	-0.238588
N	0.8632691215039546 0.0020441524950711 0.5012293923418721	-0.225379
N	0.3631203536152655 0.4995869183659101 0.9924317559643827	-0.236228
N	0.1377537789763778 0.9949910163597542 0.4948219774630722	-0.226346
N	0.6370151300930968 0.5030801580347282 0.0074486294743924	-0.234376
Ni	0.0004736718032627 0.9981194423646287 0.4980031519445139	0.781616
Ni	0.5000446437872261 0.5017743425934095 0.9990569439630858	0.786895
Ti	0.9997696417807139 0.9969619064829345 0.9982380389292593	2.315882
Ti	0.4994187430148976 0.5035719650468827 0.4989003064503607	2.333881
F	0.9983331421256535 0.0007262523554958 0.2439407998131975	-0.620849
F	0.5052809595242150 0.4997432834490219 0.7450134989904935	-0.627648
F	0.0017394630278386 0.9940455465436444 0.7524694807521188	-0.621206
F	0.4941880334721968 0.5054955847377715 0.2528363657137213	-0.628009
F	0.0875128341216790 0.0838766808761756 0.9955982193588321	-0.629544
F	0.5843638162212470 0.5934650811443523 0.4959448960957180	-0.644881
F	0.9118699675203138 0.9105487842617047 0.0011367385702222	-0.629003
F	0.4143586348683583 0.4139882208336013 0.5031963273539825	-0.646466
F	0.9133496006966851 0.0854745141090857 0.9874113250718447	-0.626835
F	0.4100923171729941 0.5893362766541130 0.5096182924465865	-0.645016
F	0.0868499526882233 0.9091831281348589 0.0089328182170357	-0.627043
F	0.5896937700760663 0.4187762840070339 0.4872655733653166	-0.645045
	  	
