#======================================================================

# CRYSTAL DATA

#----------------------------------------------------------------------

data_VESTA_phase_1


_pd_phase_name                         TIFSIX_1_Ni
_cell_length_a                         11.23756
_cell_length_b                         11.23756
_cell_length_c                         7.94827
_cell_angle_alpha                      90
_cell_angle_beta                       90
_cell_angle_gamma                      90
_symmetry_space_group_name_H-M         P 1
_symmetry_Int_Tables_number            1

loop_
_symmetry_equiv_pos_as_xyz
   x, y, z

loop_
   _atom_site_label
   _atom_site_fract_x
   _atom_site_fract_y
   _atom_site_fract_z
   _atom_site_charge
C	0.2537242920717831 0.4571193717965083 0.3672649725850062	0.104431
C	0.1300930535629538 0.4566388194088780 0.3622689728545413	-0.169791
C	0.7462757949282207 0.5428806712034915 0.3672649725850062	0.104431
C	0.8699069904370494 0.5433611805911226 0.3622689728545413	-0.169791
C	0.5428806712034915 0.2537242920717831 0.3672649725850062	0.104431
C	0.5433611805911226 0.1300930535629538 0.3622689728545413	-0.169791
C	0.4571193717965083 0.7462757949282207 0.3672649725850062	0.104431
C	0.4566388194088780 0.8699069904370494 0.3622689728545413	-0.169791
C	0.7462757949282207 0.4571193717965083 0.6327349974149913	0.104431
C	0.8699069904370494 0.4566388194088780 0.6377309981454528	-0.169789
C	0.2537242920717831 0.5428806712034915 0.6327349974149913	0.104431
C	0.1300930535629538 0.5433611805911226 0.6377309981454528	-0.169789
C	0.4571193717965083 0.2537242920717831 0.6327349974149913	0.104431
C	0.4566388194088780 0.1300930535629538 0.6377309981454528	-0.169789
C	0.5428806712034915 0.7462757949282207 0.6327349974149913	0.104431
C	0.5433611805911226 0.8699069904370494 0.6377309981454526	-0.169789
C	0.0656400140898950 0.5000000000000000 0.5000000000000000	0.099380
C	0.9343600619101045 0.5000000000000000 0.5000000000000000	0.099378
C	0.5000000000000000 0.0656400140898950 0.5000000000000000	0.099380
C	0.5000000000000000 0.9343600619101046 0.5000000000000000	0.099378
H	0.3056657233375492 0.4232073699558714 0.2617025268331714	0.100789
H	0.0845907299942334 0.4206331828514006 0.2525517812158305	0.122231
H	0.6943342336624511 0.5767926300441286 0.2617025268331714	0.100789
H	0.9154092860057681 0.5793668171485998 0.2525517812158305	0.122230
H	0.5767926300441286 0.3056657233375492 0.2617025268331714	0.100789
H	0.5793668171485998 0.0845907299942334 0.2525517812158305	0.122231
H	0.4232073699558714 0.6943342336624511 0.2617025268331714	0.100789
H	0.4206331828514006 0.9154092860057681 0.2525517812158305	0.122231
H	0.6943342336624511 0.4232073699558714 0.7382974441668296	0.100789
H	0.9154092860057681 0.4206331828514006 0.7474482777841707	0.122230
H	0.3056657233375492 0.5767926300441286 0.7382974441668296	0.100789
H	0.0845907299942334 0.5793668171485998 0.7474482777841707	0.122229
H	0.4232073699558714 0.3056657233375492 0.7382974441668296	0.100789
H	0.4206331828514006 0.0845907299942334 0.7474482777841707	0.122230
H	0.5767926300441286 0.6943342336624511 0.7382974441668296	0.100789
H	0.5793668171485998 0.9154092860057681 0.7474482777841707	0.122230
Ni	0.5000000000000000 0.5000000000000000 0.5000000000000000	0.781368
Ti	0.5000000000000000 0.5000000000000000 0.0000000000000000	2.326441
F	0.5000000000000000 0.5000000000000000 0.7557931916316909	-0.623116
F	0.5000000000000000 0.5000000000000000 0.2442068083683088	-0.623116
F	0.3810432703586885 0.3810432703586885 0.0000000000000000	-0.641931
F	0.6189567296413111 0.6189567296413111 0.0000000000000000	-0.641931
F	0.6189567296413111 0.3810432703586885 0.0000000000000000	-0.641931
F	0.3810432703586885 0.6189567296413111 0.0000000000000000	-0.641931
N	0.3147666421784465 0.5000000000000000 0.5000000000000000	-0.238163
N	0.6852333798215549 0.5000000000000000 0.5000000000000000	-0.238163
N	0.5000000000000000 0.3147666421784465 0.5000000000000000	-0.238163
N	0.5000000000000000 0.6852333798215549 0.5000000000000000	-0.238163
	  	
