#======================================================================

# CRYSTAL DATA

#----------------------------------------------------------------------

data_VESTA_phase_1


_pd_phase_name                         TIFSIX_14_Ni_i
_cell_length_a                         13.25072
_cell_length_b                         13.23367
_cell_length_c                         7.96081
_cell_angle_alpha                      87.34909
_cell_angle_beta                       87.37848
_cell_angle_gamma                      89.03597
_symmetry_space_group_name_H-M         P 1
_symmetry_Int_Tables_number            1

loop_
_symmetry_equiv_pos_as_xyz
   x, y, z

loop_
   _atom_site_label
   _atom_site_fract_x
   _atom_site_fract_y
   _atom_site_fract_z
   _atom_site_charge
C	0.5683385977519252 0.2696018344254315 0.3639438584870212	-0.179159
C	0.4634244858983633 0.2734540078004912 0.3690864269864002	0.111279
C	0.9373214451057075 0.2898855999422668 0.4166392722892118	-0.169397
C	0.0419407016025562 0.2830037272690763 0.4012578481586982	0.113403
C	0.2678288666930027 0.5678330940543965 0.3660372108608046	-0.180569
C	0.2715925310672309 0.4627407700904969 0.3715577965014278	0.114005
C	0.2973947927389743 0.9369270063515519 0.4115887230471051	-0.167426
C	0.2896128988573775 0.0416444486869441 0.3971329133428983	0.109790
C	0.9321780645431376 0.2329742420249462 0.1338779674458673	-0.180222
C	0.0371218736710153 0.2293488704576333 0.1283452816434087	0.111815
C	0.5632828967386692 0.2055534072376940 0.0858921433570180	-0.166887
C	0.4586354619498557 0.2130222045037825 0.1005045587009008	0.111426
C	0.2068380457120199 0.5626981610564459 0.0859226114831932	-0.171745
C	0.2143183709022914 0.4579996818536781 0.1009129044301596	0.111828
C	0.2295834277547258 0.9318407001044526 0.1362551765591321	-0.179624
C	0.2257779624110396 0.0369112308719867 0.1310140275853101	0.113033
C	0.4321999040958954 0.7345358997228499 0.6332252341201936	-0.176148
C	0.5370620621992319 0.7319212547086893 0.6272870096555067	0.114559
C	0.0627795662740443 0.7265217558128090 0.5744815027931912	-0.160845
C	0.9581041965897762 0.7293977600697125 0.5920200413868120	0.115225
C	0.7350790172145178 0.4323524562784802 0.6328916934893715	-0.175635
C	0.7328981188901069 0.5373646699137461 0.6270173536404139	0.116045
C	0.7137701720856541 0.0626963844805157 0.5801895215482553	-0.162064
C	0.7184730438722654 0.9578790570171318 0.5965266603801864	0.113056
C	0.0678984400771224 0.7628510273544267 0.8681838146462469	-0.178341
C	0.9630131513068152 0.7645818319153301 0.8745099987787238	0.114869
C	0.4373167693272390 0.7795774418778948 0.9229104323996777	-0.158937
C	0.5420050125454388 0.7758381401285562 0.9057468631071194	0.115183
C	0.7802534406964217 0.4371434086044536 0.9226020291194246	-0.163352
C	0.7763713077968725 0.5419508090450107 0.9057675587576798	0.114933
C	0.7677434325713784 0.0675260368503610 0.8650364003569075	-0.175772
C	0.7706162900358954 0.9625253538728905 0.8705332852090524	0.113586
C	0.6197115757238130 0.2356395037861642 0.2186564706492928	0.190249
C	0.8808458377016487 0.2630599972555452 0.2817499017496853	0.190530
C	0.2354684997833899 0.6191907324402329 0.2196575230896669	0.192999
C	0.2655274084427726 0.8804511654323843 0.2800859922598976	0.190383
C	0.3809311979606330 0.7582695402450895 0.7850359320648523	0.187162
C	0.1191360128639972 0.7439648602169668 0.7142009334776801	0.189397
C	0.7586237874889237 0.3808626440632690 0.7846558232338792	0.189488
C	0.7393943839812444 0.1190063676380354 0.7158849582961841	0.187841
H	0.6096356142023543 0.2883273012330705 0.4730507010926254	0.109973
H	0.4217710986580771 0.2978941303338424 0.4818048401726216	0.098322
H	0.9004609075128857 0.3155128680941374 0.5320907124561911	0.125507
H	0.0876570293643692 0.3027131772591491 0.5046537002448224	0.098141
H	0.2853515713220841 0.6094165698009897 0.4755396012064815	0.112201
H	0.2948714532567612 0.4209762497333057 0.4849596030104453	0.097626
H	0.3274470597694719 0.9000013971531783 0.5238129863386922	0.124638
H	0.3126577140952805 0.0874111584017591 0.4984088944454484	0.099610
H	0.8907901374012702 0.2170281216757890 0.0234155023207545	0.110525
H	0.0787500486616857 0.2075225624244056 0.0139699390098988	0.098414
H	0.6002262119106737 0.1768542465851492 0.9727194578828594	0.124915
H	0.4129528204355154 0.1909840717686621 0.9984928981012935	0.099377
H	0.1797130318049571 0.5995182127832187 0.9714019630861187	0.125519
H	0.1936825501112426 0.4122343618271146 0.9980993559867020	0.099740
H	0.2092931434069965 0.8903648701782905 0.0282179143510912	0.112331
H	0.2000143852770293 0.0786965668425467 0.0192907169464837	0.098610
H	0.3913274897754727 0.7212906518621106 0.5208984345446352	0.105254
H	0.5789338371864504 0.7137027606958793 0.5112863581610817	0.096565
H	0.0996661018854073 0.7111220324570945 0.4534993019974832	0.123170
H	0.9126582936990055 0.7155215101964829 0.4854908401481173	0.096097
H	0.7221929478802228 0.3914074661839561 0.5204695551532779	0.105644
H	0.7151721386809542 0.5794595225740952 0.5108760910946266	0.096798
H	0.6903466260001059 0.0997774775741540 0.4634688115095374	0.124488
H	0.6986782351337932 0.9123792770011347 0.4929429134354480	0.097229
H	0.1088543953423985 0.7730588029974755 0.9816303386848084	0.104786
H	0.9211210682469745 0.7789541855543318 0.9922063502699324	0.096574
H	0.4004551704681811 0.7988237174846100 0.0420897195981294	0.122858
H	0.5874375927571579 0.7928560717011208 0.0108217143667098	0.095819
H	0.7997056098416410 0.4000664672153194 0.0415797864977767	0.124214
H	0.7931708897437324 0.5874166732054559 0.0110129988918322	0.095847
H	0.7837936347558211 0.1083892579558348 0.9761052057331583	0.106577
H	0.7920445806545238 0.9204468130759131 0.9847375359453776	0.098475
N	0.7746565802966121 0.2749066545277961 0.2993859695625274	-0.104777
N	0.2786598966584215 0.7741460094799030 0.2953100304680026	-0.107359
N	0.7259421540100932 0.2233465892681858 0.2014010346495512	-0.106625
N	0.2226323516278296 0.7254803469673149 0.2041940764998184	-0.106194
N	0.2253855733190115 0.7377488814042521 0.6885461063779802	-0.099877
N	0.7308614682094526 0.2254456341340109 0.6925435175526514	-0.101763
N	0.2746606836522634 0.7650838386808193 0.8104661231633448	-0.100378
N	0.7665701844064403 0.2744726106304000 0.8082382788157556	-0.102074
N	0.4089896130643655 0.2464712444461870 0.2393645596359427	-0.230433
N	0.0916211388148223 0.2530486883455342 0.2599482466377037	-0.232293
N	0.2462257018156477 0.4082401008650004 0.2409707355099030	-0.234182
N	0.2544147595473537 0.0913515204681238 0.2595176692578279	-0.231731
N	0.5915442667142513 0.7519951776997820 0.7611054491881174	-0.230477
N	0.9085001317880115 0.7484329553064299 0.7389699480143058	-0.230632
N	0.7527875566433002 0.5917352173710313 0.7610162530678742	-0.232001
N	0.7467390708674699 0.9081601081197174 0.7386708705474823	-0.229049
F	0.3500669853943184 0.1448540438693320 0.7524616957824725	-0.633840
F	0.1513229263522204 0.3533739095439011 0.7487862947859734	-0.633206
F	0.3529200910325567 0.3469543347875025 0.7230348257348288	-0.632284
F	0.1482711022932006 0.1518223570526304 0.7770393783650216	-0.632232
F	0.6463839701417603 0.8515350619074155 0.2506666830178002	-0.629380
F	0.8514264790617964 0.6500169103221821 0.2499740485421910	-0.629373
F	0.6499668206887793 0.6499520523576702 0.2724450912332048	-0.629806
F	0.8480108613992006 0.8516731058849354 0.2275708430626604	-0.629923
F	0.2483968432745348 0.2460175632925322 0.5060376182664093	-0.623349
F	0.2528647582214055 0.2524781930682518 -0.0059627487487358	-0.622858
F	0.7502895315066975 0.7514173365771513 0.4945159017772332	-0.619509
F	0.7484922349187341 0.7494519330788302 0.0057231265281796	-0.619404
Ti	0.2508118683362156 0.2491765711421420 0.7501057700224153	2.319665
Ti	0.7489798599635192 0.7508541423287693 0.2501052238569410	2.314719
Ni	0.2503807569075016 0.2497213002973893 0.2499237205551648	0.787084
Ni	0.7499776639067270 0.7499602124834752 0.7500528804965347	0.781733
	  	
