#======================================================================

# CRYSTAL DATA

#----------------------------------------------------------------------

data_VESTA_phase_1


_pd_phase_name                         TIFSIX_7_Zn
_cell_length_a                         19.25580
_cell_length_b                         19.25580
_cell_length_c                         8.11378
_cell_angle_alpha                      90
_cell_angle_beta                       90
_cell_angle_gamma                      90
_symmetry_space_group_name_H-M         P 1
_symmetry_Int_Tables_number            1

loop_
_symmetry_equiv_pos_as_xyz
   x, y, z

loop_
   _atom_site_label
   _atom_site_fract_x
   _atom_site_fract_y
   _atom_site_fract_z
   _atom_site_charge
C	0.6644164733043415 0.8722741377278437 0.6959685444893919	0.104213
C	0.6136417557585926 0.9235120765641848 0.7001198700550501	-0.175961
C	0.5791979489072956 0.8886505507944999 0.4283952413597045	-0.172367
C	0.6304189773434836 0.8380657173923841 0.4339751081105792	0.101407
C	0.8355835266956585 0.6277258622721563 0.6959685444893919	0.104215
C	0.8863582942414044 0.5764879744358159 0.7001198700550501	-0.175959
C	0.9208019500927067 0.6113495002054936 0.4283952413597045	-0.172381
C	0.8695810226565164 0.6619342826076159 0.4339751081105792	0.101456
C	0.6277258622721563 0.6644164733043415 0.6959685444893919	0.104215
C	0.5764879744358159 0.6136417557585926 0.7001198700550501	-0.175958
C	0.6113495002054936 0.5791979489072956 0.4283952413597045	-0.172381
C	0.6619342826076159 0.6304189773434836 0.4339751081105792	0.101457
C	0.8722741377278437 0.8355835266956585 0.6959685444893919	0.104213
C	0.9235120765641848 0.8863582942414044 0.7001198700550501	-0.175956
C	0.8886505507944999 0.9208019500927067 0.4283952413597045	-0.172359
C	0.8380657173923841 0.8695810226565164 0.4339751081105792	0.101405
C	0.3355835016956603 0.3722740877278396 0.3040314855106105	0.104214
C	0.3863582442414075 0.4235120765641851 0.2998801599449525	-0.175955
C	0.4208020510927044 0.3886504997945065 0.5716047586402956	-0.172380
C	0.3695809716565230 0.3380657173923842 0.5660249218894234	0.101456
C	0.1644164983043399 0.1277258992721630 0.3040314855106105	0.104214
C	0.1136417557585925 0.0764879234358150 0.2998801599449525	-0.175955
C	0.0791979299072906 0.1113495002054934 0.5716047586402956	-0.172381
C	0.1304190283434768 0.1619342706076148 0.5660249218894234	0.101457
C	0.3722740877278396 0.1644164983043399 0.3040314855106105	0.104214
C	0.4235120765641851 0.1136417557585925 0.2998801599449525	-0.175955
C	0.3886504997945065 0.0791979299072906 0.5716047586402956	-0.172380
C	0.3380657173923842 0.1304190283434768 0.5660249218894234	0.101457
C	0.1277258992721630 0.3355835016956603 0.3040314855106105	0.104214
C	0.0764879234358150 0.3863582442414075 0.2998801599449525	-0.175954
C	0.1113495002054934 0.4208020510927044 0.5716047586402956	-0.172380
C	0.1619342706076148 0.3695809716565230 0.5660249218894234	0.101457
C	0.4333763756806178 0.0697835522013268 0.4363555343224937	0.140813
C	0.4873705455785800 0.0166875208024520 0.4328772078411044	-0.121341
C	0.0666236243193822 0.4302164407986762 0.4363555343224937	0.140814
C	0.0126294224214171 0.4833124151975497 0.4328772078411044	-0.121346
C	0.4302164407986762 0.4333763756806178 0.4363555343224937	0.140815
C	0.4833124151975497 0.4873705455785800 0.4328772078411044	-0.121351
C	0.0697835522013268 0.0666236243193822 0.4363555343224937	0.140815
C	0.0166875208024520 0.0126294224214171 0.4328772078411044	-0.121347
C	0.5666236243193823 0.5697835592013236 0.5636444656775064	0.140823
C	0.5126295054214135 0.5166875348024459 0.5671228211588946	-0.121325
C	0.9333763256806208 0.9302163907986722 0.5636444656775064	0.140805
C	0.9873705455785801 0.9833125161975548 0.5671228211588946	-0.121311
C	0.5697835592013236 0.9333763256806208 0.5636444656775064	0.140832
C	0.5166875348024459 0.9873705455785801 0.5671228211588946	-0.121331
C	0.9302163907986722 0.5666236243193822 0.5636444656775064	0.140823
C	0.9833125161975548 0.5126295054214135 0.5671228211588946	-0.121326
H	0.6983709954154558 0.8635693776739448 0.8013735303332512	0.103028
H	0.6085880500280546 0.9558094954785858 0.8099199808288784	0.118063
H	0.5460791726302336 0.8918650094693579 0.3198077738832774	0.118259
H	0.6387714509339990 0.8033728204308892 0.3298280346626965	0.103165
H	0.8016290045845442 0.6364306223260552 0.8013735303332512	0.103028
H	0.8914119499719454 0.5441905555214148 0.8099199808288784	0.118063
H	0.9539208783697670 0.6081350415306428 0.3198077738832774	0.118258
H	0.8612285490660010 0.6966271795691108 0.3298280346626965	0.103158
H	0.6364306223260552 0.6983709954154558 0.8013735303332512	0.103028
H	0.5441905555214148 0.6085880500280546 0.8099199808288784	0.118063
H	0.6081350415306428 0.5460791726302336 0.3198077738832774	0.118258
H	0.6966271795691108 0.6387714509339990 0.3298280346626965	0.103157
H	0.8635693776739448 0.8016290045845442 0.8013735303332512	0.103028
H	0.9558094954785858 0.8914119499719454 0.8099199808288784	0.118063
H	0.8918650094693579 0.9539208783697670 0.3198077738832774	0.118258
H	0.8033728204308892 0.8612285490660010 0.3298280346626965	0.103166
H	0.3016290305845465 0.3635693016739455 0.1986264546667509	0.103028
H	0.3914118739719388 0.4558094444785851 0.1900799751711182	0.118063
H	0.4539208783697674 0.3918650094693580 0.6801921961167273	0.118259
H	0.3612285740660067 0.3033728464308909 0.6701719653373034	0.103157
H	0.1983709824154510 0.1364307243260566 0.1986264546667509	0.103028
H	0.1085881010280556 0.0441905715214161 0.1900799751711182	0.118063
H	0.0460791156302322 0.1081350165306441 0.6801921961167273	0.118258
H	0.1387714509339989 0.1966271415691081 0.6701719653373034	0.103157
H	0.3635693016739455 0.1983709824154510 0.1986264546667509	0.103028
H	0.4558094444785851 0.1085881010280556 0.1900799751711182	0.118062
H	0.3918650094693580 0.0460791156302322 0.6801921961167273	0.118259
H	0.3033728464308909 0.1387714509339989 0.6701719653373034	0.103157
H	0.1364307243260566 0.3016290305845465 0.1986264546667509	0.103028
H	0.0441905715214161 0.3914118739719388 0.1900799751711182	0.118063
H	0.1081350165306441 0.4539208783697674 0.6801921961167273	0.118258
H	0.1966271415691081 0.3612285740660067 0.6701719653373034	0.103158
H	0.5060446124910950 0.0020065175454562 0.3103749223870892	0.103561
H	0.9939554385089057 0.4979934544545415 0.3103749223870892	0.103561
H	0.4979934544545415 0.5060446124910950 0.3103749223870892	0.103562
H	0.0020065175454562 0.9939554385089057 0.3103749223870892	0.103562
H	0.4939553875089054 0.5020064955454612 0.6896251076129061	0.103554
H	0.0060446034910975 0.9979934544545418 0.6896251076129061	0.103562
H	0.5020064955454612 0.0060446034910975 0.6896251076129061	0.103562
H	0.9979934544545418 0.4939553875089054 0.6896251076129061	0.103552
Zn	0.2500000000000000 0.2500000000000000 0.4348711219712617	0.754776
Zn	0.7500000000000000 0.7500000000000000 0.5651288780287386	0.754775
Ti	0.2500000000000000 0.2500000000000000 0.9358480732402681	2.324334
Ti	0.7500000000000000 0.7500000000000000 0.0641519117597340	2.324334
F	0.2500000000000000 0.2500000000000000 0.1753947845975889	-0.615314
F	0.2500000000000000 0.2500000000000000 0.6952218042976257	-0.616601
F	0.7500000000000000 0.7500000000000000 0.8246052454024138	-0.615314
F	0.7500000000000000 0.7500000000000000 0.3047781957023742	-0.616600
F	0.3200482466073476 0.3186963230755939 0.9357331533479887	-0.652380
F	0.1799517783926508 0.1813037019244046 0.9357331533479887	-0.652380
F	0.1813037019244046 0.3200482466073476 0.9357331533479887	-0.652380
F	0.3186963230755939 0.1799517783926508 0.9357331533479887	-0.652380
F	0.6799517783926509 0.8186963230755938 0.0642668466520112	-0.652380
F	0.8200482216073491 0.6813036769244062 0.0642668466520112	-0.652380
F	0.8186963230755938 0.8200482216073491 0.0642668466520112	-0.652380
F	0.6813036769244062 0.6799517783926509 0.0642668466520112	-0.652380
N	0.3300387438505358 0.1726990271155831 0.4348656315260896	-0.232299
N	0.1699612811494629 0.3273009978844154 0.4348656315260896	-0.232299
N	0.3273009978844154 0.3300387438505358 0.4348656315260896	-0.232299
N	0.1726990271155831 0.1699612811494629 0.4348656315260896	-0.232299
N	0.6699612561494642 0.6726990021155846 0.5651343684739107	-0.232298
N	0.8300387438505358 0.8273009978844154 0.5651343684739107	-0.232285
N	0.6726990021155846 0.8300387438505358 0.5651343684739107	-0.232285
N	0.8273009978844154 0.6699612561494642 0.5651343684739107	-0.232298
	  	
