#======================================================================

# CRYSTAL DATA

#----------------------------------------------------------------------

data_VESTA_phase_1


_pd_phase_name                         TIFSIX_16_Cu_i
_cell_length_a                         25.20851
_cell_length_b                         25.20851
_cell_length_c                         7.66083
_cell_angle_alpha                      90
_cell_angle_beta                       90
_cell_angle_gamma                      90
_symmetry_space_group_name_H-M         P 1
_symmetry_Int_Tables_number            1

loop_
_symmetry_equiv_pos_as_xyz
   x, y, z

loop_
   _atom_site_label
   _atom_site_fract_x
   _atom_site_fract_y
   _atom_site_fract_z
   _atom_site_charge
C	0.4776267230503388 0.3865144643538481 0.3678085028143138	0.102593
C	0.4767806782087093 0.3314194867817906 0.3627236559180086	-0.169633
C	0.9550603196013833 0.6128922109969885 0.9435498612513377	-0.125537
C	0.9551792610882596 0.5577971248345632 0.9442035216732506	-0.123907
C	0.5223733149496578 0.6134855736461478 0.3678085028143138	0.102593
C	0.5232193217912903 0.6685805512182056 0.3627236559180086	-0.169634
C	0.0449396043986177 0.3871077500030117 0.9435498612513377	-0.125537
C	0.0448207579117383 0.4422029131654400 0.9442035216732506	-0.123907
C	0.6134855736461478 0.4776267230503388 0.3678085028143138	0.102593
C	0.6685805512182056 0.4767806782087093 0.3627236559180086	-0.169634
C	0.3871077500030117 0.9550603196013833 0.9435498612513377	-0.125537
C	0.4422029131654400 0.9551792610882596 0.9442035216732506	-0.123907
C	0.3865144643538481 0.5223733149496578 0.3678085028143138	0.102593
C	0.3314194867817906 0.5232193217912903 0.3627236559180086	-0.169633
C	0.6128922109969885 0.0449396043986177 0.9435498612513377	-0.125537
C	0.5577971248345632 0.0448207579117383 0.9442035216732506	-0.123907
C	0.5223733149496578 0.3865144643538481 0.6321914971856862	0.102593
C	0.5232193217912903 0.3314194867817906 0.6372763120819890	-0.169634
C	0.0449396043986177 0.6128922109969885 0.0564501507486633	-0.125537
C	0.0448207579117383 0.5577971248345632 0.0557964543267476	-0.123907
C	0.4776267230503388 0.6134855736461478 0.6321914971856862	0.102593
C	0.4767806782087093 0.6685805512182056 0.6372763120819890	-0.169634
C	0.9550603196013833 0.3871077500030117 0.0564501507486633	-0.125537
C	0.9551792610882596 0.4422029131654400 0.0557964543267476	-0.123907
C	0.3865144643538481 0.4776267230503388 0.6321914971856862	0.102593
C	0.3314194867817906 0.4767806782087093 0.6372763120819890	-0.169634
C	0.6128922109969885 0.9550603196013833 0.0564501507486633	-0.125537
C	0.5577971248345632 0.9551792610882596 0.0557964543267476	-0.123907
C	0.6134855736461478 0.5223733149496578 0.6321914971856862	0.102593
C	0.6685805512182056 0.5232193217912903 0.6372763120819890	-0.169634
C	0.3871077500030117 0.0449396043986177 0.0564501507486633	-0.125537
C	0.4422029131654400 0.0448207579117383 0.0557964543267476	-0.123907
C	0.5449396423986207 0.8871077120030157 0.5564501707486579	-0.125537
C	0.5448207389117404 0.9422029131654399 0.5557964463267467	-0.123907
C	0.0223732689496608 0.1134855166461539 0.1321914971856864	0.102593
C	0.0232193197912903 0.1685805132182094 0.1372763280819900	-0.169633
C	0.4550603956013824 0.1128922589969855 0.5564501707486579	-0.125537
C	0.4551792230882639 0.0577970718345624 0.5557964463267467	-0.123907
C	0.9776266850503422 0.8865144263538522 0.1321914971856864	0.102593
C	0.9767806782087097 0.8314194867817905 0.1372763280819900	-0.169634
C	0.1128922589969855 0.5449396423986207 0.5564501707486579	-0.125537
C	0.0577970718345624 0.5448207389117404 0.5557964463267467	-0.123907
C	0.8865144263538522 0.0223732689496608 0.1321914971856864	0.102593
C	0.8314194867817905 0.0232193197912903 0.1372763280819900	-0.169634
C	0.8871077120030157 0.4550603956013824 0.5564501707486579	-0.125537
C	0.9422029131654399 0.4551792230882639 0.5557964463267467	-0.123907
C	0.1134855166461539 0.9776266850503422 0.1321914971856864	0.102593
C	0.1685805132182094 0.9767806782087097 0.1372763280819900	-0.169633
C	0.4550603956013824 0.8871077120030157 0.4435498612513378	-0.125537
C	0.4551792230882639 0.9422029131654399 0.4442035536732530	-0.123907
C	0.9776266850503422 0.1134855166461539 0.8678085348143093	0.102593
C	0.9767806782087097 0.1685805132182094 0.8627236559180084	-0.169634
C	0.5449396423986207 0.1128922589969855 0.4435498612513378	-0.125537
C	0.5448207389117404 0.0577970718345624 0.4442035536732530	-0.123907
C	0.0223732689496608 0.8865144263538522 0.8678085348143093	0.102593
C	0.0232193197912903 0.8314194867817905 0.8627236559180084	-0.169634
C	0.8871077120030157 0.5449396423986207 0.4435498612513378	-0.125537
C	0.9422029131654399 0.5448207389117404 0.4442035536732530	-0.123907
C	0.1134855166461539 0.0223732689496608 0.8678085348143093	0.102593
C	0.1685805132182094 0.0232193197912903 0.8627236559180084	-0.169634
C	0.1128922589969855 0.4550603956013824 0.4435498612513378	-0.125537
C	0.0577970718345624 0.4551792230882639 0.4442035536732530	-0.123907
C	0.8865144263538522 0.9776266850503422 0.8678085348143093	0.102593
C	0.8314194867817905 0.9767806782087097 0.8627236559180084	-0.169634
C	0.5000000000000000 0.3024926562413198 0.5000000000000000	0.174846
C	0.5000000000000000 0.2461700630393664 0.5000000000000000	-0.116859
C	0.5000000000000000 0.1977542803414185 0.5000000000000000	-0.093347
C	0.5000000000000000 0.1414547827942802 0.5000000000000000	0.122595
C	0.5000000000000000 0.0292171673157843 0.5000000000000000	0.066156
C	-0.0000000000000000 0.8024926372413144 0.0000000000000000	0.174847
C	-0.0000000000000000 0.7461700430393642 0.0000000000000000	-0.116860
C	-0.0000000000000000 0.6977542423414222 0.0000000000000000	-0.093346
C	-0.0000000000000000 0.6414547447942772 0.0000000000000000	0.122595
C	-0.0000000000000000 0.5292171813157853 0.0000000000000000	0.066156
C	0.5000000000000000 0.6975073247586825 0.5000000000000000	0.174846
C	0.5000000000000000 0.7538299949606319 0.5000000000000000	-0.116859
C	0.5000000000000000 0.8022457196585817 0.5000000000000000	-0.093348
C	0.5000000000000000 0.8585452172057196 0.5000000000000000	0.122595
C	0.5000000000000000 0.9707828186842147 0.5000000000000000	0.066155
C	-0.0000000000000000 0.1975073437586801 0.0000000000000000	0.174846
C	-0.0000000000000000 0.2538299369606336 0.0000000000000000	-0.116859
C	-0.0000000000000000 0.3022456996585798 0.0000000000000000	-0.093347
C	-0.0000000000000000 0.3585452172057199 0.0000000000000000	0.122595
C	-0.0000000000000000 0.4707828566842177 0.0000000000000000	0.066155
C	0.6975073247586825 0.5000000000000000 0.5000000000000000	0.174846
C	0.7538299949606319 0.5000000000000000 0.5000000000000000	-0.116859
C	0.8022457196585817 0.5000000000000000 0.5000000000000000	-0.093348
C	0.8585452172057196 0.5000000000000000 0.5000000000000000	0.122595
C	0.9707828186842147 0.5000000000000000 0.5000000000000000	0.066156
C	0.1975073437586801 -0.0000000000000000 0.0000000000000000	0.174846
C	0.2538299369606336 -0.0000000000000000 0.0000000000000000	-0.116859
C	0.3022456996585798 -0.0000000000000000 0.0000000000000000	-0.093347
C	0.3585452172057199 -0.0000000000000000 0.0000000000000000	0.122595
C	0.4707828566842177 -0.0000000000000000 0.0000000000000000	0.066156
C	0.3024926562413198 0.5000000000000000 0.5000000000000000	0.174846
C	0.2461700630393664 0.5000000000000000 0.5000000000000000	-0.116859
C	0.1977542803414185 0.5000000000000000 0.5000000000000000	-0.093347
C	0.1414547827942802 0.5000000000000000 0.5000000000000000	0.122595
C	0.0292171673157843 0.5000000000000000 0.5000000000000000	0.066155
C	0.8024926372413144 -0.0000000000000000 0.0000000000000000	0.174847
C	0.7461700430393642 -0.0000000000000000 0.0000000000000000	-0.116860
C	0.6977542423414222 -0.0000000000000000 0.0000000000000000	-0.093346
C	0.6414547447942772 -0.0000000000000000 0.0000000000000000	0.122595
C	0.5292171813157853 -0.0000000000000000 0.0000000000000000	0.066156
H	0.4603772613285005 0.4097630471751052 0.2618654295354632	0.105074
H	0.4585549925237928 0.3110812357207675 0.2527327138187325	0.126322
H	0.9203365130026033 0.6345827397735107 0.8980359936598412	0.111265
H	0.9204086215244381 0.5364968079084740 0.8963027118251047	0.106125
H	0.5396227386714990 0.5902369528248946 0.2618654295354632	0.105074
H	0.5414450454762105 0.6889188402792317 0.2527327138187325	0.126322
H	0.0796634679973988 0.3654172602264893 0.8980359936598412	0.111265
H	0.0795914074755606 0.4635032310915256 0.8963027118251047	0.106125
H	0.5902369528248946 0.4603772613285005 0.2618654295354632	0.105074
H	0.6889188402792317 0.4585549925237928 0.2527327138187325	0.126322
H	0.3654172602264893 0.9203365130026033 0.8980359936598412	0.111265
H	0.4635032310915256 0.9204086215244381 0.8963027118251047	0.106125
H	0.4097630471751052 0.5396227386714990 0.2618654295354632	0.105074
H	0.3110812357207675 0.5414450454762105 0.2527327138187325	0.126322
H	0.6345827397735107 0.0796634679973988 0.8980359936598412	0.111265
H	0.5364968079084740 0.0795914074755606 0.8963027118251047	0.106125
H	0.5396227386714990 0.4097630471751052 0.7381345544645356	0.105074
H	0.5414450454762105 0.3110812357207675 0.7472672861812674	0.126323
H	0.0796634679973988 0.6345827397735107 0.1019639823401566	0.111265
H	0.0795914074755606 0.5364968079084740 0.1036972881748955	0.106125
H	0.4603772613285005 0.5902369528248946 0.7381345544645356	0.105074
H	0.4585549925237928 0.6889188402792317 0.7472672861812674	0.126323
H	0.9203365130026033 0.3654172602264893 0.1019639823401566	0.111265
H	0.9204086215244381 0.4635032310915256 0.1036972881748955	0.106125
H	0.4097630471751052 0.4603772613285005 0.7381345544645356	0.105074
H	0.3110812357207675 0.4585549925237928 0.7472672861812674	0.126323
H	0.6345827397735107 0.9203365130026033 0.1019639823401566	0.111265
H	0.5364968079084740 0.9204086215244381 0.1036972881748955	0.106126
H	0.5902369528248946 0.5396227386714990 0.7381345544645356	0.105074
H	0.6889188402792317 0.5414450454762105 0.7472672861812674	0.126323
H	0.3654172602264893 0.0796634679973988 0.1019639823401566	0.111265
H	0.4635032310915256 0.0795914074755606 0.1036972881748955	0.106125
H	0.5796634869973967 0.8654172602264893 0.6019639743401561	0.111265
H	0.5795913784755619 0.9635032310915257 0.6036973201748980	0.106125
H	0.0396227486715003 0.0902369238248960 0.2381345704645370	0.105074
H	0.0414450504762073 0.1889187832792304 0.2472673181812630	0.126322
H	0.4203365510026062 0.1345827687735095 0.6019639743401561	0.111265
H	0.4204085825244385 0.0364967929084691 0.6036973201748980	0.106125
H	0.9603772613285010 0.9097631241751011 0.2381345704645370	0.105074
H	0.9585549545237895 0.8110812737207707 0.2472673181812630	0.126322
H	0.1345827687735095 0.5796634869973967 0.6019639743401561	0.111265
H	0.0364967929084691 0.5795913784755619 0.6036973201748980	0.106125
H	0.9097631241751011 0.0396227486715003 0.2381345704645370	0.105074
H	0.8110812737207707 0.0414450504762073 0.2472673181812630	0.126322
H	0.8654172602264893 0.4203365510026062 0.6019639743401561	0.111265
H	0.9635032310915257 0.4204085825244385 0.6036973201748980	0.106125
H	0.0902369238248960 0.9603772613285010 0.2381345704645370	0.105074
H	0.1889187832792304 0.9585549545237895 0.2472673181812630	0.126322
H	0.4203365510026062 0.8654172602264893 0.3980359936598414	0.111265
H	0.4204085825244385 0.9635032310915257 0.3963027438251001	0.106125
H	0.9603772613285010 0.0902369238248960 0.7618654135354618	0.105074
H	0.9585549545237895 0.1889187832792304 0.7527326818187371	0.126322
H	0.5796634869973967 0.1345827687735095 0.3980359936598414	0.111265
H	0.5795913784755619 0.0364967929084691 0.3963027438251001	0.106125
H	0.0396227486715003 0.9097631241751011 0.7618654135354618	0.105074
H	0.0414450504762073 0.8110812737207707 0.7527326818187371	0.126323
H	0.8654172602264893 0.5796634869973967 0.3980359936598414	0.111265
H	0.9635032310915257 0.5795913784755619 0.3963027438251001	0.106125
H	0.0902369238248960 0.0396227486715003 0.7618654135354618	0.105074
H	0.1889187832792304 0.0414450504762073 0.7527326818187371	0.126322
H	0.1345827687735095 0.4203365510026062 0.3980359936598414	0.111265
H	0.0364967929084691 0.4204085825244385 0.3963027438251001	0.106125
H	0.9097631241751011 0.9603772613285010 0.7618654135354618	0.105074
H	0.8110812737207707 0.9585549545237895 0.7527326818187371	0.126323
Cu	0.5000000000000000 0.5000000000000000 0.5000000000000000	0.825699
Cu	-0.0000000000000000 -0.0000000000000000 0.0000000000000000	0.825699
Ti	0.5000000000000000 0.5000000000000000 0.0000000000000000	2.327853
Ti	-0.0000000000000000 -0.0000000000000000 0.5000000000000000	2.327853
F	0.5000000000000000 0.5000000000000000 0.2521973865469388	-0.648555
F	-0.0000000000000000 -0.0000000000000000 0.7521973545469429	-0.648555
F	0.5000000000000000 0.5000000000000000 0.7478025494530633	-0.648555
F	-0.0000000000000000 -0.0000000000000000 0.2478026134530613	-0.648555
F	0.5529189527157238 0.5529189527157238 0.0000000000000000	-0.646183
F	0.0529189057157237 0.0529189057157237 0.5000000000000000	-0.646183
F	0.4470811232842822 0.4470811232842822 0.0000000000000000	-0.646183
F	0.9470810852842794 0.9470810852842794 0.5000000000000000	-0.646183
F	0.4470811232842822 0.5529189527157238 0.0000000000000000	-0.646183
F	0.9470810852842794 0.0529189057157237 0.5000000000000000	-0.646183
F	0.5529189527157238 0.4470811232842822 0.0000000000000000	-0.646183
F	0.0529189057157237 0.9470810852842794 0.5000000000000000	-0.646183
N	0.5000000000000000 0.4136362413358520 0.5000000000000000	-0.235922
N	-0.0000000000000000 0.9136362793358551 0.0000000000000000	-0.235922
N	0.5000000000000000 0.5863637586641480 0.5000000000000000	-0.235922
N	-0.0000000000000000 0.0863637676641452 0.0000000000000000	-0.235922
N	0.5863637586641480 0.5000000000000000 0.5000000000000000	-0.235922
N	0.0863637676641452 -0.0000000000000000 0.0000000000000000	-0.235922
N	0.4136362413358520 0.5000000000000000 0.5000000000000000	-0.235922
N	0.9136362793358551 -0.0000000000000000 0.0000000000000000	-0.235922
	  	
