#======================================================================

# CRYSTAL DATA

#----------------------------------------------------------------------

data_VESTA_phase_1


_pd_phase_name                         TIFSIX_13_Cd_i
_cell_length_a                         15.76912
_cell_length_b                         15.77233
_cell_length_c                         7.98276
_cell_angle_alpha                      89.56201
_cell_angle_beta                       88.50932
_cell_angle_gamma                      86.51202
_symmetry_space_group_name_H-M         P 1
_symmetry_Int_Tables_number            1

loop_
_symmetry_equiv_pos_as_xyz
   x, y, z

loop_
   _atom_site_label
   _atom_site_fract_x
   _atom_site_fract_y
   _atom_site_fract_z
   _atom_site_charge
C	0.5420574013047571 0.6909084481772633 0.8561282844561426	0.113049
C	0.5479934838140664 0.7787590841613878 0.8573110700753670	-0.148941
C	0.4615692212476331 0.3110936252143163 0.8846674467342395	0.102448
C	0.4590014578143322 0.2229808066732697 0.8854520737134264	-0.142556
C	0.8100963352000290 0.9689589835168998 0.3737773762136608	0.107513
C	0.7222819417688688 0.9656125360767627 0.3691593047755674	-0.137394
C	0.3067618078830209 0.5469832824814201 0.8651951760016797	0.101407
C	0.2181540087075094 0.5521311692398012 0.8671732481369530	-0.145487
C	0.1949237079453657 0.9745418753147727 0.3515226118445149	0.098612
C	0.2831896643163545 0.9736638786401575 0.3499915841417014	-0.138795
C	0.6965723447946033 0.4517590546276706 0.9208851173648864	0.108403
C	0.7847029110095217 0.4512855882683260 0.9145786774816799	-0.144818
C	0.4542880467367878 0.6961193116884514 0.0949784305889853	0.106665
C	0.4536348228195457 0.7841749470691372 0.1003022389566848	-0.138691
C	0.5456127774278159 0.3075121061793274 0.1207135408777176	0.096334
C	0.5497406677191575 0.2190214161680443 0.1245528731004631	-0.147906
C	0.1853747117570395 0.0248841628727136 0.6254278836258506	0.108415
C	0.2731726593104770 0.0265172525412114 0.6337991243284993	-0.141273
C	0.6871645896542390 0.5454611871972835 0.1447961190669929	0.109563
C	0.7750591968857776 0.5516204057859351 0.1418149181710726	-0.148330
C	0.8021728874216167 0.0235294623447250 0.6445032877095641	0.095620
C	0.7139659599419540 0.0235209661794227 0.6491468069562399	-0.136935
C	0.3093577936260730 0.4554597651060777 0.0950705487901350	0.105963
C	0.2213120439424821 0.4538266724616206 0.1003210521464992	-0.143683
C	0.9653617941801573 0.8078898631182398 0.6214853724329334	0.106532
C	0.9633159048040162 0.7200086036581593 0.6292953100444919	-0.140909
C	0.9802666022078631 0.1917874668685942 0.6548468069300494	0.103051
C	0.9802560983060447 0.2799487621393083 0.6575388906163443	-0.137177
C	0.0207841902695734 0.8033133161645666 0.3483086374454366	0.101253
C	0.0221046922023146 0.7150898759311027 0.3464103837128141	-0.135026
C	0.0305482693900557 0.1874657289369014 0.3779239824391710	0.106257
C	0.0329246182694613 0.2752885423263985 0.3703350498509104	-0.141137
C	0.0061057443349276 0.3225218909667084 0.5121591837259993	0.042789
C	0.0030169913256724 0.4155200481799133 0.5067059858462970	0.255006
C	0.5025241705353332 0.8263049198288017 0.9808702831059161	0.056833
C	0.5043595599827568 0.9196187165728559 0.9909958997267523	0.248006
C	0.9932215155698917 0.6725818284240409 0.4896454229481623	0.039163
C	0.9957678800043389 0.5794623474753025 0.4945870035072565	0.248035
C	0.5047404402679552 0.1759776393315381 0.0064175306309684	0.055473
C	0.5047849904437347 0.0823459280476409 0.0077858865108823	0.247894
C	0.6731417109468537 -0.0059392760086411 0.5089801214196011	0.036712
C	0.5800771698107440 0.9937788099795530 0.5078112847263647	0.247358
C	0.1746808972523414 0.5040916693884731 0.9854685473083664	0.055074
C	0.0811064982305008 0.5050699195199863 0.9920899711826802	0.247576
C	0.3231096188152079 0.9996121206780377 0.4940374369249709	0.043339
C	0.4161072936784932 0.9973467279237188 0.4995530261273636	0.254747
C	0.8247510471778446 0.5032785065757154 0.0255948010719224	0.056794
C	0.9181210171882840 0.5049882180809502 0.0158390354214074	0.246982
H	0.5731284285091452 0.6516278539385364 0.7576010527865715	0.106900
H	0.5864974509817487 0.8091679040092680 0.7615879465625273	0.124204
H	0.4309088603529572 0.3501109639684781 0.7868529170568297	0.112586
H	0.4240958092008184 0.1908562931291142 0.7911626051882766	0.120123
H	0.8503963958333700 0.9490376625586169 0.2660550175228298	0.106849
H	0.6927485761705827 0.9423718971386105 0.2579964082523618	0.121851
H	0.3437943077901669 0.5795859649134477 0.7693677833289626	0.117540
H	0.1840935672537489 0.5919311974223121 0.7757707752626991	0.123521
H	0.1611568786143796 0.9551938225776948 0.2415752730982602	0.111461
H	0.3197114983352159 0.9539560802199317 0.2378033231553557	0.112838
H	0.6621934256270050 0.4160880241930978 0.8310466275614429	0.106125
H	0.8217849586395283 0.4140780053625736 0.8210815139467149	0.114684
H	0.4210716105450759 0.6598481195279317 0.1902830150623402	0.109355
H	0.4187133559426578 0.8194450553456519 0.1993734328497030	0.115972
H	0.5756397828476013 0.3442860571306175 0.2160200743764402	0.117509
H	0.5861646478732112 0.1846188158817358 0.2203006173033606	0.124081
H	0.1443600823448132 0.0439746352471895 0.7326533055012950	0.105304
H	0.3020867578872306 0.0468069320199495 0.7480661706021545	0.123799
H	0.6465580908330602 0.5785442533723912 0.2397138777769153	0.111632
H	0.8038750158563479 0.5924906139742740 0.2309664921073071	0.124088
H	0.8366648904239067 0.0446901082129195 0.7520791692596500	0.112562
H	0.6782794625881864 0.0453803099005753 0.7607559160566830	0.115126
H	0.3481369041877143 0.4210229129676944 0.1875761895673072	0.102364
H	0.1888269499588573 0.4167153893706027 0.1950264842024341	0.116161
H	0.9452577203379411 0.8470611343701010 0.7290459751501458	0.106808
H	0.9404191182978580 0.6891367380877337 0.7427929249189592	0.120118
H	0.9603179581769454 0.1560628322623843 0.7652654471424262	0.107736
H	0.9607670314376969 0.3145448795056258 0.7710479809052689	0.116791
H	0.0421084868117910 0.8389291589595863 0.2387918223781203	0.109070
H	0.0449750391225186 0.6806132055028538 0.2349144205869939	0.115992
H	0.0486253091342577 0.1483404209404797 0.2691595680368259	0.106717
H	0.0531655326982649 0.3063802559400819 0.2550988652521702	0.120751
N	0.9483843299682948 0.5418414347217667 0.6142660722136544	-0.133533
N	0.4284538371694803 0.0476270238091830 0.0092840124376924	-0.148823
N	0.5349233280977966 0.0421896737108633 0.6220635779970781	-0.138322
N	0.9624990962590693 0.4288372105452881 0.0104784607962320	-0.146702
N	0.0459547690040288 0.5366018069273089 0.3795863239746209	-0.134198
N	0.5805337321976616 0.0376653102359237 0.0112587042143415	-0.147483
N	0.9529617165028546 0.5810737247533174 0.0063772941554462	-0.148475
N	0.5447174245919558 0.9446966849588736 0.3934701838416046	-0.131496
N	0.0503277823130075 0.4531102556531304 0.3871791641314305	-0.132308
N	0.5804772907692356 0.9540476944536721 -0.0011982523118783	-0.147433
N	0.4612710037435759 0.9458963595449182 0.3904986568287940	-0.129861
N	0.0367045623623859 0.5810585179656476 0.9907796700213203	-0.146442
N	0.9513863547584875 0.4582933584878314 0.6192389275915278	-0.130534
N	0.4283516513791025 0.9639783296194017 0.0037315109720652	-0.143509
N	0.0461737792330488 0.4288960975008103 0.0009423286325975	-0.149422
N	0.4514333265752029 0.0446631323842844 0.6163425082320970	-0.135077
N	0.0039182545464917 0.1467345609646832 0.5169852760397309	-0.231867
N	0.4971325409710369 0.6506103366581973 0.9746751077299199	-0.227636
N	0.9938940913142825 0.8485866669044025 0.4839435928962116	-0.229654
N	0.5031008944211017 0.3522736648949530 0.0017899791865773	-0.237521
N	0.8490269751767693 -0.0025981573897777 0.5089597244148009	-0.230362
N	0.3511722080877714 0.5002950336881887 0.9785927601100129	-0.231645
N	0.1472591167448619 0.9989236308158866 0.4871708234971125	-0.231970
N	0.6488291590755647 0.4973872987692110 0.0342558510663494	-0.231340
Cd	-0.0019178299368149 0.9976451183768426 0.4990165438490415	0.845359
Cd	0.5004196114076531 0.5022606442024813 -0.0014190596888282	0.843719
Ti	0.9984823522698784 0.9972991456795628 -0.0009467033334217	2.318630
Ti	0.5020815633963139 0.5103135190238147 0.4991434072785073	2.337098
F	0.9781046715904166 0.0294867481204135 0.2282991548027321	-0.624004
F	0.5436571790323909 0.4922201501782640 0.7240005249793764	-0.634507
F	0.0189779285303462 0.9650936763712376 0.7695595738849619	-0.624400
F	0.4597169017782721 0.5247886901380751 0.2735023270062231	-0.636592
F	0.0779484491605477 0.0819862373752145 0.9730914116538015	-0.646162
F	0.5805417214700852 0.5960091232054091 0.4639920262437168	-0.652530
F	0.9195498910333539 0.9125043178456769 0.0247687553734438	-0.644155
F	0.4236732221225046 0.4265592806284193 0.5447749363661956	-0.661480
F	0.9100501743162898 0.0770602090363139 0.9339234678576502	-0.633112
F	0.4225991816513155 0.5969287762640519 0.5771952579555792	-0.649755
F	0.0870337258504837 0.9178768921935756 0.0649610109107246	-0.631168
F	0.5843310732058912 0.4287022087367469 0.4126772815160638	-0.655754
	  	
