#======================================================================

# CRYSTAL DATA

#----------------------------------------------------------------------

data_VESTA_phase_1


_pd_phase_name                         TIFSIX_2_Cu_i
_cell_length_a                         13.75877
_cell_length_b                         13.75877
_cell_length_c                         8.22154
_cell_angle_alpha                      90
_cell_angle_beta                       90
_cell_angle_gamma                      90
_symmetry_space_group_name_H-M         P 1
_symmetry_Int_Tables_number            1

loop_
_symmetry_equiv_pos_as_xyz
   x, y, z

loop_
   _atom_site_label
   _atom_site_fract_x
   _atom_site_fract_y
   _atom_site_fract_z
   _atom_site_charge
C	-0.0000000000000000 0.3004271327623312 0.3532433433503908	-0.153904
C	-0.0000000000000000 0.1996630151124561 0.3584631114493528	0.107129
C	0.5000000000000000 0.8004271327623310 0.8532433723503895	-0.153904
C	0.5000000000000000 0.6996630331124578 0.8584631114493526	0.107129
C	-0.0000000000000000 0.6995728672376690 0.3532433433503908	-0.153906
C	-0.0000000000000000 0.8003369668875422 0.3584631114493528	0.107132
C	0.5000000000000000 0.1995728842376666 0.8532433723503895	-0.153906
C	0.5000000000000000 0.3003369668875424 0.8584631114493526	0.107132
C	0.6995728672376690 0.0000000000000000 0.3532433433503908	-0.153904
C	0.8003369668875422 0.0000000000000000 0.3584631114493528	0.107133
C	0.1995728842376666 0.5000000000000000 0.8532433723503895	-0.153904
C	0.3003369668875424 0.5000000000000000 0.8584631114493526	0.107133
C	0.3004271327623312 0.0000000000000000 0.3532433433503908	-0.153906
C	0.1996630151124561 0.0000000000000000 0.3584631114493528	0.107135
C	0.8004271327623310 0.5000000000000000 0.8532433723503895	-0.153906
C	0.6996630331124578 0.5000000000000000 0.8584631114493526	0.107136
C	-0.0000000000000000 0.3004271327623312 0.6467566276496105	-0.153899
C	-0.0000000000000000 0.1996630151124561 0.6415368885506474	0.107130
C	0.5000000000000000 0.8004271327623310 0.1467566566496092	-0.153899
C	0.5000000000000000 0.6996630331124578 0.1415368735506494	0.107130
C	-0.0000000000000000 0.6995728672376690 0.6467566276496105	-0.153901
C	-0.0000000000000000 0.8003369668875422 0.6415368885506474	0.107133
C	0.5000000000000000 0.1995728842376666 0.1467566566496092	-0.153901
C	0.5000000000000000 0.3003369668875424 0.1415368735506494	0.107132
C	0.3004271327623312 0.0000000000000000 0.6467566276496105	-0.153901
C	0.1996630151124561 0.0000000000000000 0.6415368885506474	0.107136
C	0.8004271327623310 0.5000000000000000 0.1467566566496092	-0.153901
C	0.6996630331124578 0.5000000000000000 0.1415368735506494	0.107136
C	0.6995728672376690 0.0000000000000000 0.6467566276496105	-0.153899
C	0.8003369668875422 0.0000000000000000 0.6415368885506474	0.107134
C	0.1995728842376666 0.5000000000000000 0.1467566566496092	-0.153899
C	0.3003369668875424 0.5000000000000000 0.1415368735506494	0.107134
C	-0.0000000000000000 0.4556873143030001 0.5000000000000000	-0.092325
C	-0.0000000000000000 0.3530016824995951 0.5000000000000000	0.160945
C	0.5000000000000000 0.9556873483030026 -0.0000000000000000	-0.092325
C	0.5000000000000000 0.8530016474995955 -0.0000000000000000	0.160946
C	-0.0000000000000000 0.5443126856970002 0.5000000000000000	-0.092076
C	-0.0000000000000000 0.6469983525004045 0.5000000000000000	0.160916
C	0.5000000000000000 0.0443126646969947 -0.0000000000000000	-0.092076
C	0.5000000000000000 0.1469983525004043 -0.0000000000000000	0.160916
C	0.5443126856970002 0.0000000000000000 0.5000000000000000	-0.092325
C	0.6469983525004045 0.0000000000000000 0.5000000000000000	0.160946
C	0.0443126646969947 0.5000000000000000 -0.0000000000000000	-0.092325
C	0.1469983525004043 0.5000000000000000 -0.0000000000000000	0.160946
C	0.4556873143030001 0.0000000000000000 0.5000000000000000	-0.092076
C	0.3530016824995951 0.0000000000000000 0.5000000000000000	0.160916
C	0.9556873483030026 0.5000000000000000 -0.0000000000000000	-0.092076
C	0.8530016474995955 0.5000000000000000 -0.0000000000000000	0.160916
H	-0.0000000000000000 0.3376032260294669 0.2363458852922092	0.122774
H	-0.0000000000000000 0.1572816628618403 0.2467970673060767	0.100928
H	0.5000000000000000 0.8376032260294666 0.7363458852922095	0.122774
H	0.5000000000000000 0.6572816098618396 0.7467970973060790	0.100928
H	-0.0000000000000000 0.6623967739705334 0.2363458852922092	0.122772
H	-0.0000000000000000 0.8427183901381604 0.2467970673060767	0.100928
H	0.5000000000000000 0.1623967739705331 0.7363458852922095	0.122772
H	0.5000000000000000 0.3427183551381541 0.7467970973060790	0.100928
H	0.6623967739705334 0.0000000000000000 0.2363458852922092	0.122774
H	0.8427183901381604 0.0000000000000000 0.2467970673060767	0.100927
H	0.1623967739705331 0.5000000000000000 0.7363458852922095	0.122774
H	0.3427183551381541 0.5000000000000000 0.7467970973060790	0.100927
H	0.3376032260294669 0.0000000000000000 0.2363458852922092	0.122772
H	0.1572816628618403 0.0000000000000000 0.2467970673060767	0.100927
H	0.8376032260294666 0.5000000000000000 0.7363458852922095	0.122772
H	0.6572816098618396 0.5000000000000000 0.7467970973060790	0.100927
H	-0.0000000000000000 0.3376032260294669 0.7636541147077905	0.122771
H	-0.0000000000000000 0.1572816628618403 0.7532028446939233	0.100928
H	0.5000000000000000 0.8376032260294666 0.2636541147077907	0.122771
H	0.5000000000000000 0.6572816098618396 0.2532029326939233	0.100928
H	-0.0000000000000000 0.6623967739705334 0.7636541147077905	0.122770
H	-0.0000000000000000 0.8427183901381604 0.7532028446939233	0.100928
H	0.5000000000000000 0.1623967739705331 0.2636541147077907	0.122770
H	0.5000000000000000 0.3427183551381541 0.2532029326939233	0.100928
H	0.3376032260294669 0.0000000000000000 0.7636541147077905	0.122770
H	0.1572816628618403 0.0000000000000000 0.7532028446939233	0.100927
H	0.8376032260294666 0.5000000000000000 0.2636541147077907	0.122770
H	0.6572816098618396 0.5000000000000000 0.2532029326939233	0.100927
H	0.6623967739705334 0.0000000000000000 0.7636541147077905	0.122771
H	0.8427183901381604 0.0000000000000000 0.7532028446939233	0.100927
H	0.1623967739705331 0.5000000000000000 0.2636541147077907	0.122771
H	0.3427183551381541 0.5000000000000000 0.2532029326939233	0.100927
Cu	-0.0000000000000000 0.0000000000000000 0.5000000000000000	0.724864
Cu	0.5000000000000000 0.5000000000000000 -0.0000000000000000	0.724864
Ti	-0.0000000000000000 0.0000000000000000 -0.0000000000000000	2.314775
Ti	0.5000000000000000 0.5000000000000000 0.5000000000000000	2.314775
N	-0.0000000000000000 0.1498547533242301 0.5000000000000000	-0.218958
N	0.5000000000000000 0.6498547353242287 -0.0000000000000000	-0.218958
N	-0.0000000000000000 0.8501452646757713 0.5000000000000000	-0.218958
N	0.5000000000000000 0.3501452646757713 -0.0000000000000000	-0.218958
N	0.8501452646757713 0.0000000000000000 0.5000000000000000	-0.218959
N	0.3501452646757713 0.5000000000000000 -0.0000000000000000	-0.218959
N	0.1498547533242301 0.0000000000000000 0.5000000000000000	-0.218959
N	0.6498547353242287 0.5000000000000000 -0.0000000000000000	-0.218959
F	-0.0000000000000000 0.0000000000000000 0.7658044483779809	-0.635388
F	0.5000000000000000 0.5000000000000000 0.2658045373779847	-0.635388
F	-0.0000000000000000 0.0000000000000000 0.2341954776220202	-0.635388
F	0.5000000000000000 0.5000000000000000 0.7341955516220191	-0.635388
F	0.5972074737887432 0.5972074737887432 0.5000000000000000	-0.645846
F	0.5972074737887432 0.4027925262112564 0.5000000000000000	-0.645846
F	0.4027925262112564 0.5972074737887432 0.5000000000000000	-0.645846
F	0.4027925262112564 0.4027925262112564 0.5000000000000000	-0.645846
F	0.0972074907887413 0.0972074907887413 -0.0000000000000000	-0.645846
F	0.9027925262112568 0.9027925262112568 -0.0000000000000000	-0.645846
F	0.9027925262112568 0.0972074907887413 -0.0000000000000000	-0.645846
F	0.0972074907887413 0.9027925262112568 -0.0000000000000000	-0.645846
	  	
