#======================================================================

# CRYSTAL DATA

#----------------------------------------------------------------------

data_VESTA_phase_1


_pd_phase_name                         TIFSIX_7_Cd
_cell_length_a                         19.86124
_cell_length_b                         19.86124
_cell_length_c                         8.40282
_cell_angle_alpha                      90
_cell_angle_beta                       90
_cell_angle_gamma                      90
_symmetry_space_group_name_H-M         P 1
_symmetry_Int_Tables_number            1

loop_
_symmetry_equiv_pos_as_xyz
   x, y, z

loop_
   _atom_site_label
   _atom_site_fract_x
   _atom_site_fract_y
   _atom_site_fract_z
   _atom_site_charge
C	0.6491240541802134 0.8669161961674110 0.7037795319410317	0.099634
C	0.5993414300464980 0.9161461148122167 0.7044753675795157	-0.175238
C	0.5871786462721860 0.9005393987952701 0.4230244431403399	-0.166070
C	0.6373521718683900 0.8520287665683381 0.4311192137953180	0.091553
C	0.8508759458197866 0.6330838038325890 0.7037795319410317	0.099634
C	0.9006586199534989 0.5838539361877839 0.7044753675795157	-0.175239
C	0.9128212527278163 0.5994606522047234 0.4230244431403399	-0.166071
C	0.8626478281316100 0.6479712334316619 0.4311192137953180	0.091553
C	0.6330838038325890 0.6491240541802134 0.7037795319410317	0.099634
C	0.5838539361877839 0.5993414300464981 0.7044753675795157	-0.175238
C	0.5994606522047234 0.5871786462721860 0.4230244431403399	-0.166071
C	0.6479712334316619 0.6373521718683900 0.4311192137953180	0.091554
C	0.8669161961674110 0.8508759458197866 0.7037795319410317	0.099634
C	0.9161461148122167 0.9006586199534989 0.7044753675795157	-0.175238
C	0.9005393987952701 0.9128212527278163 0.4230244431403399	-0.166070
C	0.8520287665683381 0.8626478281316100 0.4311192137953180	0.091554
C	0.3508759208197877 0.3669161461674081 0.2962204980589708	0.099633
C	0.4006585699535018 0.4161461148122166 0.2955246624204871	-0.175238
C	0.4128213537278143 0.4005393477952768 0.5769755568596601	-0.166070
C	0.3626477771316164 0.3520287665683376 0.5688808162046850	0.091553
C	0.1491240791802120 0.1330838408325948 0.2962204980589708	0.099634
C	0.0993414300464981 0.0838538851877832 0.2955246624204872	-0.175238
C	0.0871786272721805 0.0994606522047231 0.5769755568596601	-0.166070
C	0.1373522228683837 0.1479712214316612 0.5688808162046850	0.091553
C	0.3669161461674081 0.1491240791802120 0.2962204980589709	0.099634
C	0.4161461148122166 0.0993414300464981 0.2955246624204871	-0.175238
C	0.4005393477952768 0.0871786272721805 0.5769755568596601	-0.166069
C	0.3520287665683376 0.1373522228683837 0.5688808162046850	0.091554
C	0.1330838408325948 0.3508759208197877 0.2962204980589708	0.099634
C	0.0838538851877832 0.4006585699535018 0.2955246624204872	-0.175238
C	0.0994606522047231 0.4128213537278143 0.5769755568596601	-0.166070
C	0.1479712214316612 0.3626477771316164 0.5688808162046850	0.091554
C	0.4345274704958591 0.0669703463503301 0.4378515885874654	0.137833
C	0.4865477371385238 0.0152044529189978 0.4353742989732516	-0.116914
C	0.0654725295041407 0.4330296466496731 0.4378515885874654	0.137838
C	0.0134522308614733 0.4847954830810041 0.4353742989732516	-0.116879
C	0.4330296466496731 0.4345274704958591 0.4378515885874654	0.137838
C	0.4847954830810041 0.4865477371385238 0.4353742989732517	-0.116879
C	0.0669703463503301 0.0654725295041407 0.4378515885874654	0.137833
C	0.0152044529189978 0.0134522308614733 0.4353742989732517	-0.116914
C	0.5654725295041405 0.5669703533503276 0.5621484114125348	0.137835
C	0.5134523138614697 0.5152044669189925 0.5646257300267471	-0.116939
C	0.9345274204958625 0.9330295966496682 0.5621484114125348	0.137832
C	0.9865477371385238 0.9847955840810082 0.5646257300267471	-0.116897
C	0.5669703533503276 0.9345274204958625 0.5621484114125348	0.137832
C	0.5152044669189925 0.9865477371385238 0.5646257300267471	-0.116897
C	0.9330295966496682 0.5654725295041405 0.5621484114125348	0.137835
C	0.9847955840810082 0.5134523138614697 0.5646257300267471	-0.116939
H	0.6741911995974043 0.8520766565774982 0.8139412336031699	0.105460
H	0.5858531761068287 0.9403718732982594 0.8164416209403095	0.115751
H	0.5640713899965382 0.9108410099920436 0.3079240228938780	0.116949
H	0.6543222547173381 0.8260890307879147 0.3237073148631430	0.103475
H	0.8258088004025957 0.6479233434225018 0.8139412336031699	0.105460
H	0.9141468238931713 0.5596281777017412 0.8164416209403095	0.115751
H	0.9359286610034625 0.5891590410079570 0.3079240228938780	0.116949
H	0.8456777452826619 0.6739109692120853 0.3237073148631430	0.103475
H	0.6479233434225018 0.6741911995974043 0.8139412336031699	0.105460
H	0.5596281777017412 0.5858531761068287 0.8164416209403095	0.115751
H	0.5891590410079570 0.5640713899965382 0.3079240228938780	0.116949
H	0.6739109692120853 0.6543222547173381 0.3237073148631430	0.103475
H	0.8520766565774982 0.8258088004025957 0.8139412336031699	0.105460
H	0.9403718732982594 0.9141468238931713 0.8164416209403094	0.115751
H	0.9108410099920436 0.9359286610034625 0.3079240228938780	0.116949
H	0.8260890307879147 0.8456777452826619 0.3237073148631430	0.103475
H	0.3258088264025985 0.3520765805774993 0.1860587513968323	0.105460
H	0.4141467478931649 0.4403718222982585 0.1835583350596865	0.115751
H	0.4359286610034622 0.4108410099920431 0.6920759471061257	0.116949
H	0.3456777702826675 0.3260890567879169 0.6762926851368566	0.103475
H	0.1741911865973992 0.1479234454225031 0.1860587513968323	0.105460
H	0.0858532271068296 0.0596281937017428 0.1835583350596865	0.115751
H	0.0640713329965371 0.0891590160079588 0.6920759471061257	0.116949
H	0.1543222547173383 0.1739109312120822 0.6762926851368566	0.103475
H	0.3520765805774993 0.1741911865973992 0.1860587513968323	0.105460
H	0.4403718222982585 0.0858532271068296 0.1835583350596865	0.115751
H	0.4108410099920431 0.0640713329965371 0.6920759471061257	0.116949
H	0.3260890567879169 0.1543222547173383 0.6762926851368566	0.103475
H	0.1479234454225031 0.3258088264025985 0.1860587513968323	0.105460
H	0.0596281937017428 0.4141467478931649 0.1835583350596865	0.115751
H	0.0891590160079588 0.4359286610034622 0.6920759471061257	0.116949
H	0.1739109312120822 0.3456777702826675 0.6762926851368566	0.103475
H	0.5036006779543954 0.0002106426075482 0.3165957548129131	0.099668
H	0.9963993730456052 0.4997893293924496 0.3165957548129131	0.099664
H	0.4997893293924496 0.5036006779543954 0.3165957548129131	0.099664
H	0.0002106426075482 0.9963993730456052 0.3165957548129131	0.099668
H	0.4963993220456045 0.5002106206075537 0.6834042751870826	0.099671
H	0.0036006689543982 -0.0002106706075507 0.6834042751870826	0.099666
H	0.5002106206075537 0.0036006689543982 0.6834042751870826	0.099666
H	-0.0002106706075507 0.4963993220456045 0.6834042751870826	0.099671
Cd	0.2500000000000000 0.2500000000000000 0.4303844025078276	0.848923
Cd	0.7500000000000000 0.7500000000000000 0.5696155974921719	0.848923
Ti	0.2500000000000000 0.2500000000000000 0.9319415822841421	2.326706
Ti	0.7500000000000000 0.7500000000000000 0.0680584027158603	2.326706
F	0.2500000000000000 0.2500000000000000 0.1617281701065827	-0.623792
F	0.2500000000000000 0.2500000000000000 0.7011047568652760	-0.624206
F	0.7500000000000000 0.7500000000000000 0.8382718598934198	-0.623792
F	0.7500000000000000 0.7500000000000000 0.2988952431347232	-0.624206
F	0.3190026516552439 0.3157629296687669 0.9320936136614384	-0.650956
F	0.1809973733447548 0.1842370953312318 0.9320936136614384	-0.650956
F	0.1842370953312318 0.3190026516552439 0.9320936136614384	-0.650956
F	0.3157629296687669 0.1809973733447548 0.9320936136614384	-0.650956
F	0.6809973733447550 0.8157629296687666 0.0679063863385615	-0.650956
F	0.8190026266552450 0.6842370703312334 0.0679063863385615	-0.650956
F	0.8157629296687666 0.8190026266552450 0.0679063863385615	-0.650956
F	0.6842370703312334 0.6809973733447550 0.0679063863385615	-0.650956
N	0.3352801639858425 0.1678619454088754 0.4308099008160977	-0.243060
N	0.1647198610141560 0.3321380795911231 0.4308099008160977	-0.243060
N	0.3321380795911231 0.3352801639858425 0.4308099008160977	-0.243060
N	0.1678619454088754 0.1647198610141560 0.4308099008160977	-0.243060
N	0.6647198360141573 0.6678619204088764 0.5691900991839025	-0.243060
N	0.8352801639858427 0.8321380795911236 0.5691900991839025	-0.243060
N	0.6678619204088764 0.8352801639858427 0.5691900991839025	-0.243060
N	0.8321380795911236 0.6647198360141573 0.5691900991839025	-0.243060
	  	
