#======================================================================

# CRYSTAL DATA

#----------------------------------------------------------------------

data_VESTA_phase_1


_pd_phase_name                         TIFSIX_3_Fe
_cell_length_a                         14.42104
_cell_length_b                         14.42104
_cell_length_c                         7.92739
_cell_angle_alpha                      90
_cell_angle_beta                       90
_cell_angle_gamma                      90
_symmetry_space_group_name_H-M         P 1
_symmetry_Int_Tables_number            1

loop_
_symmetry_equiv_pos_as_xyz
   x, y, z

loop_
   _atom_site_label
   _atom_site_fract_x
   _atom_site_fract_y
   _atom_site_fract_z
   _atom_site_charge
C	0.2704616588399017 0.4517096244722924 0.6401648645526523	0.064183
C	0.2295383411600985 0.0482903795277079 0.6401648645526523	0.064183
C	0.2295383411600985 0.4517096244722924 0.3598351034473447	0.064187
C	0.2704616588399017 0.0482903795277079 0.3598351034473447	0.064188
C	0.0482903795277079 0.2704616588399017 0.3598351034473447	0.064192
C	0.4517096244722924 0.2295383411600985 0.3598351034473447	0.064191
C	0.4517096244722924 0.2704616588399017 0.6401648645526523	0.064196
C	0.0482903795277079 0.2295383411600985 0.6401648645526523	0.064197
C	0.9517095564722938 0.2295383411600985 0.6401648645526523	0.064213
C	0.5482904435277062 0.2704616588399017 0.6401648645526523	0.064214
C	0.5482904435277062 0.2295383411600985 0.3598351034473447	0.064217
C	0.9517095564722938 0.2704616588399017 0.3598351034473447	0.064217
C	0.7295383581600965 0.0482903795277079 0.3598351034473447	0.064192
C	0.7704616418399035 0.4517096244722924 0.3598351034473447	0.064192
C	0.7704616418399035 0.0482903795277079 0.6401648645526523	0.064197
C	0.7295383581600965 0.4517096244722924 0.6401648645526523	0.064196
C	0.4517096244722924 0.7295383581600965 0.6401648645526523	0.064184
C	0.0482903795277079 0.7704616418399035 0.6401648645526523	0.064184
C	0.0482903795277079 0.7295383581600965 0.3598351034473447	0.064188
C	0.4517096244722924 0.7704616418399035 0.3598351034473447	0.064188
C	0.2295383411600985 0.5482904435277062 0.3598351034473447	0.064222
C	0.2704616588399017 0.9517095564722938 0.3598351034473447	0.064221
C	0.2704616588399017 0.5482904435277062 0.6401648645526523	0.064226
C	0.2295383411600985 0.9517095564722938 0.6401648645526523	0.064225
C	0.7704616418399035 0.9517095564722938 0.6401648645526523	0.064213
C	0.7295383581600965 0.5482904435277062 0.6401648645526523	0.064213
C	0.7295383581600965 0.9517095564722938 0.3598351034473447	0.064216
C	0.7704616418399035 0.5482904435277062 0.3598351034473447	0.064217
C	0.5482904435277062 0.7704616418399035 0.3598351034473447	0.064222
C	0.9517095564722938 0.7295383581600965 0.3598351034473447	0.064221
C	0.9517095564722938 0.7704616418399035 0.6401648645526523	0.064225
C	0.5482904435277062 0.7295383581600965 0.6401648645526523	0.064225
H	0.2873980735755420 0.4135671779541535 0.7548876711188957	0.109180
H	0.2126018924244552 0.0864328220458463 0.7548876711188957	0.109180
H	0.2126018924244552 0.4135671779541535 0.2451122978811054	0.109181
H	0.2873980735755420 0.0864328220458463 0.2451122978811054	0.109180
H	0.0864328220458463 0.2873980735755420 0.2451122978811054	0.109180
H	0.4135671779541535 0.2126018924244552 0.2451122978811054	0.109180
H	0.4135671779541535 0.2873980735755420 0.7548876711188957	0.109179
H	0.0864328220458463 0.2126018924244552 0.7548876711188957	0.109179
H	0.9135672459541591 0.2126018924244552 0.7548876711188957	0.109177
H	0.5864327540458409 0.2873980735755420 0.7548876711188957	0.109177
H	0.5864327540458409 0.2126018924244552 0.2451122978811054	0.109177
H	0.9135672459541591 0.2873980735755420 0.2451122978811054	0.109177
H	0.7126018584244594 0.0864328220458463 0.2451122978811054	0.109180
H	0.7873981415755406 0.4135671779541535 0.2451122978811054	0.109180
H	0.7873981415755406 0.0864328220458463 0.7548876711188957	0.109179
H	0.7126018584244594 0.4135671779541535 0.7548876711188957	0.109179
H	0.4135671779541535 0.7126018584244594 0.7548876711188957	0.109180
H	0.0864328220458464 0.7873981415755406 0.7548876711188957	0.109180
H	0.0864328220458463 0.7126018584244594 0.2451122978811054	0.109181
H	0.4135671779541535 0.7873981415755406 0.2451122978811054	0.109180
H	0.2126018924244552 0.5864327540458409 0.2451122978811054	0.109177
H	0.2873980735755420 0.9135672459541591 0.2451122978811054	0.109177
H	0.2873980735755420 0.5864327540458409 0.7548876711188957	0.109176
H	0.2126018924244552 0.9135672459541591 0.7548876711188957	0.109176
H	0.7873981415755406 0.9135672459541591 0.7548876711188957	0.109177
H	0.7126018584244594 0.5864327540458409 0.7548876711188957	0.109177
H	0.7126018584244594 0.9135672459541591 0.2451122978811054	0.109177
H	0.7873981415755406 0.5864327540458409 0.2451122978811054	0.109177
H	0.5864327540458409 0.7873981415755406 0.2451122978811054	0.109177
H	0.9135672459541591 0.7126018584244594 0.2451122978811054	0.109177
H	0.9135672459541591 0.7873981415755406 0.7548876711188957	0.109176
H	0.5864327540458409 0.7126018584244594 0.7548876711188957	0.109176
Fe	0.2500000000000000 0.2500000000000000 0.5000000000000000	0.830761
Fe	0.7500000340000028 0.2500000000000000 0.5000000000000000	0.830762
Fe	0.2500000000000000 0.7500000340000028 0.5000000000000000	0.830762
Fe	0.7500000340000028 0.7500000340000028 0.5000000000000000	0.830762
Ti	0.2500000000000000 0.2500000000000000 0.0000000000000000	2.306303
Ti	0.7500000340000028 0.2500000000000000 0.0000000000000000	2.306305
Ti	0.2500000000000000 0.7500000340000028 0.0000000000000000	2.306305
Ti	0.7500000340000028 0.7500000340000028 0.0000000000000000	2.306308
F	0.2500000000000000 0.2500000000000000 0.7519714925035598	-0.599330
F	0.2500000000000000 0.2500000000000000 0.2480285074964403	-0.599330
F	0.3419708421846260 0.3419708421846260 0.9893886981702776	-0.620980
F	0.1580291578153740 0.1580291578153740 0.9893886981702776	-0.620979
F	0.1580291578153740 0.3419708421846260 0.0106113228297204	-0.620979
F	0.3419708421846260 0.1580291578153740 0.0106113228297204	-0.620979
F	0.7500000340000028 0.2500000000000000 0.7519714925035598	-0.599330
F	0.7500000340000028 0.2500000000000000 0.2480285074964404	-0.599331
F	0.8419708761846287 0.3419708421846260 0.0106113228297204	-0.620980
F	0.6580291238153713 0.1580291578153740 0.0106113228297204	-0.620978
F	0.6580291238153713 0.3419708421846260 0.9893886981702776	-0.620980
F	0.8419708761846287 0.1580291578153740 0.9893886981702776	-0.620980
F	0.2500000000000000 0.7500000340000028 0.7519714925035598	-0.599330
F	0.2500000000000000 0.7500000340000028 0.2480285074964403	-0.599331
F	0.3419708421846260 0.8419708761846287 0.0106113228297204	-0.620980
F	0.1580291578153740 0.6580291238153713 0.0106113228297204	-0.620978
F	0.1580291578153740 0.8419708761846287 0.9893886981702776	-0.620980
F	0.3419708421846260 0.6580291238153713 0.9893886981702776	-0.620980
F	0.7500000340000028 0.7500000340000028 0.7519714925035598	-0.599331
F	0.7500000340000028 0.7500000340000028 0.2480285074964403	-0.599331
F	0.8419708761846287 0.8419708761846287 0.9893886981702776	-0.620981
F	0.6580291238153713 0.6580291238153713 0.9893886981702776	-0.620979
F	0.6580291238153713 0.8419708761846287 0.0106113228297204	-0.620980
F	0.8419708761846287 0.6580291238153713 0.0106113228297204	-0.620980
N	0.4030617373005033 0.2500000000000000 0.5000000000000000	-0.210386
N	0.0969382626994967 0.2500000000000000 0.5000000000000000	-0.210385
N	0.2500000000000000 0.4030617373005033 0.5000000000000000	-0.210383
N	0.2500000000000000 0.0969382626994967 0.5000000000000000	-0.210383
N	0.9030617373005032 0.2500000000000000 0.5000000000000000	-0.210391
N	0.5969382626994968 0.2500000000000000 0.5000000000000000	-0.210390
N	0.7500000340000028 0.4030617373005033 0.5000000000000000	-0.210385
N	0.7500000340000028 0.0969382626994967 0.5000000000000000	-0.210385
N	0.4030617373005033 0.7500000340000028 0.5000000000000000	-0.210384
N	0.0969382626994967 0.7500000340000028 0.5000000000000000	-0.210384
N	0.2500000000000000 0.9030617373005032 0.5000000000000000	-0.210392
N	0.2500000000000000 0.5969382626994968 0.5000000000000000	-0.210392
N	0.9030617373005032 0.7500000340000028 0.5000000000000000	-0.210393
N	0.5969382626994968 0.7500000340000028 0.5000000000000000	-0.210392
N	0.7500000340000028 0.9030617373005032 0.5000000000000000	-0.210391
N	0.7500000340000028 0.5969382626994968 0.5000000000000000	-0.210390
	  	
