#======================================================================

# CRYSTAL DATA

#----------------------------------------------------------------------

data_VESTA_phase_1


_pd_phase_name                         TIFSIX_16_Ni_i
_cell_length_a                         25.05654
_cell_length_b                         25.05654
_cell_length_c                         7.75710
_cell_angle_alpha                      90
_cell_angle_beta                       90
_cell_angle_gamma                      90
_symmetry_space_group_name_H-M         P 1
_symmetry_Int_Tables_number            1

loop_
_symmetry_equiv_pos_as_xyz
   x, y, z

loop_
   _atom_site_label
   _atom_site_fract_x
   _atom_site_fract_y
   _atom_site_fract_z
   _atom_site_charge
C	0.4778793448903410 0.3884675560714257 0.3687870728431876	0.103014
C	0.4770025656916630 0.3330281450498290 0.3638213113892365	-0.171317
C	0.9548325048951797 0.6133070967988541 0.9431730967408896	-0.123974
C	0.9549995420240088 0.5579192339240560 0.9439133860892467	-0.126988
C	0.5221206931096548 0.6115324819285701 0.3687870728431876	0.103013
C	0.5229974343083368 0.6669718929501666 0.3638213113892365	-0.171316
C	0.0451674191048210 0.3866928642011465 0.9431730967408896	-0.123973
C	0.0450004769759893 0.4420808040759470 0.9439133860892467	-0.126988
C	0.6115324819285701 0.4778793448903410 0.3687870728431876	0.103015
C	0.6669718929501666 0.4770025656916630 0.3638213113892365	-0.171317
C	0.3866928642011465 0.9548325048951797 0.9431730967408896	-0.123973
C	0.4420808040759470 0.9549995420240088 0.9439133860892467	-0.126988
C	0.3884675560714257 0.5221206931096548 0.3687870728431876	0.103015
C	0.3330281450498290 0.5229974343083368 0.3638213113892365	-0.171316
C	0.6133070967988541 0.0451674191048210 0.9431730967408896	-0.123974
C	0.5579192339240560 0.0450004769759893 0.9439133860892467	-0.126988
C	0.5221206931096548 0.3884675560714257 0.6312129271568122	0.103015
C	0.5229974343083368 0.3330281450498290 0.6361786566107607	-0.171317
C	0.0451674191048210 0.6133070967988541 0.0568269152591114	-0.123974
C	0.0450004769759893 0.5579192339240560 0.0560865899107514	-0.126988
C	0.4778793448903410 0.6115324819285701 0.6312129271568122	0.103014
C	0.4770025656916630 0.6669718929501666 0.6361786566107607	-0.171317
C	0.9548325048951797 0.3866928642011465 0.0568269152591114	-0.123973
C	0.9549995420240088 0.4420808040759470 0.0560865899107514	-0.126988
C	0.3884675560714257 0.4778793448903410 0.6312129271568122	0.103014
C	0.3330281450498290 0.4770025656916630 0.6361786566107607	-0.171317
C	0.6133070967988541 0.9548325048951797 0.0568269152591114	-0.123973
C	0.5579192339240560 0.9549995420240088 0.0560865899107514	-0.126988
C	0.6115324819285701 0.5221206931096548 0.6312129271568122	0.103013
C	0.6669718929501666 0.5229974343083368 0.6361786566107607	-0.171317
C	0.3866928642011465 0.0451674191048210 0.0568269152591114	-0.123973
C	0.4420808040759470 0.0450004769759893 0.0560865899107514	-0.126988
C	0.5451674571048243 0.8866928262011502 0.5568269352591060	-0.123973
C	0.5450004579759912 0.9420808040759472 0.5560865819107507	-0.126988
C	0.0221206471096583 0.1115324249285763 0.1312129271568123	0.103014
C	0.0229974323083366 0.1669718549501710 0.1361786726107621	-0.171316
C	0.4548325808951790 0.1133071447988507 0.5568269352591060	-0.123973
C	0.4549995040240127 0.0579191809240553 0.5560865819107507	-0.126988
C	0.9778793068903452 0.8884675180714299 0.1312129271568123	0.103014
C	0.9770025656916632 0.8330281450498295 0.1361786726107621	-0.171317
C	0.1133071447988507 0.5451674571048243 0.5568269352591060	-0.123973
C	0.0579191809240553 0.5450004579759912 0.5560865819107507	-0.126988
C	0.8884675180714299 0.0221206471096583 0.1312129271568123	0.103014
C	0.8330281450498295 0.0229974323083366 0.1361786726107621	-0.171317
C	0.8866928262011502 0.4548325808951790 0.5568269352591060	-0.123973
C	0.9420808040759472 0.4549995040240127 0.5560865819107507	-0.126988
C	0.1115324249285763 0.9778793068903452 0.1312129271568123	0.103014
C	0.1669718549501710 0.9770025656916632 0.1361786726107621	-0.171316
C	0.4548325808951790 0.8866928262011502 0.4431730967408897	-0.123973
C	0.4549995040240127 0.9420808040759472 0.4439134180892492	-0.126988
C	0.9778793068903452 0.1115324249285763 0.8687871048431833	0.103014
C	0.9770025656916632 0.1669718549501710 0.8638213113892367	-0.171317
C	0.5451674571048243 0.1133071447988507 0.4431730967408897	-0.123973
C	0.5450004579759912 0.0579191809240553 0.4439134180892492	-0.126988
C	0.0221206471096583 0.8884675180714299 0.8687871048431833	0.103014
C	0.0229974323083366 0.8330281450498295 0.8638213113892367	-0.171317
C	0.8866928262011502 0.5451674571048243 0.4431730967408897	-0.123973
C	0.9420808040759472 0.5450004579759912 0.4439134180892492	-0.126988
C	0.1115324249285763 0.0221206471096583 0.8687871048431833	0.103014
C	0.1669718549501710 0.0229974323083366 0.8638213113892367	-0.171317
C	0.1133071447988507 0.4548325808951790 0.4431730967408897	-0.123973
C	0.0579191809240553 0.4549995040240127 0.4439134180892492	-0.126988
C	0.8884675180714299 0.9778793068903452 0.8687871048431833	0.103014
C	0.8330281450498295 0.9770025656916632 0.8638213113892367	-0.171317
C	0.5000000000000000 0.3038888788830647 0.5000000000000000	0.176259
C	0.5000000000000000 0.2472793699427880 0.5000000000000000	-0.113304
C	0.5000000000000000 0.1985915721995455 0.5000000000000000	-0.096812
C	0.5000000000000000 0.1419650937111351 0.5000000000000000	0.122631
C	0.5000000000000000 0.0293302813682095 0.5000000000000000	0.069578
C	0.0000000000000000 0.8038888598830596 -0.0000000000000000	0.176259
C	0.0000000000000000 0.7472793499427866 -0.0000000000000000	-0.113304
C	0.0000000000000000 0.6985915341995494 -0.0000000000000000	-0.096812
C	0.0000000000000000 0.6419650557111320 -0.0000000000000000	0.122631
C	0.0000000000000000 0.5293302953682106 -0.0000000000000000	0.069579
C	0.5000000000000000 0.6961111021169373 0.5000000000000000	0.176259
C	0.5000000000000000 0.7527206880572095 0.5000000000000000	-0.113304
C	0.5000000000000000 0.8014084278004545 0.5000000000000000	-0.096812
C	0.5000000000000000 0.8580349062888648 0.5000000000000000	0.122631
C	0.5000000000000000 0.9706697046317894 0.5000000000000000	0.069579
C	0.0000000000000000 0.1961111211169353 -0.0000000000000000	0.176259
C	0.0000000000000000 0.2527206300572121 -0.0000000000000000	-0.113304
C	0.0000000000000000 0.3014084078004530 -0.0000000000000000	-0.096812
C	0.0000000000000000 0.3580349062888649 -0.0000000000000000	0.122631
C	0.0000000000000000 0.4706697426317924 -0.0000000000000000	0.069579
C	0.6961111021169373 0.5000000000000000 0.5000000000000000	0.176259
C	0.7527206880572095 0.5000000000000000 0.5000000000000000	-0.113304
C	0.8014084278004545 0.5000000000000000 0.5000000000000000	-0.096812
C	0.8580349062888648 0.5000000000000000 0.5000000000000000	0.122631
C	0.9706697046317894 0.5000000000000000 0.5000000000000000	0.069578
C	0.1961111211169353 -0.0000000000000000 -0.0000000000000000	0.176259
C	0.2527206300572121 -0.0000000000000000 -0.0000000000000000	-0.113304
C	0.3014084078004530 -0.0000000000000000 -0.0000000000000000	-0.096812
C	0.3580349062888649 -0.0000000000000000 -0.0000000000000000	0.122631
C	0.4706697426317924 -0.0000000000000000 -0.0000000000000000	0.069578
C	0.3038888788830647 0.5000000000000000 0.5000000000000000	0.176259
C	0.2472793699427880 0.5000000000000000 0.5000000000000000	-0.113304
C	0.1985915721995455 0.5000000000000000 0.5000000000000000	-0.096812
C	0.1419650937111351 0.5000000000000000 0.5000000000000000	0.122631
C	0.0293302813682095 0.5000000000000000 0.5000000000000000	0.069579
C	0.8038888598830596 -0.0000000000000000 -0.0000000000000000	0.176259
C	0.7472793499427867 -0.0000000000000000 -0.0000000000000000	-0.113304
C	0.6985915341995494 -0.0000000000000000 -0.0000000000000000	-0.096812
C	0.6419650557111320 -0.0000000000000000 -0.0000000000000000	0.122631
C	0.5293302953682106 -0.0000000000000000 -0.0000000000000000	0.069579
H	0.4608701484379504 0.4117357074785010 0.2633780742576903	0.101149
H	0.4588619503641223 0.3126801446642443 0.2545765634421726	0.126359
H	0.9199774530912184 0.6351136772266466 0.8974825456383660	0.111096
H	0.9202819781512027 0.5362033776207673 0.8961885769828316	0.106880
H	0.5391298515620500 0.5882642925214993 0.2633780742576903	0.101151
H	0.5411380876358807 0.6873199313357548 0.2545765634421726	0.126359
H	0.0800225279087838 0.3648863227733534 0.8974825456383660	0.111096
H	0.0797180508487959 0.4637966613792323 0.8961885769828316	0.106880
H	0.5882642925214993 0.4608701484379504 0.2633780742576903	0.101150
H	0.6873199313357548 0.4588619503641223 0.2545765634421726	0.126359
H	0.3648863227733534 0.9199774530912184 0.8974825456383660	0.111096
H	0.4637966613792323 0.9202819781512027 0.8961885769828316	0.106880
H	0.4117357074785010 0.5391298515620500 0.2633780742576903	0.101147
H	0.3126801446642443 0.5411380876358807 0.2545765634421726	0.126359
H	0.6351136772266466 0.0800225279087838 0.8974825456383660	0.111096
H	0.5362033776207673 0.0797180508487959 0.8961885769828316	0.106880
H	0.5391298515620500 0.4117357074785010 0.7366219097423085	0.101147
H	0.5411380876358807 0.3126801446642443 0.7454234365578277	0.126359
H	0.0800225279087838 0.6351136772266466 0.1025174303616320	0.111096
H	0.0797180508487959 0.5362033776207673 0.1038114230171687	0.106880
H	0.4608701484379504 0.5882642925214993 0.7366219097423085	0.101150
H	0.4588619503641223 0.6873199313357548 0.7454234365578277	0.126359
H	0.9199774530912184 0.3648863227733534 0.1025174303616320	0.111096
H	0.9202819781512027 0.4637966613792323 0.1038114230171687	0.106880
H	0.4117357074785010 0.4608701484379504 0.7366219097423085	0.101149
H	0.3126801446642443 0.4588619503641223 0.7454234365578277	0.126359
H	0.6351136772266466 0.9199774530912184 0.1025174303616320	0.111096
H	0.5362033776207673 0.9202819781512027 0.1038114230171687	0.106880
H	0.5882642925214993 0.5391298515620500 0.7366219097423085	0.101151
H	0.6873199313357548 0.5411380876358807 0.7454234365578277	0.126359
H	0.3648863227733534 0.0800225279087838 0.1025174303616320	0.111096
H	0.4637966613792323 0.0797180508487959 0.1038114230171687	0.106880
H	0.5800225469087816 0.8648863227733534 0.6025174223616313	0.111096
H	0.5797180218487973 0.9637966613792324 0.6038114550171710	0.106880
H	0.0391298615620507 0.0882642635215000 0.2366219257423097	0.101148
H	0.0411380926358777 0.1873198743357538 0.2454234685578231	0.126358
H	0.4199774910912214 0.1351137062266454 0.6025174223616313	0.111096
H	0.4202819391512033 0.0362033626207626 0.6038114550171710	0.106880
H	0.9608701484379500 0.9117357844784965 0.2366219257423097	0.101148
H	0.9588619123641193 0.8126801826642476 0.2454234685578231	0.126358
H	0.1351137062266454 0.5800225469087816 0.6025174223616313	0.111096
H	0.0362033626207626 0.5797180218487973 0.6038114550171710	0.106880
H	0.9117357844784965 0.0391298615620507 0.2366219257423097	0.101148
H	0.8126801826642476 0.0411380926358777 0.2454234685578231	0.126358
H	0.8648863227733534 0.4199774910912214 0.6025174223616313	0.111096
H	0.9637966613792324 0.4202819391512033 0.6038114550171710	0.106880
H	0.0882642635215000 0.9608701484379500 0.2366219257423097	0.101148
H	0.1873198743357538 0.9588619123641193 0.2454234685578231	0.126358
H	0.4199774910912214 0.8648863227733534 0.3974825456383660	0.111096
H	0.4202819391512033 0.9637966613792324 0.3961886089828267	0.106880
H	0.9608701484379500 0.0882642635215000 0.7633780582576889	0.101148
H	0.9588619123641193 0.1873198743357538 0.7545765314421767	0.126358
H	0.5800225469087816 0.1351137062266454 0.3974825456383660	0.111096
H	0.5797180218487973 0.0362033626207626 0.3961886089828267	0.106880
H	0.0391298615620507 0.9117357844784965 0.7633780582576889	0.101148
H	0.0411380926358777 0.8126801826642476 0.7545765314421767	0.126358
H	0.8648863227733534 0.5800225469087816 0.3974825456383660	0.111096
H	0.9637966613792324 0.5797180218487973 0.3961886089828267	0.106880
H	0.0882642635215000 0.0391298615620507 0.7633780582576889	0.101148
H	0.1873198743357538 0.0411380926358777 0.7545765314421767	0.126358
H	0.1351137062266454 0.4199774910912214 0.3974825456383660	0.111096
H	0.0362033626207626 0.4202819391512033 0.3961886089828267	0.106880
H	0.9117357844784965 0.9608701484379500 0.7633780582576889	0.101148
H	0.8126801826642476 0.9588619123641193 0.7545765314421767	0.126358
Ni	0.5000000000000000 0.5000000000000000 0.5000000000000000	0.790814
Ni	0.0000000000000000 -0.0000000000000000 -0.0000000000000000	0.790815
Ti	0.5000000000000000 0.5000000000000000 -0.0000000000000000	2.328589
Ti	0.0000000000000000 -0.0000000000000000 0.5000000000000000	2.328755
F	0.5000000000000000 0.5000000000000000 0.2470430163750062	-0.619032
F	0.0000000000000000 -0.0000000000000000 0.7470429843750109	-0.619044
F	0.5000000000000000 0.5000000000000000 0.7529569196249953	-0.619032
F	0.0000000000000000 -0.0000000000000000 0.2529569836249939	-0.619044
F	0.5534095358238680 0.5534095358238680 -0.0000000000000000	-0.641215
F	0.0534094888238678 0.0534094888238678 0.5000000000000000	-0.641266
F	0.4465905401761382 0.4465905401761382 -0.0000000000000000	-0.641252
F	0.9465905021761352 0.9465905021761352 0.5000000000000000	-0.641266
F	0.4465905401761382 0.5534095358238680 -0.0000000000000000	-0.641231
F	0.9465905021761352 0.0534094888238678 0.5000000000000000	-0.641266
F	0.5534095358238680 0.4465905401761382 -0.0000000000000000	-0.641231
F	0.0534094888238678 0.9465905021761352 0.5000000000000000	-0.641266
N	0.5000000000000000 0.4159581248774261 0.5000000000000000	-0.239895
N	0.0000000000000000 0.9159581628774297 -0.0000000000000000	-0.239896
N	0.5000000000000000 0.5840418751225734 0.5000000000000000	-0.239895
N	0.0000000000000000 0.0840418841225710 -0.0000000000000000	-0.239896
N	0.5840418751225734 0.5000000000000000 0.5000000000000000	-0.239895
N	0.0840418841225710 -0.0000000000000000 -0.0000000000000000	-0.239896
N	0.4159581248774261 0.5000000000000000 0.5000000000000000	-0.239895
N	0.9159581628774297 -0.0000000000000000 -0.0000000000000000	-0.239896
	  	
