#======================================================================

# CRYSTAL DATA

#----------------------------------------------------------------------

data_VESTA_phase_1


_pd_phase_name                         TIFSIX_18_Zn
_cell_length_a                         14.16419
_cell_length_b                         13.78542
_cell_length_c                         8.24006
_cell_angle_alpha                      90
_cell_angle_beta                       95.27961
_cell_angle_gamma                      90
_symmetry_space_group_name_H-M         P 1
_symmetry_Int_Tables_number            1

loop_
_symmetry_equiv_pos_as_xyz
   x, y, z

loop_
   _atom_site_label
   _atom_site_fract_x
   _atom_site_fract_y
   _atom_site_fract_z
   _atom_site_charge
F	0.4097155299741113 0.3677373453251818 0.5031365771186266	-0.631697
F	0.5193474801662203 0.4790462537604822 0.7350786854906071	-0.616913
F	0.4010724960269312 0.5606943243000119 0.5120400523014537	-0.618239
F	0.9097155639741069 0.8677372763251796 0.5031365771186266	-0.631698
F	0.0193475061662155 0.9790462187604824 0.7350786854906071	-0.616907
F	0.9010725300269339 0.0606942903000161 0.5120400523014537	-0.618253
F	0.5902844330258893 0.3677373453251818 0.4968634228813743	-0.631696
F	0.4806525168337829 0.4790462537604822 0.2649213145093933	-0.616914
F	0.5989274999730686 0.5606943243000119 0.4879599486985502	-0.618253
F	0.0902844540258873 0.8677372763251796 0.4968634228813743	-0.631698
F	0.9806523818337824 0.9790462187604824 0.2649213145093933	-0.616907
F	0.0989274749730700 0.0606942903000161 0.4879599486985502	-0.618253
C	0.6823847982790411 0.1532739047332526 0.6608477566671467	-0.424714
C	0.7556439506270199 0.1507648773515380 0.8023244137053372	0.209530
C	0.7595271033813773 0.1966741159208877 0.9546106038547917	-0.152534
C	0.6883205430280048 0.2608157147081940 0.0145677968306376	-0.146024
C	0.6735299426314169 0.3600927590644495 0.9740212435331237	0.219978
C	0.7296716169588862 0.4218748918158264 0.8699046953248444	-0.426091
C	0.8901351920177873 0.2052327404207980 0.1981125459988968	-0.436584
C	0.8487597538184006 0.1715049926638562 0.0351835932990211	0.217346
C	0.6216993176497572 0.2388465594410058 0.1249723435496122	0.212139
C	0.6002932265725940 0.1476405594879596 0.2111583477259784	-0.428099
C	0.1823848482790383 0.6532739567332497 0.6608477566671467	-0.424714
C	0.2556439846270225 0.6507648603515328 0.8023244137053372	0.209529
C	0.2595270693813749 0.6966740819208844 0.9546106038547917	-0.152530
C	0.1883205430280048 0.7608157317081923 0.0145677968306376	-0.146045
C	0.1735299256314121 0.8600927930644523 0.9740212435331237	0.219985
C	0.2296716329588807 0.9218748568158273 0.8699046953248444	-0.426089
C	0.3901350910177823 0.7052326544207974 0.1981125459988968	-0.436584
C	0.3487598218183993 0.6715049926638558 0.0351835932990211	0.217345
C	0.1216992926497582 0.7388464734410058 0.1249723435496122	0.212218
C	0.1002933105725937 0.6476406284879618 0.2111583477259784	-0.428099
C	0.3176151987209619 0.1532739047332526 0.3391522443328572	-0.424713
C	0.2443560423729759 0.1507648773515380 0.1976755062946634	0.209529
C	0.2404729256186214 0.1966741159208877 0.0453893721452132	-0.152534
C	0.3116794529719946 0.2608157147081940 0.9854321941693651	-0.146024
C	0.3264701233685885 0.3600927590644495 0.0259788074668768	0.219978
C	0.2703283980411184 0.4218748918158264 0.1300953206751572	-0.426090
C	0.1098648909822162 0.2052327404207980 0.8018875020011066	-0.436589
C	0.1512402251816010 0.1715049926638562 0.9648163947009780	0.217351
C	0.3783007133502425 0.2388465594410058 0.8750276804503825	0.212138
C	0.3997066994274072 0.1476405594879596 0.7888415732740265	-0.428096
C	0.8176151987209622 0.6532739567332497 0.3391522443328572	-0.424713
C	0.7443560423729759 0.6507648603515328 0.1976755062946634	0.209529
C	0.7404728916186258 0.6966740819208844 0.0453893721452132	-0.152531
C	0.8116794529719948 0.7608157317081923 0.9854321941693651	-0.146045
C	0.8264700563685866 0.8600927930644523 0.0259788074668768	0.219985
C	0.7703283810411137 0.9218748568158273 0.1300953206751572	-0.426088
C	0.6098648069822161 0.7052326544207974 0.8018875020011066	-0.436590
C	0.6512402421815990 0.6715049926638558 0.9648163947009780	0.217350
C	0.8783006793502390 0.7388464734410058 0.8750276804503825	0.212218
C	0.8997067664274090 0.6476406284879618 0.7888415732740265	-0.428096
H	0.7138264172942116 0.1730279552269950 0.5485207149882172	0.153713
H	0.6281820664112794 0.2073845817427677 0.6815169784673021	0.143486
H	0.6480039617048376 0.0821896990689215 0.6404088730088333	0.133418
H	0.6837799629029040 0.4639855104350274 0.7819311440429968	0.146469
H	0.7764479394232787 0.3763351126326294 0.8033187634465244	0.139079
H	0.7740764308224429 0.4728987526699014 0.9460569227497825	0.127826
H	0.8631926487628531 0.0707014169969923 0.6974656386293011	0.287426
H	0.8940250371722761 0.1474573000075315 0.2899712137669497	0.154213
H	0.8462118845883879 0.2640212988302999 0.2403812145628030	0.135245
H	0.9623735443898072 0.2326855517694726 0.1909923715995547	0.140856
H	0.5765915952040843 0.1635734935106775 0.3314888394169799	0.147900
H	0.6632122352771426 0.1011991237132068 0.2268947427264074	0.152000
H	0.5436131241115055 0.1062650321350725 0.1416038958290278	0.132182
H	0.5233223524438999 0.3355194372589039 0.2219549604048113	0.271950
H	0.2138264682942123 0.6730278522269969 0.5485207149882172	0.153714
H	0.1281821504112794 0.7073845127427653 0.6815169784673021	0.143486
H	0.1480040117048348 0.5821896390689166 0.6404088730088333	0.133418
H	0.1837799799029023 0.9639854424350224 0.7819311440429968	0.146469
H	0.2764479734232818 0.8763351466326326 0.8033187634465244	0.139079
H	0.2740764638224427 0.9728987526699012 0.9460569227497825	0.127825
H	0.3631926147628585 0.5707014599969927 0.6974656386293011	0.287429
H	0.3940251041722779 0.6474572660075287 0.2899712137669497	0.154210
H	0.3462118165883891 0.7640213338302994 0.2403812145628030	0.135245
H	0.4623736113898015 0.7326856027694663 0.1909923715995547	0.140857
H	0.0765915872040835 0.6635735105106754 0.3314888394169799	0.147905
H	0.1632122012771391 0.6011990807132067 0.2268947427264074	0.152000
H	0.0436131601115083 0.6062649801350753 0.1416038958290278	0.132182
H	0.0233223374439019 0.8355194372589039 0.2219549604048113	0.271945
H	0.2861735137057933 0.1730279552269950 0.4514793170117787	0.153713
H	0.3718178325887155 0.2073845817427677 0.3184830865326996	0.143481
H	0.3519959672951670 0.0821896990689215 0.3595911269911661	0.133420
H	0.3162200320970986 0.4639855104350274 0.2180688239570074	0.146467
H	0.2235520555767172 0.3763351126326294 0.1966812045534732	0.139081
H	0.2259235651775635 0.4728987526699014 0.0539430502502185	0.127823
H	0.1368073522371425 0.0707014169969923 0.3025342663706940	0.287426
H	0.1059748858277212 0.1474573000075315 0.7100288182330526	0.154211
H	0.1537881794116106 0.2640212988302999 0.7596187854371967	0.135249
H	0.0376263846101982 0.2326855517694726 0.8090076604004409	0.140860
H	0.4234084347959188 0.1635734935106775 0.6685111605830207	0.147896
H	0.3367878267228631 0.1011991237132068 0.7731052092735882	0.151999
H	0.4563868408884955 0.1062650321350725 0.8583961441709753	0.132176
H	0.4766776085561005 0.3355194372589039 0.7780449925951887	0.271948
H	0.7861735807057882 0.6730278522269969 0.4514793170117787	0.153713
H	0.8718179335887206 0.7073845127427653 0.3184830865326996	0.143481
H	0.8519959672951671 0.5821896390689166 0.3595911269911661	0.133420
H	0.8162200320970991 0.9639854424350224 0.2180688239570074	0.146467
H	0.7235520555767173 0.8763351466326326 0.1966812045534732	0.139081
H	0.7259235651775638 0.9728987526699012 0.0539430502502185	0.127823
H	0.6368073432371463 0.5707014599969927 0.3025342663706940	0.287427
H	0.6059749948277194 0.6474572660075287 0.7100288182330526	0.154208
H	0.6537881124116083 0.7640213338302994 0.7596187854371967	0.135249
H	0.5376264206101935 0.7326856027694663 0.8090076604004409	0.140861
H	0.9234083677959162 0.6635735105106754 0.6685111605830207	0.147901
H	0.8367877597228606 0.6011990807132067 0.7731052092735882	0.151998
H	0.9563868408884951 0.6062649801350753 0.8583961441709753	0.132176
H	0.9766775745561047 0.8355194372589039 0.7780449925951887	0.271943
N	0.8371891553630803 0.1005783043095659 0.7997263741248318	-0.149694
N	0.6017537917495066 0.3954007249754951 0.0525410609597309	-0.245784
N	0.8951210577568448 0.1126115132803721 0.9387898162566980	-0.246260
N	0.5722250633653008 0.3210485303056047 0.1422684627428868	-0.143167
N	0.3371891553630799 0.6005782273095700 0.7997263741248318	-0.149693
N	0.1017538587495087 0.8954007249754957 0.0525410609597309	-0.245798
N	0.3951210917568475 0.6126115642803732 0.9387898162566980	-0.246261
N	0.0722250553653004 0.8210484953056049 0.1422684627428868	-0.143219
N	0.1628108266369186 0.1005783043095659 0.2002736738751648	-0.149694
N	0.3982461022504918 0.3954007249754951 0.9474589150402671	-0.245784
N	0.1048789122431529 0.1126115132803721 0.0612101637433002	-0.246259
N	0.4277749336347025 0.3210485303056047 0.8577315532571146	-0.143167
N	0.6628108436369161 0.6005782273095700 0.2002736738751648	-0.149694
N	0.8982462032504965 0.8954007249754957 0.9474589150402671	-0.245798
N	0.6048789372431583 0.6126115642803732 0.0612101637433002	-0.246259
N	0.9277749676346982 0.8210484953056049 0.8577315532571146	-0.143218
Ti	0.4999999979999998 0.4670683778673211 0.5000000000000000	2.296634
Ti	-0.0000000000000000 0.9670683778673216 0.5000000000000000	2.296643
Zn	0.5000000000000000 0.5094870394069233 0.0000000000000000	0.785475
Zn	-0.0000000000000000 0.0094870464069277 0.0000000000000000	0.785470
	  	
