#======================================================================

# CRYSTAL DATA

#----------------------------------------------------------------------

data_VESTA_phase_1


_pd_phase_name                         TIFSIX_1_Cd
_cell_length_a                         11.72756
_cell_length_b                         11.72756
_cell_length_c                         8.27465
_cell_angle_alpha                      90
_cell_angle_beta                       90
_cell_angle_gamma                      90
_symmetry_space_group_name_H-M         P 1
_symmetry_Int_Tables_number            1

loop_
_symmetry_equiv_pos_as_xyz
   x, y, z

loop_
   _atom_site_label
   _atom_site_fract_x
   _atom_site_fract_y
   _atom_site_fract_z
   _atom_site_charge
C	0.2433898729361611 0.4592085646013031 0.3719540101982693	0.106242
C	0.1248120315500253 0.4583641023041354 0.3672432945080297	-0.171198
C	0.7566102140638429 0.5407914783986970 0.3719540101982693	0.106242
C	0.8751880124499780 0.5416358976958646 0.3672432945080297	-0.171198
C	0.5407914783986970 0.2433898729361611 0.3719540101982693	0.106242
C	0.5416358976958646 0.1248120315500253 0.3672432945080297	-0.171198
C	0.4592085646013031 0.7566102140638429 0.3719540101982693	0.106242
C	0.4583641023041354 0.8751880124499780 0.3672432945080297	-0.171198
C	0.7566102140638429 0.4592085646013031 0.6280459598017281	0.106243
C	0.8751880124499780 0.4583641023041354 0.6327566764919644	-0.171197
C	0.2433898729361611 0.5407914783986970 0.6280459598017281	0.106243
C	0.1248120315500253 0.5416358976958646 0.6327566764919644	-0.171197
C	0.4592085646013031 0.2433898729361611 0.6280459598017281	0.106243
C	0.4583641023041354 0.1248120315500253 0.6327566764919644	-0.171197
C	0.5407914783986970 0.7566102140638429 0.6280459598017281	0.106243
C	0.5416358976958646 0.8751880124499780 0.6327566764919644	-0.171197
C	0.0630957408172749 0.5000000000000000 0.5000000000000000	0.101406
C	0.9369043351827244 0.5000000000000000 0.5000000000000000	0.101407
C	0.5000000000000000 0.0630957408172749 0.5000000000000000	0.101406
C	0.5000000000000000 0.9369043351827244 0.5000000000000000	0.101407
H	0.2938938354495169 0.4271905884292594 0.2706602988934245	0.104541
H	0.0814044280720631 0.4235256972953221 0.2618311645725770	0.122618
H	0.7061061215504829 0.5728094115707406 0.2706602988934245	0.104541
H	0.9185955879279381 0.5764743027046777 0.2618311645725770	0.122618
H	0.5728094115707406 0.2938938354495169 0.2706602988934245	0.104541
H	0.5764743027046777 0.0814044280720631 0.2618311645725770	0.122618
H	0.4271905884292594 0.7061061215504829 0.2706602988934245	0.104541
H	0.4235256972953221 0.9185955879279381 0.2618311645725770	0.122618
H	0.7061061215504829 0.4271905884292594 0.7293396721065767	0.104541
H	0.9185955879279381 0.4235256972953221 0.7381688944274242	0.122617
H	0.2938938354495169 0.5728094115707406 0.7293396721065767	0.104541
H	0.0814044280720631 0.5764743027046777 0.7381688944274242	0.122616
H	0.4271905884292594 0.2938938354495169 0.7293396721065767	0.104541
H	0.4235256972953221 0.0814044280720631 0.7381688944274242	0.122617
H	0.5728094115707406 0.7061061215504829 0.7293396721065767	0.104541
H	0.5764743027046777 0.9185955879279381 0.7381688944274242	0.122617
Cd	0.5000000000000000 0.5000000000000000 0.5000000000000000	0.848286
Ti	0.5000000000000000 0.5000000000000000 0.0000000000000000	2.350712
F	0.5000000000000000 0.5000000000000000 0.7677223302993492	-0.629666
F	0.5000000000000000 0.5000000000000000 0.2322776697006508	-0.629666
F	0.3856392947334714 0.3856392947334714 0.0000000000000000	-0.667143
F	0.6143607052665288 0.6143607052665288 0.0000000000000000	-0.667143
F	0.6143607052665288 0.3856392947334714 0.0000000000000000	-0.667143
F	0.3856392947334714 0.6143607052665288 0.0000000000000000	-0.667143
N	0.3012824527918136 0.5000000000000000 0.5000000000000000	-0.243585
N	0.6987175692081884 0.5000000000000000 0.5000000000000000	-0.243585
N	0.5000000000000000 0.3012824527918136 0.5000000000000000	-0.243585
N	0.5000000000000000 0.6987175692081884 0.5000000000000000	-0.243585
	  	
