#======================================================================

# CRYSTAL DATA

#----------------------------------------------------------------------

data_VESTA_phase_1


_pd_phase_name                         TIFSIX_18_Fe
_cell_length_a                         14.37434
_cell_length_b                         13.93918
_cell_length_c                         8.10321
_cell_angle_alpha                      90
_cell_angle_beta                       95.55212
_cell_angle_gamma                      90
_symmetry_space_group_name_H-M         P 1
_symmetry_Int_Tables_number            1

loop_
_symmetry_equiv_pos_as_xyz
   x, y, z

loop_
   _atom_site_label
   _atom_site_fract_x
   _atom_site_fract_y
   _atom_site_fract_z
   _atom_site_charge
F	0.4110925762307079 0.3706988541034513 0.5010941864998000	-0.627714
F	0.5203206940623599 0.4806209028250788 0.7406597293298394	-0.607509
F	0.4032425092443251 0.5610905964653017 0.5125365202904083	-0.614496
F	0.9110926102307038 0.8706987851034498 0.5010941864998000	-0.627714
F	0.0203207200623547 0.9806208678250792 0.7406597293298394	-0.607509
F	0.9032425432443276 0.0610905624653058 0.5125365202904083	-0.614496
F	0.5889073867692924 0.3706988541034513 0.4989058135002006	-0.627714
F	0.4796793029376437 0.4806209028250788 0.2593402706701605	-0.607509
F	0.5967574867556749 0.5610905964653017 0.4874634807095953	-0.614496
F	0.0889074077692907 0.8706987851034498 0.4989058135002006	-0.627714
F	0.9796791679376429 0.9806208678250792 0.2593402706701605	-0.607509
F	0.0967574617556763 0.0610905624653058 0.4874634807095953	-0.614496
C	0.6812650650757969 0.1536912717914415 0.6595002016851064	-0.423950
C	0.7543672490620750 0.1505866734314623 0.8023943053794966	0.207551
C	0.7593588480063380 0.1972535718447264 0.9560241282232357	-0.152680
C	0.6892536248754995 0.2609720790892437 0.0158489558671009	-0.145724
C	0.6744479133186559 0.3591902278982615 0.9748823340151825	0.219347
C	0.7301904068896143 0.4211675595514150 0.8709095086554322	-0.424346
C	0.8894450298230501 0.2063192165521177 0.2025804860851362	-0.436321
C	0.8476306858855377 0.1722673985723695 0.0377179572944393	0.221158
C	0.6227210277634118 0.2383511967155679 0.1252549960830718	0.206542
C	0.6016853154047301 0.1473451290260578 0.2103154317210481	-0.424577
C	0.1812651150757939 0.6536913237914388 0.6595002016851064	-0.423950
C	0.2543672830620773 0.6505866564314572 0.8023943053794966	0.207551
C	0.2593588140063356 0.6972535378447238 0.9560241282232357	-0.152680
C	0.1892536248754996 0.7609720960892413 0.0158489558671009	-0.145724
C	0.1744478963186510 0.8591902618982641 0.9748823340151825	0.219347
C	0.2301904228896085 0.9211675245514156 0.8709095086554322	-0.424346
C	0.3894449288230454 0.7063191305521174 0.2025804860851362	-0.436321
C	0.3476307538855363 0.6722673985723698 0.0377179572944393	0.221157
C	0.1227210027634130 0.7383511107155681 0.1252549960830718	0.206541
C	0.1016853994047302 0.6473451980260603 0.2103154317210481	-0.424577
C	0.3187349319242065 0.1536912717914415 0.3404997993148976	-0.423950
C	0.2456327439379213 0.1505866734314623 0.1976056146205036	0.207551
C	0.2406411809936603 0.1972535718447264 0.0439758477767690	-0.152680
C	0.3107463711245002 0.2609720790892437 0.9841510351329020	-0.145724
C	0.3255521526813496 0.3591902278982615 0.0251177169848186	0.219347
C	0.2698096081103907 0.4211675595514150 0.1290905073445692	-0.424346
C	0.1105550531769531 0.2063192165521177 0.7974195619148677	-0.436321
C	0.1523692931144641 0.1722673985723695 0.9622820307055595	0.221158
C	0.3772790032365874 0.2383511967155679 0.8747450279169230	0.206532
C	0.3983146105952708 0.1473451290260578 0.7896844892789557	-0.424587
C	0.8187349319242064 0.6536913237914388 0.3404997993148976	-0.423950
C	0.7456327439379209 0.6505866564314572 0.1976056146205036	0.207551
C	0.7406411469936651 0.6972535378447238 0.0439758477767690	-0.152680
C	0.8107463711245002 0.7609720960892413 0.9841510351329020	-0.145724
C	0.8255520856813475 0.8591902618982641 0.0251177169848186	0.219347
C	0.7698095911103855 0.9211675245514156 0.1290905073445692	-0.424347
C	0.6105549691769534 0.7063191305521174 0.7974195619148677	-0.436321
C	0.6523693101144620 0.6722673985723698 0.9622820307055595	0.221158
C	0.8772789692365844 0.7383511107155681 0.8747450279169230	0.206531
C	0.8983146775952728 0.6473451980260603 0.7896844892789557	-0.424587
H	0.7114922246531489 0.1736342392134788 0.5449749884024757	0.151780
H	0.6285847796309549 0.2076406253822638 0.6823724685228709	0.142489
H	0.6464892415069731 0.0837819294267380 0.6387974336014480	0.132809
H	0.6853280252890844 0.4628108833935108 0.7802187827019347	0.144590
H	0.7769157200093831 0.3764462432631403 0.8040649685861696	0.137822
H	0.7734633281038436 0.4717614039130255 0.9495319069158910	0.127402
H	0.8596638743116903 0.0696117709348524 0.6975957298046267	0.285422
H	0.8923484131973877 0.1495961866794274 0.2970823288768039	0.154402
H	0.8470304625520829 0.2655523516248233 0.2442369144229574	0.133945
H	0.9611866731831992 0.2322373299449142 0.1953650495316906	0.140092
H	0.5779493393270370 0.1615214298219972 0.3327524969919144	0.144538
H	0.6642074662371948 0.1019663450559300 0.2266794987645288	0.149879
H	0.5463832846127714 0.1063392883848972 0.1378809805421176	0.130768
H	0.5236194947737173 0.3324953398272943 0.2198856819333922	0.269783
H	0.2114922756531491 0.6736341362134808 0.5449749884024757	0.151780
H	0.1285848636309544 0.7076405563822623 0.6823724685228709	0.142489
H	0.1464892915069696 0.5837818694267335 0.6387974336014480	0.132810
H	0.1853280422890826 0.9628108153935057 0.7802187827019347	0.144590
H	0.2769157540093860 0.8764462772631433 0.8040649685861696	0.137822
H	0.2734633611038428 0.9717614039130257 0.9495319069158910	0.127401
H	0.3596638403116950 0.5696118139348528 0.6975957298046267	0.285422
H	0.3923484801973894 0.6495961526794248 0.2970823288768039	0.154402
H	0.3470303945520842 0.7655523866248227 0.2442369144229574	0.133945
H	0.4611867401831932 0.7322373809449075 0.1953650495316906	0.140092
H	0.0779493313270361 0.6615214468219952 0.3327524969919144	0.144538
H	0.1642074322371924 0.6019663020559300 0.2266794987645288	0.149879
H	0.0463833206127742 0.6063392363848997 0.1378809805421176	0.130768
H	0.0236194797737197 0.8324953398272944 0.2198856819333922	0.269783
H	0.2885077063468564 0.1736342392134788 0.4550250435975196	0.151781
H	0.3714151193690405 0.2076406253822638 0.3176275964771316	0.142489
H	0.3535106874930321 0.0837819294267380 0.3612025663985521	0.132808
H	0.3146719697109184 0.4628108833935108 0.2197811852980693	0.144593
H	0.2230842749906131 0.3764462432631403 0.1959349994138276	0.137824
H	0.2265366678961633 0.4717614039130255 0.0504680660841103	0.127399
H	0.1403361266883061 0.0696117709348524 0.3024041751953686	0.285422
H	0.1076515098026098 0.1495961866794274 0.7029177031231985	0.154402
H	0.1529696014479154 0.2655523516248233 0.7557630855770424	0.133945
H	0.0388132558168062 0.2322373299449142 0.8046349824683050	0.140094
H	0.4220506906729658 0.1615214298219972 0.6672475030080859	0.144559
H	0.3357925957628097 0.1019663450559300 0.7733204532354674	0.149879
H	0.4536166803872294 0.1063392883848972 0.8621190594578854	0.130760
H	0.4763804662262831 0.3324953398272943 0.7801142710666070	0.269777
H	0.7885077733468510 0.6736341362134808 0.4550250435975196	0.151781
H	0.8714152203690451 0.7076405563822623 0.3176275964771316	0.142489
H	0.8535106874930317 0.5837818694267335 0.3612025663985521	0.132808
H	0.8146719697109187 0.9628108153935057 0.2197811852980693	0.144593
H	0.7230842749906129 0.8764462772631433 0.1959349994138276	0.137824
H	0.7265366678961632 0.9717614039130257 0.0504680660841103	0.127399
H	0.6403361176883090 0.5696118139348528 0.3024041751953686	0.285422
H	0.6076516188026079 0.6495961526794248 0.7029177031231985	0.154402
H	0.6529695344479133 0.7655523866248227 0.7557630855770424	0.133945
H	0.5388132918168015 0.7322373809449075 0.8046349824683050	0.140094
H	0.9220506236729635 0.6615214468219952 0.6672475030080859	0.144559
H	0.8357925287628083 0.6019663020559300 0.7733204532354674	0.149879
H	0.9536166803872292 0.6063392363848997 0.8621190594578854	0.130760
H	0.9763804322262873 0.8324953398272944 0.7801142710666070	0.269777
N	0.8341307549032174 0.0999779381186718 0.8004149622888210	-0.144492
N	0.6028159043488942 0.3935492480979692 0.0526273675679295	-0.262964
N	0.8923350375895358 0.1124911881147747 0.9412366919011653	-0.272065
N	0.5735252469286027 0.3194471107013391 0.1421804769860361	-0.139596
N	0.3341307549032173 0.5999778611186762 0.8004149622888210	-0.144492
N	0.1028159713488958 0.8935492480979691 0.0526273675679295	-0.262964
N	0.3923350715895390 0.6124912391147761 0.9412366919011653	-0.272065
N	0.0735252389286020 0.8194470757013397 0.1421804769860361	-0.139596
N	0.1658692270967814 0.0999779381186718 0.1995850857111761	-0.144492
N	0.3971839896511045 0.3935492480979692 0.9473726084320684	-0.262965
N	0.1076649324104617 0.1124911881147747 0.0587632880988330	-0.272064
N	0.4264747500714007 0.3194471107013391 0.8578195390139650	-0.139579
N	0.6658692440967789 0.5999778611186762 0.1995850857111761	-0.144492
N	0.8971840906511089 0.8935492480979691 0.9473726084320684	-0.262965
N	0.6076649574104673 0.6124912391147761 0.0587632880988330	-0.272064
N	0.9264747840713963 0.8194470757013397 0.8578195390139651	-0.139579
Ti	0.4999999979999998 0.4685279208804067 0.5000000000000000	2.297325
Ti	-0.0000000000000000 0.9685279208804067 0.5000000000000000	2.297325
Fe	0.5000000000000000 0.5093611925885112 -0.0000000000000000	0.854900
Fe	-0.0000000000000000 0.0093611995885150 -0.0000000000000000	0.854900
	  	
