#======================================================================

# CRYSTAL DATA

#----------------------------------------------------------------------

data_VESTA_phase_1


_pd_phase_name                         VOFFIVE_3_Cd
_cell_length_a                         15.01361
_cell_length_b                         15.01361
_cell_length_c                         8.02477
_cell_angle_alpha                      90
_cell_angle_beta                       90
_cell_angle_gamma                      90
_symmetry_space_group_name_H-M         P 1
_symmetry_Int_Tables_number            1

loop_
_symmetry_equiv_pos_as_xyz
   x, y, z

loop_
   _atom_site_label
   _atom_site_fract_x
   _atom_site_fract_y
   _atom_site_fract_z
   _atom_site_charge
C	0.2702591262460989 0.4535841499844038 0.6383508607163010	0.063936
C	0.2297408567539032 0.0464158550156002 0.6383508607163010	0.063936
C	0.2299739429165943 0.4535184798905619 0.3601688450083745	0.063986
C	0.2700260400834079 0.0464815251094422 0.3601688450083745	0.063986
C	0.0464815251094422 0.2700260400834079 0.3601688450083745	0.063990
C	0.4535184798905619 0.2299739429165943 0.3601688450083745	0.063990
C	0.4535841499844038 0.2702591262460989 0.6383508607163010	0.063944
C	0.0464158550156002 0.2297408567539032 0.6383508607163010	0.063944
C	0.9535841839843995 0.2297408567539032 0.6383508607163010	0.063963
C	0.5464158160156005 0.2702591262460989 0.6383508607163010	0.063963
C	0.5464814861094424 0.2299739429165943 0.3601688450083745	0.063997
C	0.9535185138905576 0.2700260400834079 0.3601688450083745	0.063997
C	0.7299739259165894 0.0464815251094422 0.3601688450083745	0.063990
C	0.7700260740834106 0.4535184798905619 0.3601688450083745	0.063990
C	0.7702591602461015 0.0464158550156002 0.6383508607163010	0.063944
C	0.7297408397538985 0.4535841499844038 0.6383508607163010	0.063944
C	0.4535841499844038 0.7297408397538985 0.6383508607163010	0.063937
C	0.0464158550156002 0.7702591602461015 0.6383508607163010	0.063937
C	0.0464815251094422 0.7299739259165894 0.3601688450083745	0.063987
C	0.4535184798905619 0.7700260740834106 0.3601688450083745	0.063987
C	0.2299739429165943 0.5464814861094424 0.3601688450083745	0.064001
C	0.2700260400834079 0.9535185138905576 0.3601688450083745	0.064001
C	0.2702591262460989 0.5464158160156005 0.6383508607163010	0.063970
C	0.2297408567539032 0.9535841839843995 0.6383508607163010	0.063970
C	0.7702591602461015 0.9535841839843995 0.6383508607163010	0.063963
C	0.7297408397538985 0.5464158160156005 0.6383508607163010	0.063963
C	0.7299739259165894 0.9535185138905576 0.3601688450083745	0.063997
C	0.7700260740834106 0.5464814861094424 0.3601688450083745	0.063997
C	0.5464814861094424 0.7700260740834106 0.3601688450083745	0.064000
C	0.9535185138905576 0.7299739259165894 0.3601688450083745	0.064000
C	0.9535841839843995 0.7702591602461015 0.6383508607163010	0.063970
C	0.5464158160156005 0.7297408397538985 0.6383508607163010	0.063970
H	0.2859920840566779 0.4160654555238337 0.7512675521638704	0.113358
H	0.2140079329433270 0.0839345534761634 0.7512675521638704	0.113358
H	0.2144302448636776 0.4156312466553247 0.2474660033469977	0.120101
H	0.2855697721363274 0.0843687623446725 0.2474660033469977	0.120101
H	0.0843687623446725 0.2855697721363274 0.2474660033469977	0.120100
H	0.4156312466553247 0.2144302448636776 0.2474660033469977	0.120100
H	0.4160654555238337 0.2859920840566779 0.7512675521638704	0.113357
H	0.0839345534761634 0.2140079329433270 0.7512675521638704	0.113356
H	0.9160654215238383 0.2140079329433270 0.7512675521638704	0.113353
H	0.5839345784761617 0.2859920840566779 0.7512675521638704	0.113353
H	0.5843687873446709 0.2144302448636776 0.2474660033469977	0.120091
H	0.9156312126553291 0.2855697721363274 0.2474660033469977	0.120091
H	0.7144301938636772 0.0843687623446725 0.2474660033469977	0.120100
H	0.7855698061363228 0.4156312466553247 0.2474660033469977	0.120100
H	0.7859921180566738 0.0839345534761634 0.7512675521638704	0.113356
H	0.7140078819433262 0.4160654555238337 0.7512675521638704	0.113356
H	0.4160654555238337 0.7140078819433262 0.7512675521638704	0.113358
H	0.0839345534761634 0.7859921180566738 0.7512675521638704	0.113358
H	0.0843687623446725 0.7144301938636772 0.2474660033469977	0.120101
H	0.4156312466553247 0.7855698061363228 0.2474660033469977	0.120101
H	0.2144302448636776 0.5843687873446709 0.2474660033469977	0.120091
H	0.2855697721363274 0.9156312126553291 0.2474660033469977	0.120091
H	0.2859920840566779 0.5839345784761617 0.7512675521638704	0.113352
H	0.2140079329433270 0.9160654215238383 0.7512675521638704	0.113351
H	0.7859921180566738 0.9160654215238383 0.7512675521638704	0.113353
H	0.7140078819433262 0.5839345784761617 0.7512675521638704	0.113353
H	0.7144301938636771 0.9156312126553291 0.2474660033469977	0.120091
H	0.7855698061363228 0.5843687873446709 0.2474660033469977	0.120091
H	0.5843687873446709 0.7855698061363228 0.2474660033469977	0.120091
H	0.9156312126553291 0.7144301938636772 0.2474660033469977	0.120091
H	0.9160654215238383 0.7859921180566738 0.7512675521638704	0.113352
H	0.5839345784761617 0.7140078819433262 0.7512675521638704	0.113352
Cd	0.2500000000000000 0.2500000000000000 0.5010016962343978	0.868224
Cd	0.7500000340000028 0.2500000000000000 0.5010016962343978	0.868229
Cd	0.2500000000000000 0.7500000340000028 0.5010016962343978	0.868229
Cd	0.7500000340000028 0.7500000340000028 0.5010016962343978	0.868234
V	0.2500000000000000 0.2500000000000000 -0.0181551227980273	2.281717
V	0.7500000340000028 0.2500000000000000 -0.0181551227980273	2.281721
V	0.2500000000000000 0.7500000340000028 -0.0181551227980273	2.281721
V	0.7500000340000028 0.7500000340000028 -0.0181551227980273	2.281724
O	0.2500000000000000 0.2500000000000000 0.7751095810378369	-0.850219
O	0.7500000340000028 0.2500000000000000 0.7751095810378369	-0.850219
O	0.2500000000000000 0.7500000340000028 0.7751095810378369	-0.850219
O	0.7500000340000028 0.7500000340000028 0.7751095810378369	-0.850219
F	0.2500000000000000 0.2500000000000000 0.2312062367754643	-0.631764
F	0.3369365671969428 0.3369365671969428 0.0013165126138053	-0.581413
F	0.1630634328030572 0.1630634328030572 0.0013165126138053	-0.581414
F	0.1634833227786591 0.3365166772213408 0.0108870836178334	-0.578067
F	0.3365166772213408 0.1634833227786591 0.0108870836178334	-0.578067
F	0.7500000340000028 0.2500000000000000 0.2312062367754643	-0.631766
F	0.8365166432213453 0.3365166772213408 0.0108870836178334	-0.578066
F	0.6634833567786547 0.1634833227786591 0.0108870836178334	-0.578066
F	0.6630634668030527 0.3369365671969428 0.0013165126138053	-0.581412
F	0.8369365331969473 0.1630634328030572 0.0013165126138053	-0.581413
F	0.2500000000000000 0.7500000340000028 0.2312062367754643	-0.631766
F	0.3365166772213408 0.8365166432213453 0.0108870836178334	-0.578066
F	0.1634833227786591 0.6634833567786547 0.0108870836178334	-0.578066
F	0.1630634328030572 0.8369365331969473 0.0013165126138053	-0.581413
F	0.3369365671969428 0.6630634668030527 0.0013165126138053	-0.581412
F	0.7500000340000028 0.7500000340000028 0.2312062367754643	-0.631768
F	0.8369365331969473 0.8369365331969473 0.0013165126138053	-0.581412
F	0.6630634668030527 0.6630634668030527 0.0013165126138053	-0.581412
F	0.6634833567786547 0.8365166432213453 0.0108870836178334	-0.578065
F	0.8365166432213453 0.6634833567786547 0.0108870836178334	-0.578065
N	0.4079048202681074 0.2500411212604028 0.4993543468362249	-0.198640
N	0.0920951717318920 0.2499588787395971 0.4993543468362249	-0.198640
N	0.2500411212604029 0.4079048202681074 0.4993543468362249	-0.198640
N	0.2499588787395971 0.0920951717318920 0.4993543468362249	-0.198640
N	0.9079048542681102 0.2499588787395971 0.4993543468362249	-0.198657
N	0.5920951457318898 0.2500411212604028 0.4993543468362249	-0.198657
N	0.7499589127395997 0.4079048202681074 0.4993543468362249	-0.198641
N	0.7500411552604059 0.0920951717318920 0.4993543468362249	-0.198641
N	0.4079048202681074 0.7499589127395997 0.4993543468362249	-0.198639
N	0.0920951717318920 0.7500411552604059 0.4993543468362249	-0.198639
N	0.2499588787395971 0.9079048542681102 0.4993543468362249	-0.198659
N	0.2500411212604029 0.5920951457318898 0.4993543468362249	-0.198659
N	0.9079048542681102 0.7500411552604059 0.4993543468362249	-0.198658
N	0.5920951457318898 0.7499589127395997 0.4993543468362249	-0.198658
N	0.7500411552604059 0.9079048542681102 0.4993543468362249	-0.198658
N	0.7499589127395997 0.5920951457318898 0.4993543468362249	-0.198657
	  	
