#======================================================================

# CRYSTAL DATA

#----------------------------------------------------------------------

data_VESTA_phase_1


_pd_phase_name                         VOFFIVE_6_Cu_i
_cell_length_a                         17.57607
_cell_length_b                         17.57607
_cell_length_c                         15.60872
_cell_angle_alpha                      90
_cell_angle_beta                       90
_cell_angle_gamma                      90
_symmetry_space_group_name_H-M         P 1
_symmetry_Int_Tables_number            1

loop_
_symmetry_equiv_pos_as_xyz
   x, y, z

loop_
   _atom_site_label
   _atom_site_fract_x
   _atom_site_fract_y
   _atom_site_fract_z
   _atom_site_charge
N	0.2424881046594170 0.1340142623060975 0.1283734217402126	-0.225581
N	0.2575118953405828 0.3659857506939073 0.1283734217402126	-0.225582
N	0.3659857506939073 0.2424881046594170 0.1283734217402126	-0.225581
N	0.1340142623060975 0.2575118953405828 0.1283734217402126	-0.225581
N	0.7555112266757243 0.6338683103366153 0.3724873832415102	-0.226100
N	0.7444887733242757 0.8661316896633847 0.3724873832415102	-0.226101
N	0.6338683103366153 0.7444887733242757 0.3724873832415102	-0.226100
N	0.8661316896633847 0.7555112266757243 0.3724873832415102	-0.226100
N	0.7555112266757243 0.8661316896633847 0.8724873832415107	-0.226101
N	0.7444887733242757 0.6338683103366153 0.8724873832415107	-0.226101
N	0.6338683103366153 0.7555112266757243 0.8724873832415107	-0.226101
N	0.8661316896633847 0.7444887733242757 0.8724873832415107	-0.226101
N	0.2424881046594170 0.3659857506939073 0.6283734217402128	-0.225582
N	0.2575118953405828 0.1340142623060975 0.6283734217402128	-0.225582
N	0.3659857506939073 0.2575118953405828 0.6283734217402128	-0.225581
N	0.1340142623060975 0.2424881046594170 0.6283734217402128	-0.225582
C	0.2013243507218574 0.0972644447236980 0.1881352286898031	0.102463
C	0.1932796235099827 0.0186920754671159 0.1872949434079617	-0.180017
C	0.2313984294190500 0.9758610087729807 0.1247852933760043	0.110756
C	0.2748684126599149 0.0151856276402387 0.0638406703772058	-0.178304
C	0.2780199320099612 0.0941468376453576 0.0665779133453751	0.106999
C	0.2259385426297391 0.8922090257365343 0.1237009224310553	0.060970
C	0.2911304902872728 0.8479816841539715 0.1209646864925087	-0.173162
C	0.2867432918428515 0.7677296377226724 0.1222635043963789	0.084047
C	0.1471480199849998 0.7786064432411820 0.1248143622656679	-0.122432
C	0.1533341237431100 0.8565704564240634 0.1268288913086597	-0.137069
C	0.2986756622781474 0.4027355352763006 0.1881352286898031	0.102463
C	0.3067203894900219 0.4813079345328780 0.1872949434079617	-0.180017
C	0.2686015705809500 0.5241389912270193 0.1247852933760044	0.110758
C	0.2251315873400850 0.4848143873597590 0.0638406703772058	-0.178304
C	0.2219800679900388 0.4058531553546383 0.0665779133453751	0.107000
C	0.2740614573702611 0.6077909742634657 0.1237009224310553	0.060951
C	0.2088694967127296 0.6520183158460285 0.1209646864925087	-0.173153
C	0.2132567081571484 0.7322703622773276 0.1222635043963789	0.084045
C	0.3528519800150000 0.7213935567588180 0.1248143622656679	-0.122437
C	0.3466658762568899 0.6434295435759366 0.1268288913086597	-0.137067
C	0.4027355352763006 0.2013243507218574 0.1881352286898031	0.102462
C	0.4813079345328780 0.1932796235099827 0.1872949434079617	-0.180017
C	0.5241389912270193 0.2313984294190500 0.1247852933760044	0.110755
C	0.4848143873597590 0.2748684126599149 0.0638406703772058	-0.178304
C	0.4058531553546383 0.2780199320099612 0.0665779133453751	0.106998
C	0.6077909742634657 0.2259385426297391 0.1237009224310553	0.060970
C	0.6520183158460285 0.2911304902872728 0.1209646864925087	-0.173163
C	0.7322703622773276 0.2867432918428515 0.1222635043963789	0.084047
C	0.7213935567588180 0.1471480199849998 0.1248143622656679	-0.122432
C	0.6434295435759366 0.1533341237431100 0.1268288913086597	-0.137070
C	0.0972644447236980 0.2986756622781474 0.1881352286898031	0.102462
C	0.0186920754671159 0.3067203894900219 0.1872949434079617	-0.180017
C	0.9758610087729807 0.2686015705809500 0.1247852933760044	0.110758
C	0.0151856276402387 0.2251315873400850 0.0638406703772058	-0.178304
C	0.0941468376453576 0.2219800679900388 0.0665779133453751	0.106997
C	0.8922090257365343 0.2740614573702611 0.1237009224310553	0.060951
C	0.8479816841539715 0.2088694967127296 0.1209646864925087	-0.173153
C	0.7677296377226724 0.2132567081571484 0.1222635043963789	0.084045
C	0.7786064432411820 0.3528519800150000 0.1248143622656679	-0.122437
C	0.8565704564240634 0.3466658762568899 0.1268288913086597	-0.137067
C	0.7967604610644329 0.5980670886552257 0.3120229438050073	0.104617
C	0.8055490335644901 0.5194921584921658 0.3121945131784392	-0.180464
C	0.7681154925264240 0.4757945873930402 0.3744652863466338	0.111772
C	0.7239329960273172 0.5141611594745727 0.4355457678973250	-0.179853
C	0.7199906750959857 0.5930332775037973 0.4334334144943948	0.105550
C	0.7741540424454468 0.3921812962571875 0.3754711926136209	0.061232
C	0.7089659185495457 0.3479696153965414 0.3783943847892143	-0.173231
C	0.7132690761369337 0.2677371557722299 0.3772997715277034	0.084139
C	0.8528725130727005 0.2785498219545319 0.3748955163812311	-0.122160
C	0.8467750515824708 0.3565331237475175 0.3726526372798495	-0.137486
C	0.7032395389355671 0.9019329113447743 0.3120229438050073	0.104618
C	0.6944509664355099 0.9805078415078342 0.3121945131784392	-0.180464
C	0.7318845074735760 0.0242054346069615 0.3744652863466338	0.111771
C	0.7760670039726828 0.9858388935254281 0.4355457678973250	-0.179853
C	0.7800093249040143 0.9069667224962027 0.4334334144943948	0.105551
C	0.7258459575545532 0.1078187037428126 0.3754711926136209	0.061232
C	0.7910340814504543 0.1520303716034611 0.3783943847892143	-0.173230
C	0.7867309238630663 0.2322628442277700 0.3772997715277034	0.084140
C	0.6471274869272995 0.2214501780454683 0.3748955163812311	-0.122160
C	0.6532249484175292 0.1434668502524804 0.3726526372798495	-0.137488
C	0.5980670886552257 0.7032395389355671 0.3120229438050073	0.104616
C	0.5194921584921658 0.6944509664355099 0.3121945131784392	-0.180464
C	0.4757945873930402 0.7318845074735760 0.3744652863466338	0.111771
C	0.5141611594745727 0.7760670039726828 0.4355457678973250	-0.179853
C	0.5930332775037973 0.7800093249040143 0.4334334144943948	0.105550
C	0.3921812962571875 0.7258459575545532 0.3754711926136209	0.061232
C	0.3479696153965414 0.7910340814504543 0.3783943847892143	-0.173231
C	0.2677371557722299 0.7867309238630663 0.3772997715277034	0.084139
C	0.2785498219545319 0.6471274869272995 0.3748955163812311	-0.122160
C	0.3565331237475175 0.6532249484175292 0.3726526372798495	-0.137487
C	0.9019329113447743 0.7967604610644329 0.3120229438050073	0.104617
C	0.9805078415078342 0.8055490335644901 0.3121945131784392	-0.180465
C	0.0242054346069615 0.7681154925264240 0.3744652863466338	0.111772
C	0.9858388935254281 0.7239329960273172 0.4355457678973250	-0.179853
C	0.9069667224962027 0.7199906750959857 0.4334334144943948	0.105550
C	0.1078187037428126 0.7741540424454468 0.3754711926136209	0.061231
C	0.1520303716034611 0.7089659185495457 0.3783943847892143	-0.173231
C	0.2322628442277700 0.7132690761369337 0.3772997715277034	0.084139
C	0.2214501780454683 0.8528725130727005 0.3748955163812311	-0.122160
C	0.1434668502524804 0.8467750515824708 0.3726526372798495	-0.137488
C	0.7967604610644329 0.9019329113447743 0.8120229118050044	0.104617
C	0.8055490335644901 0.9805078415078342 0.8121945451784346	-0.180464
C	0.7681154925264240 0.0242054346069615 0.8744652863466338	0.111771
C	0.7239329960273172 0.9858388935254281 0.9355457998973205	-0.179853
C	0.7199906750959857 0.9069667224962027 0.9334333824943921	0.105551
C	0.7741540424454468 0.1078187037428126 0.8754711286136231	0.061232
C	0.7089659185495457 0.1520303716034611 0.8783944167892166	-0.173231
C	0.7132690761369337 0.2322628442277700 0.8772997085277086	0.084139
C	0.8528725130727005 0.2214501780454683 0.8748955163812311	-0.122160
C	0.8467750515824708 0.1434668502524804 0.8726526372798495	-0.137487
C	0.7032395389355671 0.5980670886552257 0.8120229118050044	0.104617
C	0.6944509664355099 0.5194921584921658 0.8121945451784346	-0.180464
C	0.7318845074735760 0.4757945873930402 0.8744652863466338	0.111771
C	0.7760670039726828 0.5141611594745727 0.9355457998973205	-0.179853
C	0.7800093249040143 0.5930332775037973 0.9334333824943921	0.105550
C	0.7258459575545532 0.3921812962571875 0.8754711286136231	0.061232
C	0.7910340814504543 0.3479696153965414 0.8783944167892166	-0.173230
C	0.7867309238630663 0.2677371557722299 0.8772997085277086	0.084139
C	0.6471274869272995 0.2785498219545319 0.8748955163812311	-0.122160
C	0.6532249484175292 0.3565331237475175 0.8726526372798495	-0.137487
C	0.5980670886552257 0.7967604610644329 0.8120229118050044	0.104617
C	0.5194921584921658 0.8055490335644901 0.8121945451784346	-0.180464
C	0.4757945873930402 0.7681154925264240 0.8744652863466338	0.111771
C	0.5141611594745727 0.7239329960273172 0.9355457998973205	-0.179852
C	0.5930332775037973 0.7199906750959857 0.9334333824943921	0.105550
C	0.3921812962571875 0.7741540424454468 0.8754711286136231	0.061232
C	0.3479696153965414 0.7089659185495457 0.8783944167892166	-0.173231
C	0.2677371557722299 0.7132690761369337 0.8772997085277086	0.084139
C	0.2785498219545319 0.8528725130727005 0.8748955163812311	-0.122160
C	0.3565331237475175 0.8467750515824708 0.8726526372798495	-0.137487
C	0.9019329113447743 0.7032395389355671 0.8120229118050044	0.104617
C	0.9805078415078342 0.6944509664355099 0.8121945451784346	-0.180464
C	0.0242054346069615 0.7318845074735760 0.8744652863466338	0.111771
C	0.9858388935254281 0.7760670039726828 0.9355457998973205	-0.179853
C	0.9069667224962027 0.7800093249040143 0.9334333824943921	0.105550
C	0.1078187037428126 0.7258459575545532 0.8754711286136231	0.061231
C	0.1520303716034611 0.7910340814504543 0.8783944167892166	-0.173231
C	0.2322628442277700 0.7867309238630663 0.8772997085277086	0.084139
C	0.2214501780454683 0.6471274869272995 0.8748955163812311	-0.122160
C	0.1434668502524804 0.6532249484175292 0.8726526372798495	-0.137488
C	0.2013243507218574 0.4027355352763006 0.6881352286898035	0.102464
C	0.1932796235099827 0.4813079345328780 0.6872949114079658	-0.180016
C	0.2313984294190500 0.5241389912270193 0.6247852853760035	0.110755
C	0.2748684126599149 0.4848143873597590 0.5638406343772102	-0.178303
C	0.2780199320099612 0.4058531553546383 0.5665779453453774	0.106999
C	0.2259385426297391 0.6077909742634657 0.6237009784310530	0.060970
C	0.2911304902872728 0.6520183158460285 0.6209646704925076	-0.173162
C	0.2867432918428515 0.7322703622773276 0.6222635513963791	0.084047
C	0.1471480199849998 0.7213935567588180 0.6248143702656689	-0.122431
C	0.1533341237431100 0.6434295435759366 0.6268289063086645	-0.137070
C	0.2986756622781474 0.0972644447236980 0.6881352286898035	0.102463
C	0.3067203894900219 0.0186920754671159 0.6872949114079658	-0.180017
C	0.2686015705809500 0.9758610087729807 0.6247852853760035	0.110758
C	0.2251315873400850 0.0151856276402387 0.5638406343772102	-0.178304
C	0.2219800679900388 0.0941468376453576 0.5665779453453774	0.106999
C	0.2740614573702611 0.8922090257365343 0.6237009784310530	0.060951
C	0.2088694967127296 0.8479816841539715 0.6209646704925076	-0.173153
C	0.2132567081571484 0.7677296377226724 0.6222635513963791	0.084045
C	0.3528519800150000 0.7786064432411820 0.6248143702656689	-0.122437
C	0.3466658762568899 0.8565704564240634 0.6268289063086645	-0.137066
C	0.4027355352763006 0.2986756622781474 0.6881352286898035	0.102462
C	0.4813079345328780 0.3067203894900219 0.6872949114079658	-0.180017
C	0.5241389912270193 0.2686015705809500 0.6247852853760035	0.110758
C	0.4848143873597590 0.2251315873400850 0.5638406343772102	-0.178304
C	0.4058531553546383 0.2219800679900388 0.5665779453453774	0.106998
C	0.6077909742634657 0.2740614573702611 0.6237009784310530	0.060951
C	0.6520183158460285 0.2088694967127296 0.6209646704925076	-0.173154
C	0.7322703622773276 0.2132567081571484 0.6222635513963791	0.084050
C	0.7213935567588180 0.3528519800150000 0.6248143702656689	-0.122433
C	0.6434295435759366 0.3466658762568899 0.6268289063086645	-0.137068
C	0.0972644447236980 0.2013243507218574 0.6881352286898035	0.102461
C	0.0186920754671159 0.1932796235099827 0.6872949114079658	-0.180016
C	0.9758610087729807 0.2313984294190500 0.6247852853760035	0.110755
C	0.0151856276402387 0.2748684126599149 0.5638406343772102	-0.178303
C	0.0941468376453576 0.2780199320099612 0.5665779453453774	0.106998
C	0.8922090257365343 0.2259385426297391 0.6237009784310530	0.060970
C	0.8479816841539715 0.2911304902872728 0.6209646704925076	-0.173162
C	0.7677296377226724 0.2867432918428515 0.6222635513963791	0.084043
C	0.7786064432411820 0.1471480199849998 0.6248143702656689	-0.122434
C	0.8565704564240634 0.1533341237431100 0.6268289063086645	-0.137069
H	0.1756381102571490 0.1322088103422013 0.2381696390441981	0.106921
H	0.1593665194596865 0.9907199987463122 0.2365500200421033	0.115260
H	0.3042824392996661 0.9844277633852698 0.0130372599449430	0.115787
H	0.3078905357883477 0.1272103531989334 0.0178848509176032	0.110185
H	0.3471835879944818 0.8748308000069386 0.1202447249399503	0.108614
H	0.0914643157589598 0.7511447822928903 0.1254862199387102	0.108081
H	0.1025797721398542 0.8922616602043639 0.1288630018719688	0.101112
H	0.3243618767428536 0.3677912166577973 0.2381696390441981	0.106921
H	0.3406334935403112 0.5092800542536886 0.2365500200421033	0.115260
H	0.1957175477003365 0.5155721826147257 0.0130372599449430	0.115787
H	0.1921094642116522 0.3727896328010651 0.0178848509176032	0.110185
H	0.1528164120055182 0.6251691999930614 0.1202447249399503	0.108620
H	0.4085356642410455 0.7488552177071097 0.1254862199387102	0.108079
H	0.3974202278601458 0.6077383397956361 0.1288630018719688	0.101112
H	0.3677912166577973 0.1756381102571490 0.2381696390441981	0.106921
H	0.5092800542536886 0.1593665194596865 0.2365500200421033	0.115260
H	0.5155721826147257 0.3042824392996661 0.0130372599449430	0.115787
H	0.3727896328010651 0.3078905357883477 0.0178848509176032	0.110185
H	0.6251691999930614 0.3471835879944818 0.1202447249399503	0.108615
H	0.7488552177071097 0.0914643157589598 0.1254862199387102	0.108081
H	0.6077383397956361 0.1025797721398542 0.1288630018719688	0.101113
H	0.1322088103422013 0.3243618767428536 0.2381696390441981	0.106921
H	0.9907199987463122 0.3406334935403112 0.2365500200421033	0.115261
H	0.9844277633852698 0.1957175477003365 0.0130372599449430	0.115787
H	0.1272103531989334 0.1921094642116522 0.0178848509176032	0.110185
H	0.8748308000069386 0.1528164120055182 0.1202447249399503	0.108621
H	0.7511447822928903 0.4085356642410455 0.1254862199387102	0.108079
H	0.8922616602043639 0.3974202278601458 0.1288630018719688	0.101113
H	0.8214366427378890 0.6338691311994311 0.2620885774095703	0.111383
H	0.8395586144356177 0.4922525295182495 0.2624910261672712	0.115565
H	0.6946117263794512 0.4826953232433405 0.4858451995030748	0.115437
H	0.6890125480780487 0.6250889235878209 0.4820638083749529	0.105673
H	0.6529326867047263 0.3748639038130016 0.3790699091297122	0.108113
H	0.9085384247269972 0.2510281259913441 0.3745411092713516	0.107618
H	0.8975760415918382 0.3921876794225482 0.3706949399512813	0.101529
H	0.6785633572621110 0.8661308688005689 0.2620885774095703	0.111383
H	0.6604413855643823 0.0077474354817438 0.2624910261672712	0.115565
H	0.8053882736205488 0.0173047037566652 0.4858451995030748	0.115438
H	0.8109874519219513 0.8749110764121791 0.4820638083749529	0.105673
H	0.8470673132952737 0.1251360961869985 0.3790699091297122	0.108110
H	0.5914615752730028 0.2489718740086560 0.3745411092713516	0.107617
H	0.6024239584081618 0.1078123205774517 0.3706949399512813	0.101530
H	0.6338691311994311 0.6785633572621110 0.2620885774095703	0.111383
H	0.4922525295182495 0.6604413855643823 0.2624910261672712	0.115565
H	0.4826953232433405 0.8053882736205488 0.4858451995030748	0.115438
H	0.6250889235878209 0.8109874519219513 0.4820638083749529	0.105673
H	0.3748639038130016 0.8470673132952737 0.3790699091297122	0.108113
H	0.2510281259913441 0.5914615752730028 0.3745411092713516	0.107619
H	0.3921876794225482 0.6024239584081618 0.3706949399512813	0.101530
H	0.8661308688005689 0.8214366427378890 0.2620885774095703	0.111383
H	0.0077474354817438 0.8395586144356177 0.2624910261672712	0.115565
H	0.0173047037566652 0.6946117263794512 0.4858451995030748	0.115437
H	0.8749110764121791 0.6890125480780487 0.4820638083749529	0.105673
H	0.1251360961869985 0.6529326867047263 0.3790699091297122	0.108112
H	0.2489718740086560 0.9085384247269972 0.3745411092713516	0.107617
H	0.1078123205774517 0.8975760415918382 0.3706949399512813	0.101530
H	0.8214366427378890 0.8661308688005689 0.7620885624095657	0.111383
H	0.8395586144356177 0.0077474354817438 0.7624910421672728	0.115565
H	0.6946117263794512 0.0173047037566652 0.9858451995030749	0.115437
H	0.6890125480780487 0.8749110764121791 0.9820638083749524	0.105673
H	0.6529326867047263 0.1251360961869985 0.8790698781297058	0.108112
H	0.9085384247269972 0.2489718740086560 0.8745411092713513	0.107618
H	0.8975760415918382 0.1078123205774517 0.8706949719512773	0.101529
H	0.6785633572621110 0.6338691311994311 0.7620885624095657	0.111382
H	0.6604413855643823 0.4922525295182495 0.7624910421672728	0.115565
H	0.8053882736205488 0.4826953232433405 0.9858451995030749	0.115437
H	0.8109874519219513 0.6250889235878209 0.9820638083749524	0.105673
H	0.8470673132952737 0.3748639038130016 0.8790698781297058	0.108111
H	0.5914615752730028 0.2510281259913441 0.8745411092713513	0.107617
H	0.6024239584081618 0.3921876794225482 0.8706949719512773	0.101530
H	0.6338691311994311 0.8214366427378890 0.7620885624095657	0.111382
H	0.4922525295182495 0.8395586144356177 0.7624910421672728	0.115566
H	0.4826953232433405 0.6946117263794512 0.9858451995030749	0.115437
H	0.6250889235878209 0.6890125480780487 0.9820638083749524	0.105673
H	0.3748639038130016 0.6529326867047263 0.8790698781297058	0.108113
H	0.2510281259913441 0.9085384247269972 0.8745411092713513	0.107618
H	0.3921876794225482 0.8975760415918382 0.8706949719512773	0.101530
H	0.8661308688005689 0.6785633572621110 0.7620885624095657	0.111383
H	0.0077474354817438 0.6604413855643823 0.7624910421672728	0.115565
H	0.0173047037566652 0.8053882736205488 0.9858451995030749	0.115437
H	0.8749110764121791 0.8109874519219513 0.9820638083749524	0.105674
H	0.1251360961869985 0.8470673132952737 0.8790698781297058	0.108111
H	0.2489718740086560 0.5914615752730028 0.8745411092713513	0.107617
H	0.1078123205774517 0.6024239584081618 0.8706949719512773	0.101530
H	0.1756381102571490 0.3677912166577973 0.7381696540442029	0.106921
H	0.1593665194596865 0.5092800542536886 0.7365500040421020	0.115260
H	0.3042824392996661 0.5155721826147257 0.5130372969449425	0.115786
H	0.3078905357883477 0.3727896328010651 0.5178848369176022	0.110185
H	0.3471835879944818 0.6251691999930614 0.6202447489399521	0.108614
H	0.0914643157589598 0.7488552177071097 0.6254862119387097	0.108079
H	0.1025797721398542 0.6077383397956361 0.6288629858719745	0.101113
H	0.3243618767428536 0.1322088103422013 0.7381696540442029	0.106921
H	0.3406334935403112 0.9907199987463122 0.7365500040421020	0.115260
H	0.1957175477003365 0.9844277633852698 0.5130372969449425	0.115785
H	0.1921094642116522 0.1272103531989334 0.5178848369176022	0.110185
H	0.1528164120055182 0.8748308000069386 0.6202447489399521	0.108620
H	0.4085356642410455 0.7511447822928903 0.6254862119387097	0.108078
H	0.3974202278601458 0.8922616602043639 0.6288629858719745	0.101112
H	0.3677912166577973 0.3243618767428536 0.7381696540442029	0.106921
H	0.5092800542536886 0.3406334935403112 0.7365500040421020	0.115260
H	0.5155721826147257 0.1957175477003365 0.5130372969449425	0.115785
H	0.3727896328010651 0.1921094642116522 0.5178848369176022	0.110185
H	0.6251691999930614 0.1528164120055182 0.6202447489399521	0.108622
H	0.7488552177071097 0.4085356642410455 0.6254862119387097	0.108079
H	0.6077383397956361 0.3974202278601458 0.6288629858719745	0.101113
H	0.1322088103422013 0.1756381102571490 0.7381696540442029	0.106921
H	0.9907199987463122 0.1593665194596865 0.7365500040421020	0.115260
H	0.9844277633852698 0.3042824392996661 0.5130372969449425	0.115786
H	0.1272103531989334 0.3078905357883477 0.5178848369176022	0.110185
H	0.8748308000069386 0.3471835879944818 0.6202447489399521	0.108613
H	0.7511447822928903 0.0914643157589598 0.6254862119387097	0.108078
H	0.8922616602043639 0.1025797721398542 0.6288629858719745	0.101114
F	0.3180696086331424 0.1687633257727400 0.3820485740068379	-0.601292
F	0.1819303913668577 0.3312366742272602 0.3820485740068379	-0.601293
F	0.3312366742272601 0.3180696086331424 0.3820485740068379	-0.601293
F	0.1687633257727400 0.1819303913668577 0.3820485740068379	-0.601293
F	0.6829259104684928 0.6679271024647295 0.1250601663413838	-0.601531
F	0.8170740895315072 0.8320728975352705 0.1250601663413838	-0.601531
F	0.6679271024647295 0.8170740895315072 0.1250601663413838	-0.601532
F	0.8320728975352705 0.6829259104684928 0.1250601663413838	-0.601531
F	0.6829259104684928 0.8320728975352705 0.6250601583413834	-0.601531
F	0.8170740895315072 0.6679271024647295 0.6250601583413834	-0.601531
F	0.6679271024647295 0.6829259104684928 0.6250601583413834	-0.601531
F	0.8320728975352705 0.8170740895315072 0.6250601583413834	-0.601531
F	0.3180696086331424 0.3312366742272601 0.8820485740068380	-0.601293
F	0.1819303913668577 0.1687633257727400 0.8820485740068380	-0.601293
F	0.3312366742272602 0.1819303913668577 0.8820485740068380	-0.601292
F	0.1687633257727400 0.3180696086331424 0.8820485740068380	-0.601293
F	0.2500000000000000 0.2500000000000000 0.4960036895381016	-0.654134
F	0.7500000000000000 0.7500000000000000 0.2392944097561510	-0.654332
F	0.7500000000000000 0.7500000000000000 0.7392944407561498	-0.654333
F	0.2500000000000000 0.2500000000000000 -0.0039962784619031	-0.654134
O	0.2500000000000000 0.2500000000000000 0.2655722755799945	-0.850677
O	0.7500000000000000 0.7500000000000000 0.0088463069362160	-0.851293
O	0.7500000000000000 0.7500000000000000 0.5088463119362133	-0.851293
O	0.2500000000000000 0.2500000000000000 0.7655722605799901	-0.850677
Cu	0.2500000000000000 0.2500000000000000 0.1300039506765632	0.767426
Cu	0.7500000000000000 0.7500000000000000 0.3732299978145555	0.767140
Cu	0.7500000000000000 0.7500000000000000 0.8732299338145497	0.767142
Cu	0.2500000000000000 0.2500000000000000 0.6300039986765671	0.767427
V	0.2500000000000000 0.2500000000000000 0.3707209621378902	2.287795
V	0.7500000000000000 0.7500000000000000 0.1140018615978441	2.287549
V	0.7500000000000000 0.7500000000000000 0.6140018775978381	2.287549
V	0.2500000000000000 0.2500000000000000 0.8707209621378899	2.287796
	  	
