#======================================================================

# CRYSTAL DATA

#----------------------------------------------------------------------

data_VESTA_phase_1


_pd_phase_name                         VOFFIVE_5_Co_i
_cell_length_a                         19.62475
_cell_length_b                         19.62475
_cell_length_c                         15.63494
_cell_angle_alpha                      90
_cell_angle_beta                       90
_cell_angle_gamma                      90
_symmetry_space_group_name_H-M         P 1
_symmetry_Int_Tables_number            1

loop_
_symmetry_equiv_pos_as_xyz
   x, y, z

loop_
   _atom_site_label
   _atom_site_fract_x
   _atom_site_fract_y
   _atom_site_fract_z
   _atom_site_charge
F	0.3223252653921866 0.1886261497821086 0.3498679875618734	-0.594046
F	0.1776747226078124 0.3113738622178853 0.3498679875618734	-0.594044
F	0.3113738622178853 0.3223252653921866 0.3498679875618734	-0.594045
F	0.1886261497821086 0.1776747226078124 0.3498679875618734	-0.594046
F	0.6781923626900449 0.6883774246400077 0.1466638751652762	-0.590592
F	0.8218076373099551 0.8116225753599923 0.1466638751652762	-0.590592
F	0.6883774246400077 0.8218076373099551 0.1466638751652762	-0.590592
F	0.8116225753599923 0.6781923626900449 0.1466638751652762	-0.590592
F	0.6781923626900449 0.8116225753599923 0.6466638901652744	-0.590591
F	0.8218076373099551 0.6883774246400077 0.6466638901652744	-0.590592
F	0.6883774246400077 0.6781923626900449 0.6466638901652744	-0.590592
F	0.8116225753599923 0.8218076373099551 0.6466638901652744	-0.590591
F	0.3223252653921866 0.3113738622178853 0.8498679565618743	-0.594045
F	0.1776747226078124 0.1886261497821086 0.8498679565618743	-0.594046
F	0.3113738622178853 0.1776747226078124 0.8498679565618743	-0.594046
F	0.1886261497821086 0.3223252653921866 0.8498679565618743	-0.594045
F	0.2500000000000000 0.2500000000000000 0.2356731174525918	-0.620330
F	0.7500000000000000 0.7500000000000000 0.0313015867166231	-0.623581
F	0.7500000000000000 0.7500000000000000 0.5313015827166223	-0.623582
F	0.2500000000000000 0.2500000000000000 0.7356731634525883	-0.620329
O	0.2500000000000000 0.2500000000000000 0.4658343238940149	-0.820130
O	0.7500000000000000 0.7500000000000000 0.2638569052502314	-0.823354
O	0.7500000000000000 0.7500000000000000 0.7638568742502322	-0.823353
O	0.2500000000000000 0.2500000000000000 0.9658343238940073	-0.820131
N	0.3510170080463977 0.2482231537356837 0.6007596410805119	-0.186082
N	0.1489829679536072 0.2517768702643183 0.6007596410805119	-0.186082
N	0.2517768702643183 0.3510170080463977 0.6007596410805119	-0.186082
N	0.2482231537356837 0.1489829679536072 0.6007596410805119	-0.186082
N	0.6500042454886809 0.7470838210161491 0.8977246045701256	-0.185469
N	0.8499957065113223 0.7529161789838509 0.8977246045701256	-0.185469
N	0.7470838210161491 0.8499957065113223 0.8977246045701256	-0.185469
N	0.7529161789838509 0.6500042454886809 0.8977246045701256	-0.185470
N	0.6500042454886809 0.7529161789838509 0.3977246045701257	-0.185471
N	0.8499957065113223 0.7470838210161491 0.3977246045701257	-0.185471
N	0.7470838210161491 0.6500042454886809 0.3977246045701257	-0.185471
N	0.7529161789838509 0.8499957065113223 0.3977246045701257	-0.185471
N	0.3510170080463977 0.2517768702643183 0.1007596490805124	-0.186083
N	0.1489829679536072 0.2482231537356837 0.1007596490805124	-0.186083
N	0.2517768702643183 0.1489829679536072 0.1007596490805124	-0.186084
N	0.2482231537356837 0.3510170080463977 0.1007596490805124	-0.186083
C	0.3843331613917101 0.2186171111803024 0.6665612213292296	0.096517
C	0.4549653312009150 0.2168562697442938 0.6704062873371146	-0.176582
C	0.4938282881784158 0.2472761474857969 0.6054922037679321	0.103914
C	0.4581581292501866 0.2778804994584338 0.5378229927358035	-0.179362
C	0.3874959796040591 0.2771516073180540 0.5371742771319906	0.096364
C	0.5687560466909547 0.2478296965413630 0.6086589154483654	0.055959
C	0.6052908903029791 0.1908315534073426 0.6380134175460132	-0.132391
C	0.6760681460009328 0.1915950971548951 0.6403737857167604	-0.124779
C	0.7125606186659685 0.2497858498676432 0.6151054117799069	0.067848
C	0.6760526453319433 0.3070772391868117 0.5869475327978032	-0.118877
C	0.6053382437151138 0.3058696953579816 0.5828912300978826	-0.126809
C	0.1156668506082909 0.2813828648196955 0.6665612213292296	0.096517
C	0.0450346837990828 0.2831437542557010 0.6704062873371146	-0.176581
C	0.0061717198215848 0.2527238525142032 0.6054922037679321	0.103915
C	0.0418418917498115 0.2221195005415661 0.5378229927358035	-0.179364
C	0.1125040443959501 0.2228483926819459 0.5371742771319906	0.096365
C	0.9312439053090484 0.2521703274586249 0.6086589154483654	0.055959
C	0.8947090616970240 0.3091684465926574 0.6380134175460132	-0.132393
C	0.8239318539990672 0.3084049148451060 0.6403737857167604	-0.124781
C	0.7874393813340315 0.2502141741323519 0.6151054117799069	0.067851
C	0.8239473546680567 0.1929227728131893 0.5869475327978032	-0.118878
C	0.8946617562848862 0.1941302806420165 0.5828912300978826	-0.126809
C	0.2813828648196955 0.3843331613917101 0.6665612213292296	0.096517
C	0.2831437542557010 0.4549653312009150 0.6704062873371146	-0.176581
C	0.2527238525142032 0.4938282881784158 0.6054922037679321	0.103915
C	0.2221195005415661 0.4581581292501866 0.5378229927358035	-0.179363
C	0.2228483926819459 0.3874959796040591 0.5371742771319906	0.096364
C	0.2521703274586249 0.5687560466909547 0.6086589154483654	0.055959
C	0.3091684465926574 0.6052908903029791 0.6380134175460132	-0.132391
C	0.3084049148451060 0.6760681460009328 0.6403737857167604	-0.124779
C	0.2502141741323519 0.7125606186659685 0.6151054117799069	0.067849
C	0.1929227728131893 0.6760526453319433 0.5869475327978032	-0.118878
C	0.1941302806420165 0.6053382437151138 0.5828912300978826	-0.126809
C	0.2186171111803024 0.1156668506082909 0.6665612213292296	0.096518
C	0.2168562697442938 0.0450346837990828 0.6704062873371146	-0.176582
C	0.2472761474857969 0.0061717198215848 0.6054922037679321	0.103915
C	0.2778804994584338 0.0418418917498115 0.5378229927358035	-0.179363
C	0.2771516073180540 0.1125040443959501 0.5371742771319906	0.096366
C	0.2478296965413630 0.9312439053090484 0.6086589154483654	0.055958
C	0.1908315534073426 0.8947090616970240 0.6380134175460132	-0.132393
C	0.1915950971548951 0.8239318539990672 0.6403737857167604	-0.124781
C	0.2497858498676432 0.7874393813340315 0.6151054117799069	0.067850
C	0.3070772391868117 0.8239473546680567 0.5869475327978032	-0.118878
C	0.3058696953579816 0.8946617562848862 0.5828912300978826	-0.126810
C	0.6157527763128253 0.7173189130324120 0.8328231636095463	0.095643
C	0.5451486978406800 0.7161058887634685 0.8298212782471158	-0.175610
C	0.5069718102815405 0.7470579755510121 0.8950112863704113	0.102251
C	0.5435773350230030 0.7772922437067403 0.9621985998874398	-0.177126
C	0.6143351449389464 0.7760973823799198 0.9620354813279249	0.094147
C	0.4318805160570545 0.7479061038150655 0.8921137460565067	0.054253
C	0.3952158813054482 0.6910379981417740 0.8625688999629183	-0.130472
C	0.3244032992793184 0.6917205279176526 0.8598672202758618	-0.124934
C	0.2875763111682915 0.7498202410200066 0.8850670911937639	0.068276
C	0.3243009114034348 0.8070983814614857 0.9132987152422559	-0.120374
C	0.3950976873362952 0.8058437896237638 0.9176290412000263	-0.127136
C	0.8842471766871743 0.7826810869675880 0.8328231636095463	0.095642
C	0.9548513021593200 0.7838941112365315 0.8298212782471158	-0.175608
C	0.9930281897184595 0.7529420244489879 0.8950112863704113	0.102251
C	0.9564226649769970 0.7227077562932597 0.9621985998874398	-0.177128
C	0.8856648550610536 0.7239026176200802 0.9620354813279249	0.094147
C	0.0681194839429455 0.7520938961849345 0.8921137460565067	0.054246
C	0.1047840946945570 0.8089620498582228 0.8625688999629183	-0.130446
C	0.1755967007206819 0.8082795200823514 0.8598672202758618	-0.124924
C	0.2124236888317086 0.7501797589799934 0.8850670911937639	0.068223
C	0.1756991125965673 0.6929016665385183 0.9132987152422559	-0.120363
C	0.1049023126637049 0.6941562583762331 0.9176290412000263	-0.127137
C	0.7173189130324120 0.8842471766871743 0.8328231636095463	0.095642
C	0.7161058887634685 0.9548513021593200 0.8298212782471158	-0.175609
C	0.7470579755510121 0.9930281897184595 0.8950112863704113	0.102251
C	0.7772922437067403 0.9564226649769970 0.9621985998874398	-0.177126
C	0.7760973823799198 0.8856648550610536 0.9620354813279249	0.094147
C	0.7479061038150655 0.0681194839429455 0.8921137460565067	0.054254
C	0.6910379981417740 0.1047840946945570 0.8625688999629183	-0.130471
C	0.6917205279176526 0.1755967007206819 0.8598672202758618	-0.124934
C	0.7498202410200066 0.2124236888317086 0.8850670911937639	0.068276
C	0.8070983814614857 0.1756991125965673 0.9132987152422559	-0.120374
C	0.8058437896237638 0.1049023126637049 0.9176290412000263	-0.127135
C	0.7826810869675880 0.6157527763128253 0.8328231636095463	0.095643
C	0.7838941112365315 0.5451486978406800 0.8298212782471158	-0.175608
C	0.7529420244489879 0.5069718102815405 0.8950112863704113	0.102252
C	0.7227077562932597 0.5435773350230030 0.9621985998874398	-0.177127
C	0.7239026176200802 0.6143351449389464 0.9620354813279249	0.094147
C	0.7520938961849345 0.4318805160570545 0.8921137460565067	0.054245
C	0.8089620498582228 0.3952158813054482 0.8625688999629183	-0.130447
C	0.8082795200823514 0.3244032992793184 0.8598672202758618	-0.124924
C	0.7501797589799934 0.2875763111682915 0.8850670911937639	0.068223
C	0.6929016665385183 0.3243009114034348 0.9132987152422559	-0.120363
C	0.6941562583762331 0.3950976873362952 0.9176290412000263	-0.127138
C	0.6157527763128253 0.7826810869675880 0.3328231956095492	0.095642
C	0.5451486978406800 0.7838941112365315 0.3298212472471169	-0.175609
C	0.5069718102815405 0.7529420244489879 0.3950113483704095	0.102252
C	0.5435773350230030 0.7227077562932597 0.4621985688874411	-0.177128
C	0.6143351449389464 0.7239026176200802 0.4620354813279253	0.094147
C	0.4318805160570545 0.7520938961849345 0.3921137770565056	0.054245
C	0.3952158813054482 0.8089620498582228 0.3625689629629203	-0.130447
C	0.3244032992793184 0.8082795200823514 0.3598672202758618	-0.124924
C	0.2875763111682915 0.7501797589799934 0.3850670911937640	0.068222
C	0.3243009114034348 0.6929016665385183 0.4132987152422559	-0.120362
C	0.3950976873362952 0.6941562583762331 0.4176290722000323	-0.127138
C	0.8842471766871743 0.7173189130324120 0.3328231956095492	0.095642
C	0.9548513021593200 0.7161058887634685 0.3298212472471169	-0.175610
C	0.9930281897184595 0.7470579755510121 0.3950113483704095	0.102250
C	0.9564226649769970 0.7772922437067403 0.4621985688874411	-0.177126
C	0.8856648550610536 0.7760973823799198 0.4620354813279253	0.094146
C	0.0681194839429455 0.7479061038150655 0.3921137770565056	0.054254
C	0.1047840946945570 0.6910379981417740 0.3625689629629203	-0.130471
C	0.1755967007206819 0.6917205279176526 0.3598672202758618	-0.124933
C	0.2124236888317086 0.7498202410200066 0.3850670911937640	0.068277
C	0.1756991125965673 0.8070983814614857 0.4132987152422559	-0.120372
C	0.1049023126637049 0.8058437896237638 0.4176290722000323	-0.127135
C	0.7173189130324120 0.6157527763128253 0.3328231956095492	0.095643
C	0.7161058887634685 0.5451486978406800 0.3298212472471169	-0.175610
C	0.7470579755510121 0.5069718102815405 0.3950113483704095	0.102250
C	0.7772922437067403 0.5435773350230030 0.4621985688874411	-0.177127
C	0.7760973823799198 0.6143351449389464 0.4620354813279253	0.094148
C	0.7479061038150655 0.4318805160570545 0.3921137770565056	0.054254
C	0.6910379981417740 0.3952158813054482 0.3625689629629203	-0.130473
C	0.6917205279176526 0.3244032992793184 0.3598672202758618	-0.124934
C	0.7498202410200066 0.2875763111682915 0.3850670911937640	0.068275
C	0.8070983814614857 0.3243009114034348 0.4132987152422559	-0.120373
C	0.8058437896237638 0.3950976873362952 0.4176290722000323	-0.127136
C	0.7826810869675880 0.8842471766871743 0.3328231956095492	0.095642
C	0.7838941112365315 0.9548513021593200 0.3298212472471169	-0.175609
C	0.7529420244489879 0.9930281897184595 0.3950113483704095	0.102251
C	0.7227077562932597 0.9564226649769970 0.4621985688874411	-0.177127
C	0.7239026176200802 0.8856648550610536 0.4620354813279253	0.094146
C	0.7520938961849345 0.0681194839429455 0.3921137770565056	0.054246
C	0.8089620498582228 0.1047840946945570 0.3625689629629203	-0.130446
C	0.8082795200823514 0.1755967007206819 0.3598672202758618	-0.124923
C	0.7501797589799934 0.2124236888317086 0.3850670911937640	0.068224
C	0.6929016665385183 0.1756991125965673 0.4132987152422559	-0.120361
C	0.6941562583762331 0.1049023126637049 0.4176290722000323	-0.127137
C	0.3843331613917101 0.2813828648196955 0.1665612213292290	0.096516
C	0.4549653312009150 0.2831437542557010 0.1704063183371137	-0.176581
C	0.4938282881784158 0.2527238525142032 0.1054921497679346	0.103914
C	0.4581581292501866 0.2221195005415661 0.0378230167358056	-0.179364
C	0.3874959796040591 0.2228483926819459 0.0371743001319886	0.096364
C	0.5687560466909547 0.2521703274586249 0.1086588844483663	0.055959
C	0.6052908903029791 0.3091684465926574 0.1380133705460126	-0.132392
C	0.6760681460009328 0.3084049148451060 0.1403738017167620	-0.124779
C	0.7125606186659685 0.2502141741323519 0.1151054197799077	0.067847
C	0.6760526453319433 0.1929227728131893 0.0869475557978014	-0.118878
C	0.6053382437151138 0.1941302806420165 0.0828912060978803	-0.126811
C	0.1156668506082909 0.2186171111803024 0.1665612213292290	0.096517
C	0.0450346837990828 0.2168562697442938 0.1704063183371137	-0.176583
C	0.0061717198215848 0.2472761474857969 0.1054921497679346	0.103915
C	0.0418418917498115 0.2778804994584338 0.0378230167358056	-0.179363
C	0.1125040443959501 0.2771516073180540 0.0371743001319886	0.096365
C	0.9312439053090484 0.2478296965413630 0.1086588844483663	0.055958
C	0.8947090616970240 0.1908315534073426 0.1380133705460126	-0.132393
C	0.8239318539990672 0.1915950971548951 0.1403738017167620	-0.124780
C	0.7874393813340315 0.2497858498676432 0.1151054197799077	0.067850
C	0.8239473546680567 0.3070772391868117 0.0869475557978014	-0.118878
C	0.8946617562848862 0.3058696953579816 0.0828912060978803	-0.126812
C	0.2813828648196955 0.1156668506082909 0.1665612213292290	0.096518
C	0.2831437542557010 0.0450346837990828 0.1704063183371137	-0.176582
C	0.2527238525142032 0.0061717198215848 0.1054921497679346	0.103915
C	0.2221195005415661 0.0418418917498115 0.0378230167358056	-0.179364
C	0.2228483926819459 0.1125040443959501 0.0371743001319886	0.096365
C	0.2521703274586249 0.9312439053090484 0.1086588844483663	0.055958
C	0.3091684465926574 0.8947090616970240 0.1380133705460126	-0.132393
C	0.3084049148451060 0.8239318539990672 0.1403738017167620	-0.124779
C	0.2502141741323519 0.7874393813340315 0.1151054197799077	0.067848
C	0.1929227728131893 0.8239473546680567 0.0869475557978014	-0.118878
C	0.1941302806420165 0.8946617562848862 0.0828912060978803	-0.126811
C	0.2186171111803024 0.3843331613917101 0.1665612213292290	0.096516
C	0.2168562697442938 0.4549653312009150 0.1704063183371137	-0.176582
C	0.2472761474857969 0.4938282881784158 0.1054921497679346	0.103915
C	0.2778804994584338 0.4581581292501866 0.0378230167358056	-0.179362
C	0.2771516073180540 0.3874959796040591 0.0371743001319886	0.096365
C	0.2478296965413630 0.5687560466909547 0.1086588844483663	0.055959
C	0.1908315534073426 0.6052908903029791 0.1380133705460126	-0.132392
C	0.1915950971548951 0.6760681460009328 0.1403738017167620	-0.124779
C	0.2497858498676432 0.7125606186659685 0.1151054197799077	0.067850
C	0.3070772391868117 0.6760526453319433 0.0869475557978014	-0.118879
C	0.3058696953579816 0.6053382437151138 0.0828912060978803	-0.126811
H	0.3529551892775252 0.1976622728378565 0.7177680760713676	0.111609
H	0.4793551126351572 0.1934847570775332 0.7257438392004500	0.116223
H	0.4851536210599713 0.3011399890947888 0.4843500822349747	0.116296
H	0.3586553800667711 0.2992562571037476 0.4843878461701633	0.106843
H	0.5776934469136108 0.1451356456485971 0.6575773513136346	0.100477
H	0.7038285638572795 0.1470853582677632 0.6633161327070681	0.101317
H	0.7037251171625887 0.3521269228392229 0.5655056715987437	0.102356
H	0.5778521869581399 0.3507710155815996 0.5605420084507120	0.103260
H	0.1470448227224758 0.3023377271621434 0.7177680760713676	0.111610
H	0.0206449173648453 0.3065152189224647 0.7257438392004500	0.116222
H	0.0148463819400253 0.1988600109052114 0.4843500822349747	0.116297
H	0.1413446079332279 0.2007437428962525 0.4843878461701633	0.106844
H	0.9223065050863923 0.3548643663514039 0.6575773513136346	0.100477
H	0.7961714361427205 0.3529146297322358 0.6633161327070681	0.101316
H	0.7962748828374113 0.1478730771607772 0.5655056715987437	0.102353
H	0.9221478130418601 0.1492289844184004 0.5605420084507120	0.103259
H	0.3023377271621434 0.3529551892775252 0.7177680760713676	0.111609
H	0.3065152189224647 0.4793551126351572 0.7257438392004500	0.116222
H	0.1988600109052114 0.4851536210599713 0.4843500822349747	0.116296
H	0.2007437428962525 0.3586553800667711 0.4843878461701633	0.106843
H	0.3548643663514039 0.5776934469136108 0.6575773513136346	0.100477
H	0.3529146297322358 0.7038285638572795 0.6633161327070681	0.101318
H	0.1478730771607772 0.7037251171625887 0.5655056715987437	0.102355
H	0.1492289844184004 0.5778521869581399 0.5605420084507120	0.103259
H	0.1976622728378565 0.1470448227224758 0.7177680760713676	0.111610
H	0.1934847570775332 0.0206449173648453 0.7257438392004500	0.116223
H	0.3011399890947888 0.0148463819400253 0.4843500822349747	0.116296
H	0.2992562571037476 0.1413446079332279 0.4843878461701633	0.106843
H	0.1451356456485971 0.9223065050863923 0.6575773513136346	0.100477
H	0.1470853582677632 0.7961714361427205 0.6633161327070681	0.101316
H	0.3521269228392229 0.7962748828374113 0.5655056715987437	0.102354
H	0.3507710155815996 0.9221478130418601 0.5605420084507120	0.103260
H	0.6462741098578346 0.6954753820261877 0.7814139932614317	0.106381
H	0.5202809975809672 0.6928205677497922 0.7748813332426258	0.115637
H	0.5172014288771182 0.8007332457218118 0.0159823700353251	0.116462
H	0.6440872501140680 0.7974292968989276 0.0145524570335982	0.112615
H	0.4228815686895184 0.6453984568248364 0.8430478197028364	0.099838
H	0.2970534700978441 0.6470075304327081 0.8366228308639302	0.101577
H	0.2968778653513972 0.8523570151881146 0.9346351911379216	0.102996
H	0.4225465138767503 0.8507425975677003 0.9400071524289547	0.103575
H	0.8537259371421657 0.8045246659738162 0.7814139932614317	0.106381
H	0.9797190024190328 0.8071794322502078 0.7748813332426258	0.115637
H	0.9827985241228815 0.6992667542781882 0.0159823700353251	0.116461
H	0.8559127018859352 0.7025707031010724 0.0145524570335982	0.112614
H	0.0771184553104764 0.8546015431751636 0.8430478197028364	0.099835
H	0.2029465299021557 0.8529924695672919 0.8366228308639302	0.101583
H	0.2031221346486029 0.6476429368118815 0.9346351911379216	0.102994
H	0.0774534981232506 0.6492573544322957 0.9400071524289547	0.103576
H	0.6954753820261877 0.8537259371421657 0.7814139932614317	0.106381
H	0.6928205677497922 0.9797190024190328 0.7748813332426258	0.115637
H	0.8007332457218118 0.9827985241228815 0.0159823700353251	0.116461
H	0.7974292968989276 0.8559127018859352 0.0145524570335982	0.112614
H	0.6453984568248364 0.0771184553104764 0.8430478197028364	0.099838
H	0.6470075304327081 0.2029465299021557 0.8366228308639302	0.101577
H	0.8523570151881146 0.2031221346486029 0.9346351911379216	0.102997
H	0.8507425975677003 0.0774534981232506 0.9400071524289547	0.103576
H	0.8045246659738162 0.6462741098578346 0.7814139932614317	0.106381
H	0.8071794322502078 0.5202809975809672 0.7748813332426258	0.115637
H	0.6992667542781882 0.5172014288771182 0.0159823700353251	0.116462
H	0.7025707031010724 0.6440872501140680 0.0145524570335982	0.112615
H	0.8546015431751636 0.4228815686895184 0.8430478197028364	0.099835
H	0.8529924695672919 0.2970534700978441 0.8366228308639302	0.101583
H	0.6476429368118815 0.2968778653513972 0.9346351911379216	0.102994
H	0.6492573544322957 0.4225465138767503 0.9400071524289547	0.103576
H	0.6462741098578346 0.8045246659738162 0.2814139622614327	0.106381
H	0.5202809975809672 0.8071794322502078 0.2748813332426261	0.115639
H	0.5172014288771182 0.6992667542781882 0.5159823890353301	0.116463
H	0.6440872501140680 0.7025707031010724 0.5145524280335992	0.112615
H	0.4228815686895184 0.8546015431751636 0.3430478197028359	0.099835
H	0.2970534700978441 0.8529924695672919 0.3366228618639364	0.101584
H	0.2968778653513972 0.6476429368118815 0.4346351911379219	0.102994
H	0.4225465138767503 0.6492573544322957 0.4400072144289525	0.103576
H	0.8537259371421657 0.6954753820261877 0.2814139622614327	0.106381
H	0.9797190024190328 0.6928205677497922 0.2748813332426261	0.115640
H	0.9827985241228815 0.8007332457218118 0.5159823890353301	0.116462
H	0.8559127018859352 0.7974292968989276 0.5145524280335992	0.112615
H	0.0771184553104764 0.6453984568248364 0.3430478197028359	0.099839
H	0.2029465299021557 0.6470075304327081 0.3366228618639364	0.101576
H	0.2031221346486029 0.8523570151881146 0.4346351911379219	0.102996
H	0.0774534981232506 0.8507425975677003 0.4400072144289525	0.103576
H	0.6954753820261877 0.6462741098578346 0.2814139622614327	0.106381
H	0.6928205677497922 0.5202809975809672 0.2748813332426261	0.115640
H	0.8007332457218118 0.5172014288771182 0.5159823890353301	0.116463
H	0.7974292968989276 0.6440872501140680 0.5145524280335992	0.112615
H	0.6453984568248364 0.4228815686895184 0.3430478197028359	0.099839
H	0.6470075304327081 0.2970534700978441 0.3366228618639364	0.101577
H	0.8523570151881146 0.2968778653513972 0.4346351911379219	0.102996
H	0.8507425975677003 0.4225465138767503 0.4400072144289525	0.103577
H	0.8045246659738162 0.8537259371421657 0.2814139622614327	0.106381
H	0.8071794322502078 0.9797190024190328 0.2748813332426261	0.115639
H	0.6992667542781882 0.9827985241228815 0.5159823890353301	0.116463
H	0.7025707031010724 0.8559127018859352 0.5145524280335992	0.112615
H	0.8546015431751636 0.0771184553104764 0.3430478197028359	0.099836
H	0.8529924695672919 0.2029465299021557 0.3366228618639364	0.101583
H	0.6476429368118815 0.2031221346486029 0.4346351911379219	0.102994
H	0.6492573544322957 0.0774534981232506 0.4400072144289525	0.103576
H	0.3529551892775252 0.3023377271621434 0.2177681070713667	0.111610
H	0.4793551126351572 0.3065152189224647 0.2257438242004522	0.116224
H	0.4851536210599713 0.1988600109052114 0.9843500512349688	0.116297
H	0.3586553800667711 0.2007437428962525 0.9843878461701631	0.106843
H	0.5776934469136108 0.3548643663514039 0.1575773513136347	0.100477
H	0.7038285638572795 0.3529146297322358 0.1633161167070664	0.101317
H	0.7037251171625887 0.1478730771607772 0.0655056795987443	0.102354
H	0.5778521869581399 0.1492289844184004 0.0605419614507117	0.103261
H	0.1470448227224758 0.1976622728378565 0.2177681070713667	0.111610
H	0.0206449173648453 0.1934847570775332 0.2257438242004522	0.116224
H	0.0148463819400253 0.3011399890947888 0.9843500512349688	0.116298
H	0.1413446079332279 0.2992562571037476 0.9843878461701631	0.106844
H	0.9223065050863923 0.1451356456485971 0.1575773513136347	0.100476
H	0.7961714361427205 0.1470853582677632 0.1633161167070664	0.101315
H	0.7962748828374113 0.3521269228392229 0.0655056795987443	0.102353
H	0.9221478130418601 0.3507710155815996 0.0605419614507117	0.103260
H	0.3023377271621434 0.1470448227224758 0.2177681070713667	0.111610
H	0.3065152189224647 0.0206449173648453 0.2257438242004522	0.116224
H	0.1988600109052114 0.0148463819400253 0.9843500512349688	0.116298
H	0.2007437428962525 0.1413446079332279 0.9843878461701631	0.106844
H	0.3548643663514039 0.9223065050863923 0.1575773513136347	0.100477
H	0.3529146297322358 0.7961714361427205 0.1633161167070664	0.101316
H	0.1478730771607772 0.7962748828374113 0.0655056795987443	0.102354
H	0.1492289844184004 0.9221478130418601 0.0605419614507117	0.103260
H	0.1976622728378565 0.3529551892775252 0.2177681070713667	0.111610
H	0.1934847570775332 0.4793551126351572 0.2257438242004522	0.116224
H	0.3011399890947888 0.4851536210599713 0.9843500512349688	0.116297
H	0.2992562571037476 0.3586553800667711 0.9843878461701631	0.106843
H	0.1451356456485971 0.5776934469136108 0.1575773513136347	0.100476
H	0.1470853582677632 0.7038285638572795 0.1633161167070664	0.101316
H	0.3521269228392229 0.7037251171625887 0.0655056795987443	0.102354
H	0.3507710155815996 0.5778521869581399 0.0605419614507117	0.103261
Co	0.2500000000000000 0.2500000000000000 0.5985749460714778	0.621194
Co	0.7500000000000000 0.7500000000000000 0.8968507307348380	0.626396
Co	0.7500000000000000 0.7500000000000000 0.3968507307348387	0.626400
Co	0.2500000000000000 0.2500000000000000 0.0985749540714787	0.621197
V	0.2500000000000000 0.2500000000000000 0.3607157392169252	2.257745
V	0.7500000000000000 0.7500000000000000 0.1582644610868267	2.254121
V	0.7500000000000000 0.7500000000000000 0.6582644610868269	2.254121
V	0.2500000000000000 0.2500000000000000 0.8607157702169239	2.257745
	  	
