#======================================================================

# CRYSTAL DATA

#----------------------------------------------------------------------

data_VESTA_phase_1


_pd_phase_name                         VOFFIVE_14_Cu_i
_cell_length_a                         13.12715
_cell_length_b                         13.11372
_cell_length_c                         8.06676
_cell_angle_alpha                      87.76147
_cell_angle_beta                       87.67834
_cell_angle_gamma                      88.82039
_symmetry_space_group_name_H-M         P 1
_symmetry_Int_Tables_number            1

loop_
_symmetry_equiv_pos_as_xyz
   x, y, z

loop_
   _atom_site_label
   _atom_site_fract_x
   _atom_site_fract_y
   _atom_site_fract_z
   _atom_site_charge
C	0.5677941045209275 0.2679856134167832 0.3631084022462403	-0.178199
C	0.4619529050223306 0.2719445565090399 0.3698394221562962	0.110624
C	0.9379492271993742 0.2889516634903199 0.4145534166745397	-0.168335
C	0.0436003515284414 0.2820833466457167 0.4023058465393032	0.113349
C	0.2660334005147358 0.5675023199196290 0.3648114072817151	-0.179437
C	0.2698231002855023 0.4615443143244730 0.3717500145631818	0.111709
C	0.2964883339953671 0.9376948569776334 0.4094205185043807	-0.167980
C	0.2886198116304909 0.0434104853090513 0.3983747028269418	0.111976
C	0.9344008300881447 0.2341187941772698 0.1325113001697589	-0.177328
C	0.0402825403092955 0.2312800438296379 0.1290446359355370	0.109072
C	0.5601464682828587 0.2080447835500972 0.0845549792080890	-0.164066
C	0.4545511728723143 0.2161851161783530 0.0998428725451024	0.111949
C	0.2092101943489790 0.5596230680368354 0.0845846676800011	-0.168399
C	0.2173705293579948 0.4540008145991898 0.0999718126293018	0.111521
C	0.2312692784111996 0.9340262754320667 0.1339759424538781	-0.176217
C	0.2281296197577092 0.0400313753976185 0.1310389531503084	0.109865
C	0.4343225455038685 0.7351897569617470 0.6327390895896218	-0.174912
C	0.5401471896363471 0.7331452114461208 0.6288410440247091	0.109844
C	0.0594719991992459 0.7272809118160075 0.5744756281793043	-0.159347
C	0.9538185465545806 0.7309757937857662 0.5929728352891003	0.111775
C	0.7360802450793481 0.4344050647151859 0.6324411659543783	-0.175009
C	0.7343202675537908 0.5403399682834956 0.6285846431886807	0.111131
C	0.7150506883636476 0.0595569724691768 0.5796083063719976	-0.161635
C	0.7205619768319452 0.9538012034867114 0.5967111018094071	0.112000
C	0.0677714580667501 0.7614618165434378 0.8657036541125340	-0.177670
C	0.9620236912497893 0.7632914552427457 0.8741155221816278	0.111030
C	0.4379735159618129 0.7796439068182776 0.9202305430169023	-0.159337
C	0.5436937543658678 0.7757849576500665 0.9062546652042186	0.112659
C	0.7802250237894786 0.4380868157475015 0.9199933639309510	-0.162814
C	0.7760411161920986 0.5438849946386834 0.9063896878417289	0.113128
C	0.7662617551204712 0.0676701403464921 0.8630958664571885	-0.177274
C	0.7693681956861749 0.9618211080785865 0.8705036168034598	0.110492
C	0.6181484589368715 0.2356153035298882 0.2169346954259380	0.189072
C	0.8819112947619923 0.2630064738287310 0.2789264750564051	0.192254
C	0.2353083236030814 0.6177264553123192 0.2178100199909035	0.191230
C	0.2656989146754382 0.8816065748476328 0.2767598414989192	0.190040
C	0.3819187987015805 0.7584954448233001 0.7822679754572073	0.188577
C	0.1177322546726090 0.7432679601446788 0.7121286907422674	0.189723
C	0.7590530768658509 0.3820057947518653 0.7819080364938414	0.189497
C	0.7389159519921247 0.1177785054650989 0.7138522479539278	0.189687
H	0.6105599264088672 0.2853172574406571 0.4709009424352220	0.108677
H	0.4196538099590538 0.2938428814600961 0.4824918743989161	0.102457
H	0.8992816394843092 0.3137394707560832 0.5279786759080040	0.125405
H	0.0897633717219783 0.3003916812133351 0.5060948918160683	0.105412
H	0.2821998440713543 0.6106785052009953 0.4728137293517667	0.111042
H	0.2902450357289006 0.4192267035273006 0.4850363979781451	0.101655
H	0.3256105144769733 0.8988991106883116 0.5196853532523829	0.124822
H	0.3099935949051545 0.0895482518268324 0.5005756834359874	0.107000
H	0.8935388448151987 0.2183867193339083 0.0218281400396933	0.112452
H	0.0844867353670628 0.2124969077159074 0.0165822235553430	0.109283
H	0.5969538761891663 0.1808719505691231 0.9710136739899334	0.125875
H	0.4064898372668640 0.1972584721704183 0.9986707978651114	0.112751
H	0.1835280843381022 0.5963352442872645 0.9701001954167235	0.126657
H	0.1997372465554088 0.4058208389842218 0.9981319703381144	0.112919
H	0.2115593227179181 0.8929902309315467 0.0254589586340729	0.114435
H	0.2055037878477099 0.0842629320562353 0.0207938037478281	0.109225
H	0.3938434360523004 0.7216843325012831 0.5206816239652182	0.108155
H	0.5844601035154114 0.7169956991902894 0.5153500480496263	0.109736
H	0.0957680632328299 0.7124565930792841 0.4541426883806443	0.124771
H	0.9055764651694075 0.7193305159063080 0.4889714468279440	0.111536
H	0.7231641556073207 0.3936306390804242 0.5203661410865416	0.108860
H	0.7187630547536882 0.5846817688064830 0.5149610858755813	0.110126
H	0.6925222088839356 0.0961038300437167 0.4631888212841802	0.125646
H	0.7033958967502367 0.9055937446346899 0.4948205423872123	0.111491
H	0.1104763745052066 0.7710723850851109 0.9768511209546908	0.102761
H	0.9197587120681356 0.7757643372255246 0.9909053305713050	0.102230
H	0.3994246603021709 0.7987224777271049 0.0368558922793513	0.123100
H	0.5897443765497897 0.7917427807350048 0.0111587000594468	0.104789
H	0.7994666998560802 0.3994117509042334 0.0363341368700478	0.124321
H	0.7916575615975533 0.5900246506031549 0.0115063921144688	0.103937
H	0.7812667381574052 0.1103973829089053 0.9721944520927247	0.105517
H	0.7887487146670544 0.9195031511681564 0.9843183592822758	0.104160
N	0.7746847384674939 0.2740966712996891 0.2969504713010851	-0.105180
N	0.2778973535520231 0.7742581805874712 0.2928235257142004	-0.106327
N	0.7254071343407174 0.2236262245925086 0.1975201218253208	-0.103479
N	0.2228854460095567 0.7250098760017341 0.1999319955349274	-0.103541
N	0.2249070389431957 0.7364909500644711 0.6860836401887098	-0.100726
N	0.7300457222463299 0.2251033984856584 0.6900583457365267	-0.101233
N	0.2747063776100462 0.7655481092984403 0.8060193586263240	-0.101088
N	0.7669948113342495 0.2747198339955205 0.8040219288880606	-0.103083
N	0.4065874999393579 0.2473615412016882 0.2402944940476262	-0.209887
N	0.0937167051852033 0.2534488501764704 0.2621079409827076	-0.209537
N	0.2468804549131297 0.4060591400182146 0.2414090097833175	-0.210750
N	0.2548523304036734 0.0934671074085604 0.2615934280532193	-0.209013
N	0.5936951898673521 0.7525022325834561 0.7633564123747535	-0.206175
N	0.9061896145652163 0.7486697190353436 0.7402968989934622	-0.206906
N	0.7531613381260136 0.5939210685282398 0.7633836030055853	-0.207604
N	0.7473039159799076 0.9060983833613182 0.7397205656198639	-0.206436
F	0.3489031049748021 0.1452455536153759 0.7578241390141464	-0.583528
F	0.1506410066701992 0.3508599110597045 0.7573709376249564	-0.583122
F	0.3506400046733977 0.3450256963773587 0.7417547150475343	-0.583803
F	0.1491823338217916 0.1515367439785155 0.7767721766412106	-0.582869
F	0.6457050491328155 0.8489861881692242 0.2594667506361632	-0.579685
F	0.8507038953975511 0.6505892698717080 0.2571408782236836	-0.580392
F	0.6518874840957494 0.6498022097803783 0.2719321752348358	-0.579841
F	0.8455727898804282 0.8505999737897888 0.2471731276615711	-0.581054
F	0.2501067732019082 0.2491209837140690 0.9840457077674365	-0.651358
F	0.7480098101949312 0.7486405818093264 0.4843459621936988	-0.647748
O	0.2494023214109982 0.2476770306527744 0.5296712599388521	-0.844354
O	0.7497919686881735 0.7515493125945538 0.0296239415297982	-0.844030
V	0.2498824369846534 0.2480548362590504 0.7345560826710577	2.255983
V	0.7486934800570924 0.7504008515455787 0.2348128450360427	2.251069
Cu	0.2503003209317275 0.2499294831601624 0.2518502121369133	0.732199
Cu	0.7500983443873380 0.7501367446944727 0.7524155745820467	0.728045
	  	
