#======================================================================

# CRYSTAL DATA

#----------------------------------------------------------------------

data_VESTA_phase_1


_pd_phase_name                         VOFFIVE_6_Cd_i
_cell_length_a                         18.21572
_cell_length_b                         18.21572
_cell_length_c                         15.87796
_cell_angle_alpha                      90
_cell_angle_beta                       90
_cell_angle_gamma                      90
_symmetry_space_group_name_H-M         P 1
_symmetry_Int_Tables_number            1

loop_
_symmetry_equiv_pos_as_xyz
   x, y, z

loop_
   _atom_site_label
   _atom_site_fract_x
   _atom_site_fract_y
   _atom_site_fract_z
   _atom_site_charge
N	0.2432185967269906 0.1207322937884293 0.1279577398526800	-0.239933
N	0.2567814032730094 0.3792677192115753 0.1279577398526800	-0.239934
N	0.3792677192115753 0.2432185967269906 0.1279577398526800	-0.239933
N	0.1207322937884293 0.2567814032730094 0.1279577398526800	-0.239933
N	0.7561623585912414 0.6206693529755262 0.3717803084871040	-0.241098
N	0.7438376414087586 0.8793306470244738 0.3717803084871040	-0.241101
N	0.6206693529755262 0.7438376414087586 0.3717803084871040	-0.241099
N	0.8793306470244738 0.7561623585912414 0.3717803084871040	-0.241101
N	0.7561623585912414 0.8793306470244738 0.8717803084871039	-0.241102
N	0.7438376414087586 0.6206693529755262 0.8717803084871039	-0.241099
N	0.6206693529755262 0.7561623585912414 0.8717803084871039	-0.241099
N	0.8793306470244738 0.7438376414087586 0.8717803084871039	-0.241101
N	0.2432185967269906 0.3792677192115753 0.6279577398526798	-0.239934
N	0.2567814032730094 0.1207322937884293 0.6279577398526798	-0.239934
N	0.3792677192115753 0.2567814032730094 0.6279577398526798	-0.239934
N	0.1207322937884293 0.2432185967269906 0.6279577398526798	-0.239934
C	0.2016640744546934 0.0854630390027312 0.1850499212997161	0.102028
C	0.1936438700425648 0.0095913369231217 0.1843557767462710	-0.185679
C	0.2325248275370333 0.9679757395310996 0.1248617866978830	0.111025
C	0.2769151208326390 0.0055483153221800 0.0669510083457681	-0.181537
C	0.2795476248280852 0.0818155201284452 0.0693751786736859	0.104365
C	0.2269161541460193 0.8872914936952975 0.1237968810736313	0.062275
C	0.2897056112967170 0.8445483460022523 0.1210587556019788	-0.173039
C	0.2854517522017191 0.7671409201764580 0.1222002029778177	0.085115
C	0.1508483813663865 0.7776022354064170 0.1246821102018092	-0.125317
C	0.1568562739970129 0.8528409671181899 0.1267857848823063	-0.137916
C	0.2983359385453109 0.4145369409972671 0.1850499212997161	0.102028
C	0.3063561429574398 0.4904086730768722 0.1843557767462710	-0.185679
C	0.2674751724629668 0.5320242604689004 0.1248617866978830	0.111025
C	0.2230848791673608 0.4944516996778178 0.0669510083457681	-0.181536
C	0.2204523751719147 0.4181844728715508 0.0693751786736859	0.104365
C	0.2730838458539806 0.6127085063047025 0.1237968810736313	0.062275
C	0.2102943757032856 0.6554516539977477 0.1210587556019788	-0.173039
C	0.2145482477982809 0.7328590798235420 0.1222002029778177	0.085113
C	0.3491516186336132 0.7223977645935830 0.1246821102018092	-0.125319
C	0.3431437260029871 0.6471590328818101 0.1267857848823063	-0.137917
C	0.4145369409972671 0.2016640744546934 0.1850499212997161	0.102028
C	0.4904086730768722 0.1936438700425648 0.1843557767462710	-0.185678
C	0.5320242604689004 0.2325248275370333 0.1248617866978830	0.111025
C	0.4944516996778178 0.2769151208326390 0.0669510083457681	-0.181536
C	0.4181844728715508 0.2795476248280852 0.0693751786736859	0.104366
C	0.6127085063047025 0.2269161541460193 0.1237968810736313	0.062275
C	0.6554516539977477 0.2897056112967170 0.1210587556019788	-0.173041
C	0.7328590798235420 0.2854517522017191 0.1222002029778177	0.085115
C	0.7223977645935830 0.1508483813663865 0.1246821102018092	-0.125317
C	0.6471590328818101 0.1568562739970129 0.1267857848823063	-0.137917
C	0.0854630390027312 0.2983359385453109 0.1850499212997161	0.102028
C	0.0095913369231217 0.3063561429574398 0.1843557767462710	-0.185678
C	0.9679757395310996 0.2674751724629668 0.1248617866978830	0.111025
C	0.0055483153221800 0.2230848791673608 0.0669510083457681	-0.181535
C	0.0818155201284452 0.2204523751719147 0.0693751786736859	0.104365
C	0.8872914936952975 0.2730838458539806 0.1237968810736313	0.062275
C	0.8445483460022523 0.2102943757032856 0.1210587556019788	-0.173039
C	0.7671409201764580 0.2145482477982809 0.1222002029778177	0.085113
C	0.7776022354064170 0.3491516186336132 0.1246821102018092	-0.125318
C	0.8528409671181899 0.3431437260029871 0.1267857848823063	-0.137917
C	0.7977820244002206 0.5856586725026701 0.3145485446802477	0.104447
C	0.8061522413781959 0.5097839523566594 0.3152809152934801	-0.183483
C	0.7675947559006745 0.4679495028807373 0.3747971260759993	0.110753
C	0.7228921595343458 0.5052833608573074 0.4326739364076206	-0.182748
C	0.7198841941168018 0.5815025411126947 0.4301878729337404	0.103510
C	0.7733040002689421 0.3872678710267644 0.3760455246064086	0.061842
C	0.7104225860338280 0.3445914919097739 0.3789429564266085	-0.173920
C	0.7145901483750549 0.2671922937553136 0.3779184877755166	0.085408
C	0.8492127644550537 0.2774665179901287 0.3754547190922869	-0.125733
C	0.8432970226581168 0.3527370374807451 0.3731997744313005	-0.136945
C	0.7022179755997794 0.9143413274973299 0.3145485446802477	0.104455
C	0.6938477586218041 0.9902160476433406 0.3152809152934801	-0.183511
C	0.7324052440993255 0.0320505191192645 0.3747971260759993	0.110781
C	0.7771078404656542 0.9947166921426934 0.4326739364076206	-0.182779
C	0.7801158058831982 0.9184974588873053 0.4301878729337404	0.103514
C	0.7266959997310579 0.1127321289732355 0.3760455246064086	0.061901
C	0.7895774139661720 0.1554084950902286 0.3789429564266085	-0.173954
C	0.7854098516249451 0.2328077062446864 0.3779184877755166	0.085394
C	0.6507872355449463 0.2225334820098713 0.3754547190922869	-0.125734
C	0.6567029773418832 0.1472629365192527 0.3731997744313005	-0.136960
C	0.5856586725026701 0.7022179755997794 0.3145485446802477	0.104448
C	0.5097839523566594 0.6938477586218041 0.3152809152934801	-0.183482
C	0.4679495028807373 0.7324052440993255 0.3747971260759993	0.110752
C	0.5052833608573074 0.7771078404656542 0.4326739364076206	-0.182747
C	0.5815025411126947 0.7801158058831982 0.4301878729337404	0.103511
C	0.3872678710267644 0.7266959997310579 0.3760455246064086	0.061843
C	0.3445914919097739 0.7895774139661720 0.3789429564266085	-0.173920
C	0.2671922937553136 0.7854098516249451 0.3779184877755166	0.085408
C	0.2774665179901287 0.6507872355449463 0.3754547190922869	-0.125732
C	0.3527370374807451 0.6567029773418832 0.3731997744313005	-0.136945
C	0.9143413274973299 0.7977820244002206 0.3145485446802477	0.104456
C	0.9902160476433406 0.8061522413781959 0.3152809152934801	-0.183511
C	0.0320505191192645 0.7675947559006745 0.3747971260759993	0.110781
C	0.9947166921426934 0.7228921595343458 0.4326739364076206	-0.182778
C	0.9184974588873053 0.7198841941168018 0.4301878729337404	0.103514
C	0.1127321289732355 0.7733040002689421 0.3760455246064086	0.061901
C	0.1554084950902286 0.7104225860338280 0.3789429564266085	-0.173954
C	0.2328077062446864 0.7145901483750549 0.3779184877755166	0.085394
C	0.2225334820098713 0.8492127644550537 0.3754547190922869	-0.125734
C	0.1472629365192527 0.8432970226581168 0.3731997744313005	-0.136961
C	0.7977820244002206 0.9143413274973299 0.8145485126802449	0.104455
C	0.8061522413781959 0.9902160476433406 0.8152809472934758	-0.183510
C	0.7675947559006745 0.0320505191192645 0.8747971260759988	0.110791
C	0.7228921595343458 0.9947166921426934 0.9326739684076158	-0.182781
C	0.7198841941168018 0.9184974588873053 0.9301878409337379	0.103515
C	0.7733040002689421 0.1127321289732355 0.8760454606064101	0.061866
C	0.7104225860338280 0.1554084950902286 0.8789429884266107	-0.173917
C	0.7145901483750549 0.2328077062446864 0.8779184247755213	0.085389
C	0.8492127644550537 0.2225334820098713 0.8754547190922871	-0.125728
C	0.8432970226581168 0.1472629365192527 0.8731997744313005	-0.136967
C	0.7022179755997794 0.5856586725026701 0.8145485126802449	0.104447
C	0.6938477586218041 0.5097839523566594 0.8152809472934758	-0.183481
C	0.7324052440993255 0.4679495028807373 0.8747971260759988	0.110763
C	0.7771078404656542 0.5052833608573074 0.9326739684076158	-0.182750
C	0.7801158058831982 0.5815025411126947 0.9301878409337379	0.103510
C	0.7266959997310579 0.3872678710267644 0.8760454606064101	0.061806
C	0.7895774139661720 0.3445914919097739 0.8789429884266107	-0.173881
C	0.7854098516249451 0.2671922937553136 0.8779184247755213	0.085399
C	0.6507872355449463 0.2774665179901287 0.8754547190922871	-0.125729
C	0.6567029773418832 0.3527370374807451 0.8731997744313005	-0.136951
C	0.5856586725026701 0.7977820244002206 0.8145485126802449	0.104448
C	0.5097839523566594 0.8061522413781959 0.8152809472934758	-0.183481
C	0.4679495028807373 0.7675947559006745 0.8747971260759988	0.110762
C	0.5052833608573074 0.7228921595343458 0.9326739684076158	-0.182749
C	0.5815025411126947 0.7198841941168018 0.9301878409337379	0.103511
C	0.3872678710267644 0.7733040002689421 0.8760454606064101	0.061807
C	0.3445914919097739 0.7104225860338280 0.8789429884266107	-0.173882
C	0.2671922937553136 0.7145901483750549 0.8779184247755213	0.085402
C	0.2774665179901287 0.8492127644550537 0.8754547190922871	-0.125727
C	0.3527370374807451 0.8432970226581168 0.8731997744313005	-0.136952
C	0.9143413274973299 0.7022179755997794 0.8145485126802449	0.104455
C	0.9902160476433406 0.6938477586218041 0.8152809472934758	-0.183509
C	0.0320505191192645 0.7324052440993255 0.8747971260759988	0.110791
C	0.9947166921426934 0.7771078404656542 0.9326739684076158	-0.182781
C	0.9184974588873053 0.7801158058831982 0.9301878409337379	0.103515
C	0.1127321289732355 0.7266959997310579 0.8760454606064101	0.061866
C	0.1554084950902286 0.7895774139661720 0.8789429884266107	-0.173917
C	0.2328077062446864 0.7854098516249451 0.8779184247755213	0.085387
C	0.2225334820098713 0.6507872355449463 0.8754547190922871	-0.125729
C	0.1472629365192527 0.6567029773418832 0.8731997744313005	-0.136967
C	0.2016640744546934 0.4145369409972671 0.6850499212997160	0.102028
C	0.1936438700425648 0.4904086730768722 0.6843557447462755	-0.185678
C	0.2325248275370333 0.5320242604689004 0.6248617786978822	0.111024
C	0.2769151208326390 0.4944516996778178 0.5669509723457725	-0.181536
C	0.2795476248280852 0.4181844728715508 0.5693752106736886	0.104365
C	0.2269161541460193 0.6127085063047025 0.6237969370736290	0.062274
C	0.2897056112967170 0.6554516539977477 0.6210587396019774	-0.173041
C	0.2854517522017191 0.7328590798235420 0.6222002499778178	0.085115
C	0.1508483813663865 0.7223977645935830 0.6246821182018095	-0.125315
C	0.1568562739970129 0.6471590328818101 0.6267857998823112	-0.137918
C	0.2983359385453109 0.0854630390027312 0.6850499212997160	0.102027
C	0.3063561429574398 0.0095913369231217 0.6843557447462755	-0.185679
C	0.2674751724629668 0.9679757395310996 0.6248617786978822	0.111025
C	0.2230848791673608 0.0055483153221800 0.5669509723457725	-0.181536
C	0.2204523751719147 0.0818155201284452 0.5693752106736886	0.104365
C	0.2730838458539806 0.8872914936952975 0.6237969370736290	0.062274
C	0.2102943757032856 0.8445483460022523 0.6210587396019774	-0.173041
C	0.2145482477982809 0.7671409201764580 0.6222002499778178	0.085113
C	0.3491516186336132 0.7776022354064170 0.6246821182018095	-0.125318
C	0.3431437260029871 0.8528409671181899 0.6267857998823112	-0.137917
C	0.4145369409972671 0.2983359385453109 0.6850499212997160	0.102028
C	0.4904086730768722 0.3063561429574398 0.6843557447462755	-0.185679
C	0.5320242604689004 0.2674751724629668 0.6248617786978822	0.111025
C	0.4944516996778178 0.2230848791673608 0.5669509723457725	-0.181535
C	0.4181844728715508 0.2204523751719147 0.5693752106736886	0.104365
C	0.6127085063047025 0.2730838458539806 0.6237969370736290	0.062275
C	0.6554516539977477 0.2102943757032856 0.6210587396019774	-0.173042
C	0.7328590798235420 0.2145482477982809 0.6222002499778178	0.085115
C	0.7223977645935830 0.3491516186336132 0.6246821182018095	-0.125316
C	0.6471590328818101 0.3431437260029871 0.6267857998823112	-0.137918
C	0.0854630390027312 0.2016640744546934 0.6850499212997160	0.102028
C	0.0095913369231217 0.1936438700425648 0.6843557447462755	-0.185678
C	0.9679757395310996 0.2325248275370333 0.6248617786978822	0.111024
C	0.0055483153221800 0.2769151208326390 0.5669509723457725	-0.181535
C	0.0818155201284452 0.2795476248280852 0.5693752106736886	0.104365
C	0.8872914936952975 0.2269161541460193 0.6237969370736290	0.062275
C	0.8445483460022523 0.2897056112967170 0.6210587396019774	-0.173041
C	0.7671409201764580 0.2854517522017191 0.6222002499778178	0.085113
C	0.7776022354064170 0.1508483813663865 0.6246821182018095	-0.125317
C	0.8528409671181899 0.1568562739970129 0.6267857998823112	-0.137917
H	0.1752002435505616 0.1195885795695487 0.2327578161049149	0.102019
H	0.1591553435230112 0.9826907749930579 0.2312282102052475	0.113903
H	0.3073970895586307 0.9755140671329827 0.0190300310624985	0.113917
H	0.3102181074763998 0.1135880767821387 0.0227656234377722	0.105079
H	0.3437462568827598 0.8704828682886752 0.1205436106379865	0.108098
H	0.0970078393550047 0.7511745277313240 0.1252470959343837	0.109212
H	0.1077712887960676 0.8870376384861514 0.1288583740981432	0.101590
H	0.3247997434494409 0.3804114474304500 0.2327578161049149	0.102020
H	0.3408446694769863 0.5173092780069429 0.2312282102052475	0.113903
H	0.1926028974413720 0.5244858788670128 0.0190300310624985	0.113917
H	0.1897818925236003 0.3864119092178601 0.0227656234377722	0.105080
H	0.1562537431172402 0.6295171317113248 0.1205436106379865	0.108096
H	0.4029921406450009 0.7488254722686760 0.1252470959343837	0.109209
H	0.3922287112039323 0.6129623615138486 0.1288583740981432	0.101590
H	0.3804114474304500 0.1752002435505616 0.2327578161049149	0.102020
H	0.5173092780069429 0.1591553435230112 0.2312282102052475	0.113903
H	0.5244858788670128 0.3073970895586307 0.0190300310624985	0.113917
H	0.3864119092178601 0.3102181074763998 0.0227656234377722	0.105080
H	0.6295171317113248 0.3437462568827598 0.1205436106379865	0.108100
H	0.7488254722686760 0.0970078393550047 0.1252470959343837	0.109213
H	0.6129623615138486 0.1077712887960676 0.1288583740981432	0.101591
H	0.1195885795695487 0.3247997434494409 0.2327578161049149	0.102019
H	0.9826907749930579 0.3408446694769863 0.2312282102052475	0.113904
H	0.9755140671329827 0.1926028974413720 0.0190300310624985	0.113917
H	0.1135880767821387 0.1897818925236003 0.0227656234377722	0.105079
H	0.8704828682886752 0.1562537431172402 0.1205436106379865	0.108098
H	0.7511745277313240 0.4029921406450009 0.1252470959343837	0.109209
H	0.8870376384861514 0.3922287112039323 0.1288583740981432	0.101591
H	0.8236983230375285 0.6200824497768577 0.2666132361107861	0.105204
H	0.8405739452106227 0.4830329709483463 0.2682847067203076	0.113586
H	0.6923595703582303 0.4750855524558021 0.4804766738397223	0.113881
H	0.6886278644648366 0.6128837647430121 0.4765100004329369	0.100973
H	0.6564628244398200 0.3706091875743827 0.3794560522811520	0.108594
H	0.9029829762052953 0.2509648702823954 0.3749936240204869	0.109246
H	0.8924556192641213 0.3868428163067605 0.3711467072916407	0.101350
H	0.6763016769624715 0.8799175502231423 0.2666132361107861	0.105204
H	0.6594260547893773 0.0169669940516471 0.2682847067203076	0.113593
H	0.8076404296417697 0.0249144745442037 0.4804766738397223	0.113886
H	0.8113721355351634 0.8871162352569879 0.4765100004329368	0.100973
H	0.8435371755601800 0.1293908124256171 0.3794560522811520	0.108597
H	0.5970170237947047 0.2490351297176045 0.3749936240204869	0.109244
H	0.6075443807358787 0.1131571836932396 0.3711467072916407	0.101353
H	0.6200824497768577 0.6763016769624715 0.2666132361107861	0.105204
H	0.4830329709483463 0.6594260547893773 0.2682847067203076	0.113586
H	0.4750855524558021 0.8076404296417697 0.4804766738397223	0.113882
H	0.6128837647430121 0.8113721355351634 0.4765100004329369	0.100973
H	0.3706091875743827 0.8435371755601800 0.3794560522811520	0.108595
H	0.2509648702823954 0.5970170237947047 0.3749936240204869	0.109247
H	0.3868428163067605 0.6075443807358787 0.3711467072916407	0.101352
H	0.8799175502231423 0.8236983230375285 0.2666132361107861	0.105204
H	0.0169669940516471 0.8405739452106227 0.2682847067203076	0.113594
H	0.0249144745442037 0.6923595703582303 0.4804766738397223	0.113886
H	0.8871162352569879 0.6886278644648366 0.4765100004329369	0.100973
H	0.1293908124256171 0.6564628244398200 0.3794560522811520	0.108599
H	0.2490351297176045 0.9029829762052953 0.3749936240204869	0.109244
H	0.1131571836932396 0.8924556192641213 0.3711467072916407	0.101354
H	0.8236983230375285 0.8799175502231423 0.7666132211107811	0.105204
H	0.8405739452106227 0.0169669940516471 0.7682847227203086	0.113593
H	0.6923595703582303 0.0249144745442037 0.9804766738397217	0.113884
H	0.6886278644648366 0.8871162352569879 0.9765100004329369	0.100973
H	0.6564628244398200 0.1293908124256171 0.8794560212811453	0.108594
H	0.9029829762052953 0.2490351297176045 0.8749936240204866	0.109245
H	0.8924556192641213 0.1131571836932396 0.8711467392916366	0.101356
H	0.6763016769624715 0.6200824497768577 0.7666132211107811	0.105203
H	0.6594260547893773 0.4830329709483463 0.7682847227203086	0.113586
H	0.8076404296417697 0.4750855524558021 0.9804766738397217	0.113879
H	0.8113721355351634 0.6128837647430121 0.9765100004329369	0.100973
H	0.8435371755601800 0.3706091875743827 0.8794560212811453	0.108585
H	0.5970170237947047 0.2509648702823954 0.8749936240204866	0.109243
H	0.6075443807358787 0.3868428163067605 0.8711467392916366	0.101354
H	0.6200824497768577 0.8236983230375285 0.7666132211107811	0.105204
H	0.4830329709483463 0.8405739452106227 0.7682847227203086	0.113587
H	0.4750855524558021 0.6923595703582303 0.9804766738397217	0.113880
H	0.6128837647430121 0.6886278644648366 0.9765100004329369	0.100973
H	0.3706091875743827 0.6564628244398200 0.8794560212811453	0.108589
H	0.2509648702823954 0.9029829762052953 0.8749936240204866	0.109244
H	0.3868428163067605 0.8924556192641213 0.8711467392916366	0.101356
H	0.8799175502231423 0.6763016769624715 0.7666132211107811	0.105204
H	0.0169669940516471 0.6594260547893773 0.7682847227203086	0.113593
H	0.0249144745442037 0.8076404296417697 0.9804766738397217	0.113884
H	0.8871162352569879 0.8113721355351634 0.9765100004329369	0.100974
H	0.1293908124256171 0.8435371755601800 0.8794560212811453	0.108593
H	0.2490351297176045 0.5970170237947047 0.8749936240204866	0.109243
H	0.1131571836932396 0.6075443807358787 0.8711467392916366	0.101357
H	0.1752002435505616 0.3804114474304500 0.7327578311049197	0.102020
H	0.1591553435230112 0.5173092780069429 0.7312281942052463	0.113903
H	0.3073970895586307 0.5244858788670128 0.5190300680624981	0.113915
H	0.3102181074763998 0.3864119092178601 0.5227656094377710	0.105080
H	0.3437462568827598 0.6295171317113248 0.6205436346379890	0.108100
H	0.0970078393550047 0.7488254722686760 0.6252470879343829	0.109209
H	0.1077712887960676 0.6129623615138486 0.6288583580981491	0.101591
H	0.3247997434494409 0.1195885795695487 0.7327578311049197	0.102020
H	0.3408446694769863 0.9826907749930579 0.7312281942052463	0.113903
H	0.1926028974413720 0.9755140671329827 0.5190300680624981	0.113915
H	0.1897818925236003 0.1135880767821387 0.5227656094377710	0.105080
H	0.1562537431172402 0.8704828682886752 0.6205436346379890	0.108098
H	0.4029921406450009 0.7511745277313240 0.6252470879343829	0.109206
H	0.3922287112039323 0.8870376384861514 0.6288583580981491	0.101590
H	0.3804114474304500 0.3247997434494409 0.7327578311049197	0.102020
H	0.5173092780069429 0.3408446694769863 0.7312281942052463	0.113904
H	0.5244858788670128 0.1926028974413720 0.5190300680624981	0.113915
H	0.3864119092178601 0.1897818925236003 0.5227656094377710	0.105080
H	0.6295171317113248 0.1562537431172402 0.6205436346379890	0.108101
H	0.7488254722686760 0.4029921406450009 0.6252470879343829	0.109208
H	0.6129623615138486 0.3922287112039323 0.6288583580981491	0.101592
H	0.1195885795695487 0.1752002435505616 0.7327578311049197	0.102020
H	0.9826907749930579 0.1591553435230112 0.7312281942052463	0.113903
H	0.9755140671329827 0.3073970895586307 0.5190300680624981	0.113916
H	0.1135880767821387 0.3102181074763998 0.5227656094377710	0.105080
H	0.8704828682886752 0.3437462568827598 0.6205436346379890	0.108099
H	0.7511745277313240 0.0970078393550047 0.6252470879343829	0.109207
H	0.8870376384861514 0.1077712887960676 0.6288583580981491	0.101592
F	0.3101272221714353 0.1680769000233902 0.3816682086842508	-0.606174
F	0.1898727778285648 0.3319230999766096 0.3816682086842508	-0.606174
F	0.3319230999766096 0.3101272221714353 0.3816682086842508	-0.606174
F	0.1680769000233902 0.1898727778285648 0.3816682086842508	-0.606174
F	0.6904162203618146 0.6676606452352311 0.1248723991387567	-0.605558
F	0.8095837796381854 0.8323393547647689 0.1248723991387567	-0.605559
F	0.6676606452352311 0.8095837796381854 0.1248723991387567	-0.605559
F	0.8323393547647689 0.6904162203618146 0.1248723991387567	-0.605558
F	0.6904162203618146 0.8323393547647689 0.6248723911387563	-0.605558
F	0.8095837796381854 0.6676606452352311 0.6248723911387563	-0.605558
F	0.6676606452352311 0.6904162203618146 0.6248723911387563	-0.605558
F	0.8323393547647689 0.8095837796381854 0.6248723911387563	-0.605558
F	0.3101272221714353 0.3319230999766096 0.8816682086842507	-0.606174
F	0.1898727778285648 0.1680769000233902 0.8816682086842507	-0.606174
F	0.3319230999766096 0.1898727778285648 0.8816682086842507	-0.606174
F	0.1680769000233902 0.3101272221714353 0.8816682086842507	-0.606175
F	0.2500000000000000 0.2500000000000000 0.4936389212160857	-0.623373
F	0.7500000000000000 0.7500000000000000 0.2369163362471212	-0.623893
F	0.7500000000000000 0.7500000000000000 0.7369163672471201	-0.623894
F	0.2500000000000000 0.2500000000000000 -0.0063610467839188	-0.623373
O	0.2500000000000000 0.2500000000000000 0.2662379909470495	-0.832520
O	0.7500000000000000 0.7500000000000000 0.0094770162251948	-0.834105
O	0.7500000000000000 0.7500000000000000 0.5094770212251916	-0.834105
O	0.2500000000000000 0.2500000000000000 0.7662379759470443	-0.832521
Cd	0.2500000000000000 0.2500000000000000 0.1289247109452695	0.869943
Cd	0.7500000000000000 0.7500000000000000 0.3721149175908657	0.870954
Cd	0.7500000000000000 0.7500000000000000 0.8721148535908608	0.870955
Cd	0.2500000000000000 0.2500000000000000 0.6289247589452739	0.869945
V	0.2500000000000000 0.2500000000000000 0.3699922803197607	2.309844
V	0.7500000000000000 0.7500000000000000 0.1132672552492854	2.309820
V	0.7500000000000000 0.7500000000000000 0.6132672712492795	2.309820
V	0.2500000000000000 0.2500000000000000 0.8699922803197605	2.309844
	  	
