#======================================================================

# CRYSTAL DATA

#----------------------------------------------------------------------

data_VESTA_phase_1


_pd_phase_name                         VOFFIVE_2_Zn_i
_cell_length_a                         13.95782
_cell_length_b                         13.95782
_cell_length_c                         8.00781
_cell_angle_alpha                      90
_cell_angle_beta                       90
_cell_angle_gamma                      90
_symmetry_space_group_name_H-M         P 1
_symmetry_Int_Tables_number            1

loop_
_symmetry_equiv_pos_as_xyz
   x, y, z

loop_
   _atom_site_label
   _atom_site_fract_x
   _atom_site_fract_y
   _atom_site_fract_z
   _atom_site_charge
C	-0.0000000000000000 0.3031900044774334 0.3487988847432197	-0.161826
C	-0.0000000000000000 0.2038372147191439 0.3548211110600564	0.106733
C	0.5000000000000000 0.8031900044774337 0.8487988547432246	-0.161826
C	0.5000000000000000 0.7038372147191436 0.8548210520600552	0.106733
C	-0.0000000000000000 0.6968099955225663 0.3487988847432197	-0.161828
C	-0.0000000000000000 0.7961627852808564 0.3548211110600564	0.106735
C	0.5000000000000000 0.1968099955225665 0.8487988547432246	-0.161828
C	0.5000000000000000 0.2961627852808561 0.8548210520600552	0.106735
C	0.6968099955225663 0.0000000000000000 0.3487988847432197	-0.161826
C	0.7961627852808564 0.0000000000000000 0.3548211110600564	0.106742
C	0.1968099955225665 0.5000000000000000 0.8487988547432246	-0.161826
C	0.2961627852808561 0.5000000000000000 0.8548210520600552	0.106742
C	0.3031900044774334 0.0000000000000000 0.3487988847432197	-0.161828
C	0.2038372147191439 0.0000000000000000 0.3548211110600564	0.106744
C	0.8031900044774337 0.5000000000000000 0.8487988547432246	-0.161828
C	0.7038372147191436 0.5000000000000000 0.8548210520600552	0.106744
C	-0.0000000000000000 0.3038219443868541 0.6502886885304853	-0.162847
C	-0.0000000000000000 0.2045191214238104 0.6446577093031779	0.106726
C	0.5000000000000000 0.8038219443868537 0.1502886585304900	-0.162847
C	0.5000000000000000 0.7045191214238102 0.1446576653031814	0.106726
C	-0.0000000000000000 0.6961780556131463 0.6502886885304853	-0.162849
C	-0.0000000000000000 0.7954808785761898 0.6446577093031779	0.106728
C	0.5000000000000000 0.1961780556131462 0.1502886585304900	-0.162849
C	0.5000000000000000 0.2954808785761896 0.1446576653031814	0.106728
C	0.3038219443868541 0.0000000000000000 0.6502886885304853	-0.162849
C	0.2045191214238104 0.0000000000000000 0.6446577093031779	0.106736
C	0.8038219443868537 0.5000000000000000 0.1502886585304900	-0.162849
C	0.7045191214238102 0.5000000000000000 0.1446576653031814	0.106736
C	0.6961780556131463 0.0000000000000000 0.6502886885304853	-0.162847
C	0.7954808785761898 0.0000000000000000 0.6446577093031779	0.106734
C	0.1961780556131462 0.5000000000000000 0.1502886585304900	-0.162847
C	0.2954808785761896 0.5000000000000000 0.1446576653031814	0.106734
C	-0.0000000000000000 0.4563362454569535 0.4989325908671524	-0.095754
C	-0.0000000000000000 0.3551499333023776 0.4992767613913150	0.161909
C	0.5000000000000000 0.9563362104569541 -0.0010674091328474	-0.095754
C	0.5000000000000000 0.8551498983023781 -0.0007232386086850	0.161909
C	-0.0000000000000000 0.5436637545430466 0.4989325908671524	-0.095496
C	-0.0000000000000000 0.6448501016976219 0.4992767613913150	0.161878
C	0.5000000000000000 0.0436637675430511 -0.0010674091328474	-0.095496
C	0.5000000000000000 0.1448500846976238 -0.0007232386086850	0.161878
C	0.5436637545430466 0.0000000000000000 0.4989325908671524	-0.095755
C	0.6448501016976219 0.0000000000000000 0.4992767613913150	0.161909
C	0.0436637675430511 0.5000000000000000 -0.0010674091328474	-0.095755
C	0.1448500846976238 0.5000000000000000 -0.0007232386086850	0.161909
C	0.4563362454569535 0.0000000000000000 0.4989325908671524	-0.095497
C	0.3551499333023776 0.0000000000000000 0.4992767613913150	0.161878
C	0.9563362104569541 0.5000000000000000 -0.0010674091328474	-0.095497
C	0.8551498983023781 0.5000000000000000 -0.0007232386086850	0.161878
H	-0.0000000000000000 0.3400912879824484 0.2290210132816281	0.119765
H	-0.0000000000000000 0.1612282008388319 0.2410028427981556	0.104904
H	0.5000000000000000 0.8400913219824507 0.7290210282816260	0.119765
H	0.5000000000000000 0.6612282358388318 0.7410028277981580	0.104904
H	-0.0000000000000000 0.6599086780175493 0.2290210132816281	0.119764
H	-0.0000000000000000 0.8387717641611682 0.2410028427981556	0.104904
H	0.5000000000000000 0.1599086950175539 0.7290210282816260	0.119764
H	0.5000000000000000 0.3387717991611681 0.7410028277981580	0.104904
H	0.6599086780175493 0.0000000000000000 0.2290210132816281	0.119765
H	0.8387717641611682 0.0000000000000000 0.2410028427981556	0.104903
H	0.1599086950175539 0.5000000000000000 0.7290210282816260	0.119765
H	0.3387717991611681 0.5000000000000000 0.7410028277981580	0.104903
H	0.3400912879824484 0.0000000000000000 0.2290210132816281	0.119764
H	0.1612282008388319 0.0000000000000000 0.2410028427981556	0.104903
H	0.8400913219824507 0.5000000000000000 0.7290210282816260	0.119764
H	0.6612282358388318 0.5000000000000000 0.7410028277981580	0.104903
H	-0.0000000000000000 0.3408705616339629 0.7698038754172145	0.120565
H	-0.0000000000000000 0.1626599222375294 0.7591937467794765	0.093613
H	0.5000000000000000 0.8408705956339657 0.2698039044172134	0.120565
H	0.5000000000000000 0.6626599572375287 0.2591937177794773	0.093613
H	-0.0000000000000000 0.6591294043660343 0.7698038754172145	0.120564
H	-0.0000000000000000 0.8373400427624713 0.7591937467794765	0.093613
H	0.5000000000000000 0.1591294213660392 0.2698039044172134	0.120564
H	0.5000000000000000 0.3373400777624704 0.2591937177794773	0.093613
H	0.3408705616339629 0.0000000000000000 0.7698038754172145	0.120564
H	0.1626599222375294 0.0000000000000000 0.7591937467794765	0.093612
H	0.8408705956339657 0.5000000000000000 0.2698039044172134	0.120564
H	0.6626599572375287 0.5000000000000000 0.2591937177794773	0.093612
H	0.6591294043660343 0.0000000000000000 0.7698038754172145	0.120565
H	0.8373400427624713 0.0000000000000000 0.7591937467794765	0.093612
H	0.1591294213660392 0.5000000000000000 0.2698039044172134	0.120565
H	0.3373400777624704 0.5000000000000000 0.2591937177794773	0.093612
Zn	-0.0000000000000000 0.0000000000000000 0.4977080960092727	0.757706
Zn	0.5000000000000000 0.5000000000000000 -0.0022919039907273	0.757706
V	-0.0000000000000000 0.0000000000000000 -0.0206843624198903	2.237042
V	0.5000000000000000 0.5000000000000000 0.4793156375801096	2.237042
N	-0.0000000000000000 0.1550242460377337 0.5001603334282356	-0.216585
N	0.5000000000000000 0.6550242460377338 0.0001603334282354	-0.216585
N	-0.0000000000000000 0.8449757539622662 0.5001603334282356	-0.216584
N	0.5000000000000000 0.3449757539622663 0.0001603334282354	-0.216584
N	0.8449757539622662 0.0000000000000000 0.5001603334282356	-0.216588
N	0.3449757539622663 0.5000000000000000 0.0001603334282354	-0.216588
N	0.1550242460377337 0.0000000000000000 0.5001603334282356	-0.216588
N	0.6550242460377338 0.5000000000000000 0.0001603334282354	-0.216588
O	-0.0000000000000000 0.0000000000000000 0.7717582387242111	-0.805939
O	0.5000000000000000 0.5000000000000000 0.2717582097242124	-0.805939
F	-0.0000000000000000 0.0000000000000000 0.2393078404922487	-0.615857
F	0.5000000000000000 0.5000000000000000 0.7393077964922521	-0.615857
F	0.5929921046154352 0.5929921046154352 0.5070200891984186	-0.570560
F	0.5929921046154352 0.4070078603845657 0.5070200891984186	-0.570559
F	0.4070078603845657 0.5929921046154352 0.5070200891984186	-0.570560
F	0.4070078603845657 0.4070078603845657 0.5070200891984186	-0.570560
F	0.0929921126154358 0.0929921126154358 0.0070200891984181	-0.570560
F	0.9070078953845648 0.9070078953845648 0.0070200891984181	-0.570560
F	0.9070078953845648 0.0929921126154358 0.0070200891984181	-0.570560
F	0.0929921126154358 0.9070078953845648 0.0070200891984181	-0.570560
	  	
