#======================================================================

# CRYSTAL DATA

#----------------------------------------------------------------------

data_VESTA_phase_1


_pd_phase_name                         VOFFIVE_18_Ni
_cell_length_a                         13.98503
_cell_length_b                         13.80100
_cell_length_c                         8.04410
_cell_angle_alpha                      89.64587
_cell_angle_beta                       95.11072
_cell_angle_gamma                      90.07368
_symmetry_space_group_name_H-M         P 1
_symmetry_Int_Tables_number            1

loop_
_symmetry_equiv_pos_as_xyz
   x, y, z

loop_
   _atom_site_label
   _atom_site_fract_x
   _atom_site_fract_y
   _atom_site_fract_z
   _atom_site_charge
F	0.4035186645341157 0.3793549409202567 0.5064312832109245	-0.564825
F	0.5157127990426957 0.4836208580530074 0.7389956914183988	-0.635683
F	0.4063039454124315 0.5656573930107286 0.5091311848138539	-0.548725
F	0.9035187315341180 0.8793549069202611 0.5064312832109245	-0.564822
F	0.0157127720426968 0.9836207890530125 0.7389956914183988	-0.635685
F	0.9063038784124290 0.0656574140107266 0.5091311848138539	-0.548724
F	0.5820017038546881 0.3682675204537416 0.5065959200885654	-0.565265
F	0.6022879779511274 0.5549021669496018 0.4998508867917208	-0.550763
F	0.0820017298546905 0.8682674864537453 0.5065959200885654	-0.565254
F	0.1022879699511267 0.0549021879496001 0.4998508867917208	-0.550762
O	0.4852854741882540 0.4798994019676233 0.2743482299956698	-0.794445
O	0.9852854411882551 0.9798993329676282 0.2743482299956698	-0.794443
C	0.6842813525009550 0.1500847212843120 0.6570652999772378	-0.425687
C	0.7573482429046379 0.1477757804803248 0.8031244588280677	0.207833
C	0.7621827148417797 0.1970556231529028 0.9553064983508004	-0.153625
C	0.6900836933914488 0.2616016921828778 0.0142031723211196	-0.144930
C	0.6741588407320778 0.3605467588799519 0.9713765752122012	0.224412
C	0.7298489415268141 0.4235054328969914 0.8635321288114113	-0.427607
C	0.8952614051182164 0.2093803367901884 0.2024420360901551	-0.433473
C	0.8517489338708932 0.1711847751091031 0.0402579107522614	0.218061
C	0.6221120973532456 0.2381699995252897 0.1261174887937752	0.208519
C	0.5999805425819081 0.1460447992917962 0.2123487646006100	-0.426489
C	0.1842813695009530 0.6500847552843074 0.6570652999772379	-0.425683
C	0.2573482769046339 0.6477758144803277 0.8031244588280677	0.207830
C	0.2621827658417807 0.6970556571528986 0.9553064983508004	-0.153623
C	0.1900837273914446 0.7616016921828775 0.0142031723211196	-0.144927
C	0.1741588157320720 0.8605467928799545 0.9713765752122012	0.224415
C	0.2298489915268108 0.9235054668969873 0.8635321288114113	-0.427608
C	0.3952613381182143 0.7093803197901837 0.2024420360901551	-0.433471
C	0.3517490008708951 0.6711847751091033 0.0402579107522614	0.218058
C	0.1221120973532524 0.7381700165252877 0.1261174887937752	0.208513
C	0.0999804835819142 0.6460448162917936 0.2123487646006100	-0.426465
C	0.3167826275160422 0.1506525755609537 0.3440654715256936	-0.423830
C	0.2440395152426195 0.1478628380301878 0.1976208385395292	0.206187
C	0.2388902356798445 0.1968532727526531 0.0442246008918221	-0.152134
C	0.3104280921770671 0.2624625016631336 0.9848524022775917	-0.146968
C	0.3255044261315859 0.3610295596190074 0.0287240393891311	0.217817
C	0.2679744438686070 0.4225204593394694 0.1343202038550270	-0.422984
C	0.1052257879098623 0.2079392551095855 0.7971029284790889	-0.435959
C	0.1493666445701668 0.1702849661564255 0.9600508648606160	0.222417
C	0.3784238269481957 0.2414005180046022 0.8720524576470015	0.210041
C	0.4010094706671510 0.1501307292864304 0.7858146528483880	-0.425882
C	0.8167826605160411 0.6506526095609497 0.3440654715256936	-0.423790
C	0.7440395482426185 0.6478628720301906 0.1976208385395292	0.206181
C	0.7388902696798475 0.6968533067526483 0.0442246008918221	-0.152131
C	0.8104281261770696 0.7624625016631337 0.9848524022775917	-0.146978
C	0.8255043921315902 0.8610295936190099 0.0287240393891311	0.217850
C	0.7679745118686057 0.9225204933394651 0.1343202038550270	-0.422990
C	0.6052257249098613 0.7079392381095805 0.7971029284790889	-0.435956
C	0.6493666955701677 0.6702849661564253 0.9600508648606160	0.222417
C	0.8784238269481958 0.7414005350046001 0.8720524576470015	0.210041
C	0.9010094036671492 0.6501307462864279 0.7858146528483880	-0.425882
H	0.7172332356936747 0.1712932871811288 0.5433019963033462	0.150822
H	0.6285504224589187 0.2034372278624254 0.6770089878320967	0.143154
H	0.6503540391226673 0.0788085733993917 0.6344045245426984	0.133288
H	0.6818761323554792 0.4652502993489361 0.7747885807707617	0.153367
H	0.7771216555243228 0.3788570794911431 0.7936455711026761	0.136836
H	0.7745766655970383 0.4746685274280575 0.9410954944818919	0.125894
H	0.8656140940111572 0.0612182245421473 0.7063198278380235	0.286234
H	0.9017291102594505 0.1536867296352437 0.3005035027422843	0.154533
H	0.8502875164705598 0.2681027902216647 0.2440027284054804	0.132495
H	0.9675798581778173 0.2379899964544229 0.1889732015680390	0.139865
H	0.5745399588107375 0.1607017313639997 0.3349830190322768	0.143294
H	0.6638693889477808 0.0998993994478567 0.2303190251018248	0.150704
H	0.5435417587998967 0.1047323493324614 0.1391845591694985	0.132616
H	0.5193752413782148 0.3329985692168206 0.2210325235494490	0.270404
H	0.2172332016936790 0.6712932871811290 0.5433019963033462	0.150821
H	0.1285504314589161 0.7034371768624247 0.6770089878320967	0.143156
H	0.1503540131226649 0.5788085563993939 0.6344045245426984	0.133287
H	0.1818761663554747 0.9652503333489387 0.7747885807707617	0.153366
H	0.2771217055243191 0.8788571134911450 0.7936455711026761	0.136831
H	0.2745766655970380 0.9746684924280512 0.9410954944818919	0.125889
H	0.3656141610111596 0.5612182155421500 0.7063198278380235	0.286236
H	0.4017291102594507 0.6536867296352440 0.3005035027422843	0.154533
H	0.3502875164705599 0.7681027552216653 0.2440027284054804	0.132496
H	0.4675798581778174 0.7379900134544209 0.1889732015680390	0.139870
H	0.0745399378107395 0.6607017483639974 0.3349830190322768	0.143295
H	0.1638694389477780 0.5998993914478631 0.2303190251018248	0.150665
H	0.0435417207998937 0.6047322973324575 0.1391845591694985	0.132631
H	0.0193752273782138 0.8329986042168199 0.2210325235494490	0.270404
H	0.2836235258598018 0.1717931634731735 0.4571628626551688	0.152331
H	0.3724383071792695 0.2041565104925252 0.3232068595408675	0.138395
H	0.3509553545463426 0.0795876217786042 0.3685524006711343	0.134376
H	0.3139303209953303 0.4659331835964565 0.2227379709350718	0.145535
H	0.2213487167105379 0.3767609482404495 0.2045116721067922	0.138027
H	0.2225834966669732 0.4724963491107432 0.0546052758065264	0.128517
H	0.1378270212170802 0.0609073741630539 0.2985537522826833	0.277687
H	0.0958459986706649 0.1509181459473505 0.7027876661812280	0.160028
H	0.1510815413131583 0.2651049480455394 0.7513325822113847	0.131307
H	0.0340310861226797 0.2386862513736314 0.8121781070024581	0.139478
H	0.4268339770061070 0.1656654499655451 0.6635576122195144	0.144078
H	0.3373092276898874 0.1036923242484993 0.7675504075729747	0.150935
H	0.4574537398817668 0.1086511572035167 0.8593106719622680	0.131222
H	0.4781099434126146 0.3410621535985190 0.7746841037243969	0.278125
H	0.7836235598598045 0.6717931634731735 0.4571628626551688	0.152324
H	0.8724383071792697 0.7041564594925244 0.3232068595408675	0.138372
H	0.8509553215463437 0.5795876047786065 0.3685524006711343	0.134373
H	0.8139303539953300 0.9659332175964593 0.2227379709350718	0.145574
H	0.7213487507105407 0.8767609822404526 0.2045116721067922	0.137988
H	0.7225834796669756 0.9724963141107368 0.0546052758065264	0.128497
H	0.6378270632170834 0.5609073651630565 0.2985537522826833	0.277688
H	0.5958460406706680 0.6509181459473509 0.7027876661812280	0.160028
H	0.6510815583131564 0.7651049130455397 0.7513325822113847	0.131310
H	0.5340310651226815 0.7386862683736288 0.8121781070024581	0.139480
H	0.9268339770061068 0.6656654669655431 0.6635576122195143	0.144078
H	0.8373092956898861 0.6036923162485055 0.7675504075729747	0.150933
H	0.9574537398817670 0.6086511052035124 0.8593106719622680	0.131222
H	0.9781099434126149 0.8410621885985180 0.7746841037243969	0.278123
N	0.8384000010317825 0.0948829784991655 0.8056127348024912	-0.144481
N	0.6003791772807672 0.3944387013263617 0.0506469332964909	-0.251099
N	0.8967677291067259 0.1079449261733483 0.9471906058779463	-0.253000
N	0.5713811497333702 0.3197570754209209 0.1435552555203804	-0.142086
N	0.3383999340317808 0.5948829614991609 0.8056127348024912	-0.144481
N	0.1003791942807651 0.8944387363263615 0.0506469332964909	-0.251101
N	0.3967676951067231 0.6079449601733438 0.9471906058779463	-0.252998
N	0.0713811497333698 0.8197570754209206 0.1435552555203804	-0.142086
N	0.1634651950102010 0.0940888302236184 0.1965979916877701	-0.145452
N	0.3988484040952637 0.3967221408755792 0.9496097517088644	-0.252089
N	0.1048575407428499 0.1065821681966464 0.0544817679476077	-0.253632
N	0.4285453394706549 0.3237492520807415 0.8555946706391306	-0.138763
N	0.6634651950102011 0.5940888132236134 0.1965979916877701	-0.145451
N	0.8988484040952639 0.8967221758755788 0.9496097517088644	-0.252100
N	0.6048575657428485 0.6065822021966424 0.0544817679476077	-0.253629
N	0.9285453394706545 0.8237492520807415 0.8555946706391306	-0.138761
V	0.4972402414484527 0.4701593608375316 0.4799160727684361	2.217306
V	-0.0027597565515474 0.9701594298375267 0.4799160727684361	2.217284
Ni	0.5007314516835933 0.5051552997316510 -0.0034569499325913	0.823732
Ni	0.0007314516835935 0.0051553037316513 -0.0034569499325913	0.823745
	  	
