#======================================================================

# CRYSTAL DATA

#----------------------------------------------------------------------

data_VESTA_phase_1


_pd_phase_name                         VOFFIVE_2_Ni_i
_cell_length_a                         13.49943
_cell_length_b                         13.49943
_cell_length_c                         8.35023
_cell_angle_alpha                      90
_cell_angle_beta                       90
_cell_angle_gamma                      90
_symmetry_space_group_name_H-M         P 1
_symmetry_Int_Tables_number            1

loop_
_symmetry_equiv_pos_as_xyz
   x, y, z

loop_
   _atom_site_label
   _atom_site_fract_x
   _atom_site_fract_y
   _atom_site_fract_z
   _atom_site_charge
C	0.0000000000000000 0.2956713826041208 0.3545441586578786	-0.154084
C	0.0000000000000000 0.1930464265519297 0.3604900031947038	0.092843
C	0.5000000000000000 0.7956713826041211 0.8545441286578837	-0.154084
C	0.5000000000000000 0.6930464265519294 0.8604899441947028	0.092843
C	0.0000000000000000 0.7043286173958789 0.3545441586578786	-0.154087
C	0.0000000000000000 0.8069535734480706 0.3604900031947038	0.092846
C	0.5000000000000000 0.2043286173958794 0.8545441286578837	-0.154087
C	0.5000000000000000 0.3069535734480702 0.8604899441947028	0.092846
C	0.7043286173958789 -0.0000000000000000 0.3545441586578786	-0.154084
C	0.8069535734480706 -0.0000000000000000 0.3604900031947038	0.092846
C	0.2043286173958794 0.5000000000000000 0.8545441286578837	-0.154084
C	0.3069535734480702 0.5000000000000000 0.8604899441947028	0.092846
C	0.2956713826041208 -0.0000000000000000 0.3545441586578786	-0.154086
C	0.1930464265519297 -0.0000000000000000 0.3604900031947038	0.092848
C	0.7956713826041211 0.5000000000000000 0.8545441286578837	-0.154086
C	0.6930464265519294 0.5000000000000000 0.8604899441947028	0.092848
C	0.0000000000000000 0.2971645051605085 0.6430627668193339	-0.156461
C	0.0000000000000000 0.1946005995168564 0.6393809217546441	0.095325
C	0.5000000000000000 0.7971645051605081 0.1430627368193384	-0.156461
C	0.5000000000000000 0.6946005995168565 0.1393808777546482	0.095325
C	0.0000000000000000 0.7028354948394919 0.6430627668193339	-0.156463
C	0.0000000000000000 0.8053994004831435 0.6393809217546441	0.095327
C	0.5000000000000000 0.2028354948394916 0.1430627368193384	-0.156463
C	0.5000000000000000 0.3053994004831436 0.1393808777546482	0.095327
C	0.2971645051605085 -0.0000000000000000 0.6430627668193339	-0.156463
C	0.1946005995168564 -0.0000000000000000 0.6393809217546441	0.095330
C	0.7971645051605081 0.5000000000000000 0.1430627368193384	-0.156463
C	0.6946005995168565 0.5000000000000000 0.1393808777546482	0.095330
C	0.7028354948394919 -0.0000000000000000 0.6430627668193339	-0.156460
C	0.8053994004831435 -0.0000000000000000 0.6393809217546441	0.095328
C	0.2028354948394916 0.5000000000000000 0.1430627368193384	-0.156460
C	0.3053994004831436 0.5000000000000000 0.1393808777546482	0.095328
C	0.0000000000000000 0.4548278399030504 0.4972130006644949	-0.091986
C	0.0000000000000000 0.3502409557341931 0.4980376620073142	0.162960
C	0.5000000000000000 0.9548278049030514 -0.0027869993355052	-0.091986
C	0.5000000000000000 0.8502409207341936 -0.0019623379926859	0.162960
C	0.0000000000000000 0.5451721600969492 0.4972130006644949	-0.091730
C	0.0000000000000000 0.6497590792658064 0.4980376620073142	0.162929
C	0.5000000000000000 0.0451721730969543 -0.0027869993355052	-0.091730
C	0.5000000000000000 0.1497590622658083 -0.0019623379926859	0.162929
C	0.5451721600969492 -0.0000000000000000 0.4972130006644949	-0.091986
C	0.6497590792658064 -0.0000000000000000 0.4980376620073142	0.162960
C	0.0451721730969543 0.5000000000000000 -0.0027869993355052	-0.091986
C	0.1497590622658083 0.5000000000000000 -0.0019623379926859	0.162960
C	0.4548278399030504 -0.0000000000000000 0.4972130006644949	-0.091730
C	0.3502409557341931 -0.0000000000000000 0.4980376620073142	0.162929
C	0.9548278049030514 0.5000000000000000 -0.0027869993355052	-0.091730
C	0.8502409207341936 0.5000000000000000 -0.0019623379926859	0.162929
H	0.0000000000000000 0.3325637055369430 0.2386304804290806	0.123199
H	0.0000000000000000 0.1484168174362175 0.2518318752721342	0.116671
H	0.5000000000000000 0.8325637395369455 0.7386304954290781	0.123199
H	0.5000000000000000 0.6484168524362172 0.7518318602721364	0.116671
H	0.0000000000000000 0.6674362604630545 0.2386304804290806	0.123198
H	0.0000000000000000 0.8515831475637828 0.2518318752721342	0.116671
H	0.5000000000000000 0.1674362774630590 0.7386304954290781	0.123198
H	0.5000000000000000 0.3515831825637825 0.7518318602721364	0.116671
H	0.6674362604630545 -0.0000000000000000 0.2386304804290806	0.123199
H	0.8515831475637828 -0.0000000000000000 0.2518318752721342	0.116670
H	0.1674362774630590 0.5000000000000000 0.7386304954290781	0.123199
H	0.3515831825637825 0.5000000000000000 0.7518318602721364	0.116670
H	0.3325637055369430 -0.0000000000000000 0.2386304804290806	0.123198
H	0.1484168174362176 -0.0000000000000000 0.2518318752721342	0.116670
H	0.8325637395369455 0.5000000000000000 0.7386304954290781	0.123198
H	0.6484168524362172 0.5000000000000000 0.7518318602721364	0.116670
H	0.0000000000000000 0.3351780687216278 0.7580431758704110	0.122591
H	0.0000000000000000 0.1513312077411284 0.7491258114770637	0.107833
H	0.5000000000000000 0.8351781027216304 0.2580432048704098	0.122591
H	0.5000000000000000 0.6513312427411277 0.2491257824770652	0.107833
H	0.0000000000000000 0.6648218972783696 0.7580431758704110	0.122590
H	0.0000000000000000 0.8486687572588723 0.7491258114770637	0.107833
H	0.5000000000000000 0.1648219142783744 0.2580432048704098	0.122590
H	0.5000000000000000 0.3486687922588716 0.2491257824770652	0.107833
H	0.3351780687216278 -0.0000000000000000 0.7580431758704110	0.122590
H	0.1513312077411284 -0.0000000000000000 0.7491258114770637	0.107833
H	0.8351781027216304 0.5000000000000000 0.2580432048704098	0.122590
H	0.6513312427411277 0.5000000000000000 0.2491257824770652	0.107833
H	0.6648218972783696 -0.0000000000000000 0.7580431758704110	0.122591
H	0.8486687572588723 -0.0000000000000000 0.7491258114770637	0.107833
H	0.1648219142783744 0.5000000000000000 0.2580432048704098	0.122591
H	0.3486687922588716 0.5000000000000000 0.2491257824770652	0.107833
Ni	0.0000000000000000 -0.0000000000000000 0.5022545248269864	0.466686
Ni	0.5000000000000000 0.5000000000000000 0.0022545248269866	0.466686
V	0.0000000000000000 -0.0000000000000000 -0.0141207466576399	2.240482
V	0.5000000000000000 0.5000000000000000 0.4858792533423601	2.240482
N	0.0000000000000000 0.1431469562568353 0.5007591268795984	-0.146164
N	0.5000000000000000 0.6431469562568359 0.0007591268795986	-0.146164
N	0.0000000000000000 0.8568530437431641 0.5007591268795984	-0.146163
N	0.5000000000000000 0.3568530437431647 0.0007591268795986	-0.146163
N	0.8568530437431641 -0.0000000000000000 0.5007591268795984	-0.146164
N	0.3568530437431647 0.5000000000000000 0.0007591268795986	-0.146164
N	0.1431469562568353 -0.0000000000000000 0.5007591268795984	-0.146163
N	0.6431469562568359 0.5000000000000000 0.0007591268795986	-0.146163
O	0.0000000000000000 -0.0000000000000000 0.7878373908755274	-0.810440
O	0.5000000000000000 0.5000000000000000 0.2878373618755287	-0.810440
F	0.0000000000000000 -0.0000000000000000 0.2251629367254671	-0.623805
F	0.5000000000000000 0.5000000000000000 0.7251628927254707	-0.623805
F	0.5968873605198102 0.5968873605198102 0.5085975905307518	-0.591072
F	0.5968873605198102 0.4031126044801904 0.5085975905307518	-0.591072
F	0.4031126044801904 0.5968873605198102 0.5085975905307518	-0.591072
F	0.4031126044801904 0.4031126044801904 0.5085975905307518	-0.591072
F	0.0968873685198109 0.0968873685198109 0.0085975905307520	-0.591072
F	0.9031126394801898 0.9031126394801898 0.0085975905307520	-0.591072
F	0.9031126394801898 0.0968873685198109 0.0085975905307520	-0.591072
F	0.0968873685198109 0.9031126394801898 0.0085975905307520	-0.591072
	  	
