#======================================================================

# CRYSTAL DATA

#----------------------------------------------------------------------

data_VESTA_phase_1


_pd_phase_name                         VOFFIVE_1_Cu
_cell_length_a                         11.13546
_cell_length_b                         11.13546
_cell_length_c                         7.95411
_cell_angle_alpha                      90
_cell_angle_beta                       90
_cell_angle_gamma                      90
_symmetry_space_group_name_H-M         P 1
_symmetry_Int_Tables_number            1

loop_
_symmetry_equiv_pos_as_xyz
   x, y, z

loop_
   _atom_site_label
   _atom_site_fract_x
   _atom_site_fract_y
   _atom_site_fract_z
   _atom_site_charge
C	0.2563089059564492 0.4581563491167117 0.3659037001708133	0.104965
C	0.1314476500855942 0.4570326105044588 0.3612069835148776	-0.169653
C	0.7436911370435507 0.5418436938832883 0.3659037001708133	0.104964
C	0.8685522959144015 0.5429673894955411 0.3612069835148776	-0.169653
C	0.5418436938832883 0.2563089059564492 0.3659037001708133	0.104965
C	0.5429673894955411 0.1314476500855942 0.3612069835148776	-0.169653
C	0.4581563491167117 0.7436911370435507 0.3659037001708133	0.104965
C	0.4570326105044588 0.8685522959144015 0.3612069835148776	-0.169653
C	0.7444333407159340 0.4570760931316515 0.6332615696889254	0.106107
C	0.8691451359265997 0.4567112818149504 0.6377228058892025	-0.172987
C	0.2555667022840658 0.5429239498683489 0.6332615696889254	0.106108
C	0.1308548100733956 0.5432887181850496 0.6377228058892025	-0.172987
C	0.4570760931316515 0.2555667022840658 0.6332615696889254	0.106108
C	0.4567112818149504 0.1308548100733956 0.6377228058892025	-0.172987
C	0.5429239498683489 0.7444333407159340 0.6332615696889254	0.106108
C	0.5432887181850496 0.8691451359265997 0.6377228058892025	-0.172987
C	0.0662722891160716 0.5000164088283526 0.4992654260566283	0.099609
C	0.9337277318839340 0.4999835911716478 0.4992654260566283	0.099610
C	0.4999835911716478 0.0662722891160716 0.4992654260566283	0.099609
C	0.5000164088283526 0.9337277318839340 0.4992654260566283	0.099610
H	0.3100205570398930 0.4260183842424439 0.2603582667698252	0.112011
H	0.0857714113538308 0.4208213396587448 0.2512426310663563	0.123211
H	0.6899794219601019 0.5739816157575561 0.2603582667698252	0.112011
H	0.9142285726461676 0.5791786603412556 0.2512426310663563	0.123210
H	0.5739816157575561 0.3100205570398930 0.2603582667698252	0.112012
H	0.5791786603412556 0.0857714113538308 0.2512426310663563	0.123211
H	0.4260183842424439 0.6899794219601019 0.2603582667698252	0.112010
H	0.4208213396587448 0.9142285726461676 0.2512426310663563	0.123211
H	0.6914629195061954 0.4238852888936865 0.7388287099388513	0.104672
H	0.9151067996998196 0.4207994021237248 0.7475442642241439	0.123674
H	0.3085370594937992 0.5761147111063140 0.7388287099388513	0.104671
H	0.0848931843001792 0.5792005978762755 0.7475442642241439	0.123673
H	0.4238852888936865 0.3085370594937992 0.7388287099388513	0.104672
H	0.4207994021237248 0.0848931843001792 0.7475442642241439	0.123674
H	0.5761147111063140 0.6914629195061954 0.7388287099388513	0.104672
H	0.5792005978762755 0.9151067996998196 0.7475442642241439	0.123674
Cu	0.5000000000000000 0.5000000000000000 0.5014105709361196	0.745969
V	0.5000000000000000 0.5000000000000000 -0.0166772911949618	2.261028
O	0.5000000000000000 0.5000000000000000 0.7755738359201247	-0.848433
F	0.5000000000000000 0.5000000000000000 0.2336018671075522	-0.650648
F	0.3829400663465246 0.3814025054782627 0.0062598973601673	-0.589506
F	0.6170599766534759 0.6185975375217373 0.0062598973601673	-0.589496
F	0.6185975375217373 0.3829400663465246 0.0062598973601673	-0.589503
F	0.3814025054782627 0.6170599766534759 0.0062598973601673	-0.589500
N	0.3167463390313973 0.5006202813996785 0.4999285286279996	-0.219087
N	0.6832537039686024 0.4993797186003214 0.4999285286279996	-0.219087
N	0.4993797186003214 0.3167463390313973 0.4999285286279996	-0.219087
N	0.5006202813996785 0.6832537039686024 0.4999285286279996	-0.219087
	  	
