#======================================================================

# CRYSTAL DATA

#----------------------------------------------------------------------

data_VESTA_phase_1


_pd_phase_name                         VOFFIVE_2_Fe
_cell_length_a                         14.04137
_cell_length_b                         14.04137
_cell_length_c                         7.75582
_cell_angle_alpha                      90
_cell_angle_beta                       90
_cell_angle_gamma                      90
_symmetry_space_group_name_H-M         P 1
_symmetry_Int_Tables_number            1

loop_
_symmetry_equiv_pos_as_xyz
   x, y, z

loop_
   _atom_site_label
   _atom_site_fract_x
   _atom_site_fract_y
   _atom_site_fract_z
   _atom_site_charge
C	0.5325085626357313 0.7056864796987020 0.1379397412966278	0.101516
C	0.5328778050051767 0.8044547495223123 0.1435423449898313	-0.170969
C	0.4674914373642687 0.2943135553012978 0.1379397412966277	0.101513
C	0.4671221949948233 0.1955452854776870 0.1435423449898313	-0.170966
C	0.2943135553012978 0.5325085626357313 0.1379397412966277	0.101516
C	0.1955452854776870 0.5328778050051767 0.1435423449898313	-0.170969
C	0.7056864796987020 0.4674914373642687 0.1379397412966277	0.101514
C	0.8044547495223123 0.4671221949948233 0.1435423449898313	-0.170966
C	0.4683874513829629 0.7049433263422343 0.8624197948493365	0.101617
C	0.4673750807364438 0.8037730708200068 0.8561749538422396	-0.168724
C	0.5316125486170370 0.2950567086577651 0.8624197948493365	0.101615
C	0.5326249192635562 0.1962269641799928 0.8561749538422396	-0.168721
C	0.7049433263422343 0.5316125486170370 0.8624197948493365	0.101615
C	0.8037730708200068 0.5326249192635562 0.8561749538422396	-0.168722
C	0.2950567086577651 0.4683874513829629 0.8624197948493365	0.101617
C	0.1962269641799928 0.4673750807364438 0.8561749538422396	-0.168724
C	0.5000680740857470 0.1440877159767531 -0.0003856366192267	0.166570
C	0.5001397355235259 0.0434118849571671 -0.0007031420414126	-0.096299
C	0.4999319259142528 0.8559122840232467 -0.0003856366192267	0.166538
C	0.4998602644764741 0.9565881070428326 -0.0007031420414126	-0.096044
C	0.8559122840232467 0.5000680740857470 -0.0003856366192267	0.166570
C	0.9565881070428326 0.5001397355235259 -0.0007031420414126	-0.096299
C	0.1440877159767531 0.4999319259142528 -0.0003856366192267	0.166538
C	0.0434118849571671 0.4998602644764741 -0.0007031420414126	-0.096044
H	0.5581737426019244 0.6640726450215230 0.2472424973237620	0.095446
H	0.5589765998396685 0.8414722830486507 0.2574088673645646	0.126641
H	0.4418262573980757 0.3359272849784711 0.2472424973237620	0.095446
H	0.4410234001603310 0.1585277169513490 0.2574088673645646	0.126642
H	0.3359272849784711 0.5581737426019244 0.2472424973237620	0.095446
H	0.1585277169513490 0.5589765998396685 0.2574088673645646	0.126641
H	0.6640726450215230 0.4418262573980757 0.2472424973237620	0.095446
H	0.8414722830486507 0.4410234001603310 0.2574088673645646	0.126642
H	0.4435539798772748 0.6625393414940786 0.7534253185234973	0.103169
H	0.4411676769740112 0.8404166711347362 0.7420007386480039	0.125277
H	0.5564460201227255 0.3374605885059156 0.7534253185234973	0.103169
H	0.5588323230259888 0.1595833288652637 0.7420007386480039	0.125278
H	0.6625393414940786 0.5564460201227255 0.7534253185234973	0.103169
H	0.8404166711347362 0.5588323230259888 0.7420007386480039	0.125279
H	0.3374605885059156 0.4435539798772748 0.7534253185234973	0.103169
H	0.1595833288652637 0.4411676769740112 0.7420007386480039	0.125277
Fe	0.5000000000000000 0.5000000000000000 -0.0018608500668674	0.854598
V	0.5000000000000000 0.5000000000000000 0.4769116948590298	2.252774
F	0.5000000000000000 0.5000000000000000 0.7439601108093273	-0.601042
F	0.5910732611187001 0.5933816368739726 0.5048567110613429	-0.564994
F	0.4066183981260269 0.5910732611187001 0.5048567110613429	-0.564994
F	0.4089267738812992 0.4066183981260269 0.5048567110613429	-0.564994
F	0.5933816368739726 0.4089267738812992 0.5048567110613429	-0.564994
O	0.5000000000000000 0.5000000000000000 0.2629182423539310	-0.816532
N	0.4994757661868783 0.3438182139376292 0.0005955412725809	-0.241812
N	0.5005242338131217 0.6561818210623701 0.0005955412725809	-0.241812
N	0.6561818210623701 0.4994757661868783 0.0005955412725809	-0.241812
N	0.3438182139376292 0.5005242338131217 0.0005955412725809	-0.241812
	  	
