#======================================================================

# CRYSTAL DATA

#----------------------------------------------------------------------

data_VESTA_phase_1


_pd_phase_name                         VOFFIVE_7_Ni
_cell_length_a                         18.59487
_cell_length_b                         18.59487
_cell_length_c                         8.33066
_cell_angle_alpha                      90
_cell_angle_beta                       90
_cell_angle_gamma                      90
_symmetry_space_group_name_H-M         P 1
_symmetry_Int_Tables_number            1

loop_
_symmetry_equiv_pos_as_xyz
   x, y, z

loop_
   _atom_site_label
   _atom_site_fract_x
   _atom_site_fract_y
   _atom_site_fract_z
   _atom_site_charge
C	0.6685817685085645 0.8670862488246358 0.6958257388884163	0.092260
C	0.6159727625661354 0.9199703413004416 0.6983623207666124	-0.174216
C	0.5832081768355863 0.8855371018379380 0.4309638408656468	-0.168481
C	0.6362836185128175 0.8332851233610027 0.4363659831531809	0.088625
C	0.8314182314914355 0.6329137511753642 0.6958257388884163	0.092260
C	0.8840272374338646 0.5800296586995584 0.6983623207666124	-0.174216
C	0.9167917731644166 0.6144629491620627 0.4309638408656468	-0.168481
C	0.8637163314871855 0.6667148766389973 0.4363659831531809	0.088624
C	0.6329137511753642 0.6685817685085645 0.6958257388884163	0.092260
C	0.5800296586995584 0.6159727625661354 0.6983623207666124	-0.174216
C	0.6144629491620627 0.5832081768355863 0.4309638408656468	-0.168481
C	0.6667148766389973 0.6362836185128175 0.4363659831531809	0.088625
C	0.8670862488246358 0.8314182314914355 0.6958257388884163	0.092260
C	0.9199703413004416 0.8840272374338646 0.6983623207666124	-0.174216
C	0.8855371018379380 0.9167917731644166 0.4309638408656468	-0.168481
C	0.8332851233610027 0.8637163314871855 0.4363659831531809	0.088624
C	0.3312299211981752 0.3662080675418142 0.3048743641840603	0.092250
C	0.3835761319959717 0.4194790749595577 0.3012660450309293	-0.171465
C	0.4173016285727414 0.3859728006932387 0.5686114230289300	-0.168761
C	0.3645952476942667 0.3334797583515755 0.5643393763274029	0.089938
C	0.1687700658018273 0.1337919324581857 0.3048743641840603	0.092250
C	0.1164238680040282 0.0805209250404424 0.3012660450309293	-0.171465
C	0.0826983714272586 0.1140271993067615 0.5686114230289300	-0.168760
C	0.1354047393057357 0.1665202416484246 0.5643393763274029	0.089939
C	0.3662080675418142 0.1687700658018273 0.3048743641840603	0.092250
C	0.4194790749595577 0.1164238680040282 0.3012660450309293	-0.171464
C	0.3859728006932387 0.0826983714272586 0.5686114230289300	-0.168761
C	0.3334797583515755 0.1354047393057357 0.5643393763274029	0.089938
C	0.1337919324581857 0.3312299211981752 0.3048743641840603	0.092250
C	0.0805209250404424 0.3835761319959717 0.3012660450309293	-0.171464
C	0.1140271993067615 0.4173016285727414 0.5686114230289300	-0.168760
C	0.1665202416484246 0.3645952476942667 0.5643393763274029	0.089939
C	0.4312416561296994 0.0721146089884876 0.4354756075541187	0.139773
C	0.4872309177533113 0.0172066999037973 0.4331756984570517	-0.121159
C	0.0687583248702955 0.4278853600115134 0.4354756075541187	0.139769
C	0.0127690562466867 0.4827932860962016 0.4331756984570517	-0.121157
C	0.4278853600115134 0.4312416561296994 0.4354756075541187	0.139773
C	0.4827932860962016 0.4872309177533113 0.4331756984570517	-0.121159
C	0.0721146089884876 0.0687583248702955 0.4354756075541187	0.139769
C	0.0172066999037973 0.0127690562466867 0.4331756984570517	-0.121157
C	0.5689156815729941 0.5719757144328025 0.5633086321603556	0.140202
C	0.5129154263694529 0.5170921249232135 0.5649042405805604	-0.120428
C	0.9310843684270100 0.9280243355672017 0.5633086321603556	0.140202
C	0.9870845226305465 0.9829078750767865 0.5649042405805605	-0.120431
C	0.5719757144328025 0.9310843684270100 0.5633086321603556	0.140202
C	0.5170921249232135 0.9870845226305465 0.5649042405805605	-0.120429
C	0.9280243355672017 0.5689156815729941 0.5633086321603556	0.140202
C	0.9829078750767865 0.5129154263694529 0.5649042405805605	-0.120431
H	0.7028277286409388 0.8569785155935407 0.7992928146624064	0.113810
H	0.6099355143899144 0.9524769415247495 0.8064323711369283	0.121965
H	0.5500583020293902 0.8893761659109480 0.3235603125842213	0.121434
H	0.6472051934131420 0.7983807187938400 0.3343573479908735	0.120335
H	0.7971722713590612 0.6430214334064587 0.7992928146624064	0.113810
H	0.8900644856100856 0.5475230084752535 0.8064323711369283	0.121965
H	0.9499416469706091 0.6106237830890513 0.3235603125842213	0.121434
H	0.8527948065868580 0.7016192812061600 0.3343573479908735	0.120335
H	0.6430214334064587 0.7028277286409388 0.7992928146624064	0.113810
H	0.5475230084752535 0.6099355143899144 0.8064323711369283	0.121964
H	0.6106237830890513 0.5500583020293902 0.3235603125842213	0.121434
H	0.7016192812061600 0.6472051934131420 0.3343573479908734	0.120335
H	0.8569785155935407 0.7971722713590612 0.7992928146624064	0.113810
H	0.9524769415247495 0.8900644856100856 0.8064323711369283	0.121964
H	0.8893761659109480 0.9499416469706091 0.3235603125842213	0.121434
H	0.7983807187938400 0.8527948065868580 0.3343573479908735	0.120335
H	0.2970524451789540 0.3549479436430406 0.2018152202637776	0.119708
H	0.3892233561105551 0.4517098169173358 0.1926373976695015	0.121562
H	0.4507232824311320 0.3901666707651404 0.6754819109740331	0.121088
H	0.3548499470274634 0.2985173456371026 0.6667466511980676	0.112601
H	0.2029475678210508 0.1450520693569640 0.2018152202637776	0.119708
H	0.1107766178894427 0.0482902020826622 0.1926373976695015	0.121562
H	0.0492767485688670 0.1098333162348550 0.6754819109740331	0.121088
H	0.1451500529725366 0.2014826413629000 0.6667466511980676	0.112601
H	0.3549479436430406 0.2029475678210508 0.2018152202637776	0.119708
H	0.4517098169173358 0.1107766178894427 0.1926373976695015	0.121562
H	0.3901666707651404 0.0492767485688670 0.6754819109740331	0.121088
H	0.2985173456371026 0.1451500529725366 0.6667466511980676	0.112601
H	0.1450520693569640 0.2970524451789540 0.2018152202637776	0.119708
H	0.0482902020826622 0.3892233561105551 0.1926373976695015	0.121562
H	0.1098333162348550 0.4507232824311320 0.6754819109740331	0.121088
H	0.2014826413629000 0.3548499470274634 0.6667466511980676	0.112601
H	0.5068124767463466 0.0016701647950796 0.3143325077920538	0.105833
H	0.9931874732536564 0.4983298332049202 0.3143325077920538	0.105836
H	0.4983298332049202 0.5068124767463466 0.3143325077920538	0.105833
H	0.0016701647950796 0.9931874732536564 0.3143325077920538	0.105836
H	0.4933893942948099 0.5014287788333106 0.6837580801909348	0.104679
H	0.0066105867051922 0.9985712711666864 0.6837580801909348	0.104679
H	0.5014287788333106 0.0066105867051922 0.6837580801909348	0.104679
H	0.9985712711666864 0.4933893942948099 0.6837580801909348	0.104679
Ni	0.2500000000000000 0.2500000000000000 0.4353343837942268	0.465687
Ni	0.7500000000000000 0.7500000000000000 0.5682533901582989	0.464548
V	0.2500000000000000 0.2500000000000000 0.9173488000738071	2.250069
V	0.7500000000000000 0.7500000000000000 0.0475953419553059	2.251485
F	0.2500000000000000 0.2500000000000000 0.1573744119464729	-0.638022
F	0.7500000000000000 0.7500000000000000 0.2876110276167663	-0.637826
F	0.3217288690315371 0.3197528835592154 0.9384152340002679	-0.603475
F	0.1782711309684628 0.1802471034407871 0.9384152340002679	-0.603475
F	0.1802471034407871 0.3217288690315371 0.9384152340002679	-0.603475
F	0.3197528835592154 0.1782711309684628 0.9384152340002679	-0.603475
F	0.6795250294028583 0.8210717155426240 0.0685612233054634	-0.603888
F	0.8204749705971417 0.6789282844573760 0.0685612233054634	-0.603888
F	0.8210717155426240 0.8204749705971417 0.0685612233054634	-0.603888
F	0.6789282844573760 0.6795250294028583 0.0685612233054634	-0.603888
O	0.2500000000000000 0.2500000000000000 0.7188295185971798	-0.815827
O	0.7500000000000000 0.7500000000000000 0.8492636574607743	-0.817349
N	0.3239412798782268 0.1780418643537844 0.4348545681002696	-0.153047
N	0.1760587201217731 0.3219581356462156 0.4348545681002696	-0.153047
N	0.3219581356462156 0.3239412798782268 0.4348545681002696	-0.153047
N	0.1780418643537844 0.1760587201217731 0.4348545681002696	-0.153047
N	0.6756185102530722 0.6784729273610168 0.5668783829832259	-0.151835
N	0.8243814897469278 0.8215270726389832 0.5668783829832259	-0.151835
N	0.6784729273610168 0.8243814897469278 0.5668783829832259	-0.151835
N	0.8215270726389832 0.6756185102530722 0.5668783829832259	-0.151835
	  	
