#======================================================================

# CRYSTAL DATA

#----------------------------------------------------------------------

data_VESTA_phase_1


_pd_phase_name                         VOFFIVE_7_Zn
_cell_length_a                         19.27224
_cell_length_b                         19.27224
_cell_length_c                         7.97273
_cell_angle_alpha                      90
_cell_angle_beta                       90
_cell_angle_gamma                      90
_symmetry_space_group_name_H-M         P 1
_symmetry_Int_Tables_number            1

loop_
_symmetry_equiv_pos_as_xyz
   x, y, z

loop_
   _atom_site_label
   _atom_site_fract_x
   _atom_site_fract_y
   _atom_site_fract_z
   _atom_site_charge
C	0.6646119783106602 0.8724835838025202 0.6981244587930500	0.103877
C	0.6139224675272036 0.9236593145667821 0.7023678306182378	-0.178688
C	0.5790240410840827 0.8881711991339689 0.4269034314271992	-0.172771
C	0.6303724249832121 0.8377495641372213 0.4326018180105198	0.098920
C	0.8353880216893398 0.6275164161974798 0.6981244587930500	0.103885
C	0.8860775324727964 0.5763406854332179 0.7023678306182378	-0.178709
C	0.9209759089159203 0.6118288518660318 0.4269034314271992	-0.172758
C	0.8696275250167909 0.6622504358627787 0.4326018180105198	0.098918
C	0.6275164161974798 0.6646119783106602 0.6981244587930500	0.103885
C	0.5763406854332179 0.6139224675272036 0.7023678306182378	-0.178709
C	0.6118288518660318 0.5790240410840827 0.4269034314271992	-0.172758
C	0.6622504358627787 0.6303724249832121 0.4326018180105198	0.098919
C	0.8724835838025202 0.8353880216893398 0.6981244587930500	0.103877
C	0.9236593145667821 0.8860775324727964 0.7023678306182378	-0.178687
C	0.8881711991339689 0.9209759089159203 0.4269034314271992	-0.172771
C	0.8377495641372213 0.8696275250167909 0.4326018180105198	0.098920
C	0.3351990486388063 0.3723110746241813 0.3021765153727482	0.103329
C	0.3858550765058886 0.4236074418497837 0.2977254894522315	-0.177436
C	0.4210044365478589 0.3884103408863430 0.5731993500752187	-0.175540
C	0.3697625074565343 0.3379370543212879 0.5677394206433690	0.100621
C	0.1648009383611961 0.1276889253758187 0.3021765153727482	0.103329
C	0.1141449234941112 0.0763925581502164 0.2977254894522315	-0.177436
C	0.0789955634521412 0.1115896591136570 0.5731993500752187	-0.175541
C	0.1302374795434681 0.1620629456787122 0.5677394206433690	0.100621
C	0.3723110746241813 0.1648009383611961 0.3021765153727482	0.103329
C	0.4236074418497837 0.1141449234941112 0.2977254894522315	-0.177435
C	0.3884103408863430 0.0789955634521412 0.5731993500752187	-0.175540
C	0.3379370543212879 0.1302374795434681 0.5677394206433690	0.100621
C	0.1276889253758187 0.3351990486388063 0.3021765153727482	0.103329
C	0.0763925581502164 0.3858550765058886 0.2977254894522315	-0.177436
C	0.1115896591136570 0.4210044365478589 0.5731993500752187	-0.175540
C	0.1620629456787122 0.3697625074565343 0.5677394206433690	0.100621
C	0.4333341115628136 0.0699700862096484 0.4359581460792879	0.139310
C	0.4872363383153290 0.0168057165051864 0.4318713243203747	-0.121685
C	0.0666658694371813 0.4300298827903526 0.4359581460792879	0.139308
C	0.0127636356846688 0.4831942694948124 0.4318713243203747	-0.121666
C	0.4300298827903526 0.4333341115628136 0.4359581460792879	0.139308
C	0.4831942694948124 0.4872363383153290 0.4318713243203747	-0.121666
C	0.0699700862096484 0.0666658694371813 0.4359581460792879	0.139310
C	0.0168057165051864 0.0127636356846688 0.4318713243203747	-0.121685
C	0.5668155347015712 0.5698326906714093 0.5638850760322388	0.138750
C	0.5128254248483882 0.5167700204471896 0.5677285031530659	-0.122410
C	0.9331845152984329 0.9301673593285948 0.5638850760322388	0.138724
C	0.9871745241516111 0.9832299795528104 0.5677285031530659	-0.122351
C	0.5698326906714093 0.9331845152984329 0.5638850760322388	0.138724
C	0.5167700204471896 0.9871745241516111 0.5677285031530659	-0.122351
C	0.9301673593285948 0.5668155347015712 0.5638850760322388	0.138750
C	0.9832299795528104 0.5128254248483882 0.5677285031530659	-0.122410
H	0.6989210445057663 0.8639220069682703 0.8045700406590316	0.100112
H	0.6091811621542074 0.9563124726684562 0.8133426416174933	0.115736
H	0.5456391734804983 0.8912238239550467 0.3169620993568420	0.116224
H	0.6392911511348441 0.8029884404477463 0.3271863800232522	0.109503
H	0.8010789554942337 0.6360779420317291 0.8045700406590316	0.100111
H	0.8908188378457926 0.5436874773315468 0.8133426416174933	0.115750
H	0.9543607755195010 0.6087761250449526 0.3169620993568420	0.116222
H	0.8607088488651559 0.6970115595522537 0.3271863800232522	0.109502
H	0.6360779420317291 0.6989210445057663 0.8045700406590316	0.100111
H	0.5436874773315468 0.6091811621542074 0.8133426416174933	0.115749
H	0.6087761250449526 0.5456391734804983 0.3169620993568420	0.116222
H	0.6970115595522537 0.6392911511348441 0.3271863800232522	0.109502
H	0.8639220069682703 0.8010789554942337 0.8045700406590316	0.100112
H	0.9563124726684562 0.8908188378457926 0.8133426416174933	0.115736
H	0.8912238239550467 0.9543607755195010 0.3169620993568420	0.116224
H	0.8029884404477463 0.8607088488651559 0.3271863800232522	0.109503
H	0.3010876953509091 0.3630001644467931 0.1956550711807755	0.108368
H	0.3906388497611325 0.4561014727827641 0.1864518077566122	0.115586
H	0.4545276185971676 0.3914070582298892 0.6828584912506006	0.116820
H	0.3616021622261772 0.3029827041164306 0.6731030864689520	0.101251
H	0.1989123176490954 0.1369998485532115 0.1956550711807755	0.108368
H	0.1093611242388654 0.0438985462172340 0.1864518077566122	0.115586
H	0.0454724124028315 0.1085929287701061 0.6828584912506006	0.116820
H	0.1383978377738229 0.1970172828835718 0.6731030864689520	0.101251
H	0.3630001644467931 0.1989123176490954 0.1956550711807755	0.108368
H	0.4561014727827641 0.1093611242388654 0.1864518077566122	0.115586
H	0.3914070582298892 0.0454724124028315 0.6828584912506006	0.116820
H	0.3029827041164306 0.1383978377738229 0.6731030864689520	0.101251
H	0.1369998485532115 0.3010876953509091 0.1956550711807755	0.108368
H	0.0438985462172340 0.3906388497611325 0.1864518077566122	0.115586
H	0.1085929287701061 0.4545276185971676 0.6828584912506006	0.116820
H	0.1970172828835718 0.3616021622261772 0.6731030864689520	0.101251
H	0.5057733366260821 0.0022613149279505 0.3070489242769361	0.102224
H	0.9942266133739208 0.4977386830720495 0.3070489242769361	0.102222
H	0.4977386830720495 0.5057733366260821 0.3070489242769361	0.102222
H	0.0022613149279505 0.9942266133739208 0.3070489242769361	0.102224
H	0.4942493976284061 0.5022447539066247 0.6925472082809027	0.102477
H	0.0057505833715959 0.9977552960933723 0.6925472082809027	0.102467
H	0.5022447539066247 0.0057505833715959 0.6925472082809027	0.102467
H	0.9977552960933723 0.4942493976284061 0.6925472082809027	0.102477
Zn	0.2500000000000000 0.2500000000000000 0.4305210618549172	0.754770
Zn	0.7500000000000000 0.7500000000000000 0.5625361554766277	0.755881
V	0.2500000000000000 0.2500000000000000 0.9128769610473551	2.251740
V	0.7500000000000000 0.7500000000000000 0.0429619232407482	2.254194
F	0.2500000000000000 0.2500000000000000 0.1723855720763700	-0.621049
F	0.7500000000000000 0.7500000000000000 0.3033221561018778	-0.622055
F	0.3186104003798118 0.3163792897353691 0.9390738521409836	-0.583249
F	0.1813895996201881 0.1836206972646333 0.9390738521409836	-0.583249
F	0.1836206972646333 0.3186104003798118 0.9390738521409836	-0.583249
F	0.3163792897353691 0.1813895996201881 0.9390738521409836	-0.583249
F	0.6822631769901597 0.8172028549199631 0.0691789919020108	-0.583341
F	0.8177368230098403 0.6827971450800369 0.0691789919020108	-0.583341
F	0.8172028549199631 0.8177368230098403 0.0691789919020108	-0.583341
F	0.6827971450800369 0.6822631769901597 0.0691789919020108	-0.583341
O	0.2500000000000000 0.2500000000000000 0.7046843830151089	-0.814012
O	0.7500000000000000 0.7500000000000000 0.8348202528201298	-0.814869
N	0.3300175322755845 0.1727182354822220 0.4350127550715695	-0.222382
N	0.1699824677244153 0.3272817645177779 0.4350127550715695	-0.222382
N	0.3272817645177779 0.3300175322755845 0.4350127550715695	-0.222382
N	0.1727182354822220 0.1699824677244153 0.4350127550715695	-0.222382
N	0.6699506026327143 0.6727254939732317 0.5657000963782112	-0.221777
N	0.8300493973672857 0.8272745060267683 0.5657000963782112	-0.221777
N	0.6727254939732317 0.8300493973672857 0.5657000963782112	-0.221777
N	0.8272745060267683 0.6699506026327143 0.5657000963782112	-0.221777
	  	
