#======================================================================

# CRYSTAL DATA

#----------------------------------------------------------------------

data_VESTA_phase_1


_pd_phase_name                         VOFFIVE_18_Zn
_cell_length_a                         14.13525
_cell_length_b                         13.81741
_cell_length_c                         8.15500
_cell_angle_alpha                      89.71704
_cell_angle_beta                       95.20889
_cell_angle_gamma                      90.13681
_symmetry_space_group_name_H-M         P 1
_symmetry_Int_Tables_number            1

loop_
_symmetry_equiv_pos_as_xyz
   x, y, z

loop_
   _atom_site_label
   _atom_site_fract_x
   _atom_site_fract_y
   _atom_site_fract_z
   _atom_site_charge
F	0.4044074947583751 0.3780309981254142 0.5126881103944874	-0.568268
F	0.5168770797985047 0.4814183629947381 0.7355744574137848	-0.624271
F	0.4075988510540899 0.5647888411743481 0.5111119066975011	-0.557420
F	0.9044075617583770 0.8780309641254184 0.5126881103944874	-0.568285
F	0.0168770527985059 0.9814182939947429 0.7355744574137848	-0.624275
F	0.9075987840540878 0.0647888621743462 0.5111119066975011	-0.557428
F	0.5807989914286621 0.3661740057565737 0.5048232432874817	-0.570956
F	0.6008123684417674 0.5537795072462393 0.4976028865029540	-0.559386
F	0.0807990174286640 0.8661739717565778 0.5048232432874817	-0.570958
F	0.1008123604417671 0.0537795282462380 0.4976028865029540	-0.559391
O	0.4835310216804797 0.4761516758501649 0.2791888630315437	-0.778698
O	0.9835309886804809 0.9761516068501701 0.2791888630315437	-0.778715
C	0.6830500298200254 0.1515968224771994 0.6581490724210701	-0.424579
C	0.7564030962323627 0.1497762531494335 0.8008602775780127	0.208573
C	0.7602445921671185 0.1965721640779999 0.9534557660888259	-0.152630
C	0.6888700378352191 0.2605271043360278 0.0133144391418944	-0.146296
C	0.6741531399183328 0.3596549487438098 0.9721902719832926	0.219978
C	0.7290281098501192 0.4218567353964842 0.8648384799963736	-0.426941
C	0.8915370960979817 0.2068593944581466 0.1985898398630598	-0.433299
C	0.8497433140155192 0.1718468376813368 0.0354367737188820	0.214567
C	0.6221317571829731 0.2382414644324386 0.1250746501035582	0.207327
C	0.6004578021267264 0.1465807112833852 0.2107992085532810	-0.425253
C	0.1830500468200237 0.6515968564771953 0.6581490724210701	-0.424580
C	0.2564031302323582 0.6497762871494361 0.8008602775780128	0.208572
C	0.2602446431671192 0.6965721980779956 0.9534557660888259	-0.152628
C	0.1888700718352144 0.7605271043360278 0.0133144391418944	-0.146296
C	0.1741531149183270 0.8596549827438127 0.9721902719832926	0.219985
C	0.2290281598501163 0.9218567693964802 0.8648384799963736	-0.426960
C	0.3915370290979795 0.7068593774581413 0.1985898398630598	-0.433303
C	0.3497433810155208 0.6718468376813366 0.0354367737188820	0.214563
C	0.1221317571829801 0.7382414814324365 0.1250746501035582	0.207327
C	0.1004577431267320 0.6465807282833839 0.2107992085532810	-0.425252
C	0.3173883529591560 0.1519274997410131 0.3432733976477270	-0.424390
C	0.2442887495678742 0.1496832689996432 0.2001545572464600	0.207129
C	0.2407276881285265 0.1964707755926130 0.0469115544324064	-0.151964
C	0.3119402182310502 0.2611812826193552 0.9868232186387252	-0.149831
C	0.3260593125413959 0.3601802562280456 0.0278725940735865	0.216696
C	0.2694810567927969 0.4213951021275814 0.1326762787475461	-0.421850
C	0.1094795855025543 0.2059139836328739 0.8009556859322609	-0.437146
C	0.1514505862340694 0.1712739112809772 0.9647327870274156	0.218146
C	0.3784930833908693 0.2404750508276223 0.8742218712230059	0.209943
C	0.4004519299686043 0.1496974376938226 0.7878968796422400	-0.425629
C	0.8173883859591552 0.6519275337410088 0.3432733976477270	-0.424372
C	0.7442887825678736 0.6496833029996459 0.2001545572464600	0.207167
C	0.7407277221285296 0.6964708095926090 0.0469115544324064	-0.151977
C	0.8119402522310533 0.7611812826193551 0.9868232186387252	-0.149829
C	0.8260592785414000 0.8601802902280481 0.0278725940735865	0.216700
C	0.7694811247927953 0.9213951361275771 0.1326762787475461	-0.421858
C	0.6094795225025527 0.7059139666328691 0.8009556859322609	-0.437145
C	0.6514506372340703 0.6712739112809769 0.9647327870274156	0.218146
C	0.8784930833908692 0.7404750678276205 0.8742218712230059	0.209944
C	0.9004518629686026 0.6496974546938206 0.7878968796422400	-0.425632
H	0.7148148795369802 0.1718737056809664 0.5447514997820267	0.149997
H	0.6282884430221189 0.2050964454476178 0.6788704623963384	0.144883
H	0.6492699394314335 0.0802526900260647 0.6376938556713526	0.133331
H	0.6814225986251995 0.4627885463595412 0.7763921777937749	0.153139
H	0.7763364756471069 0.3769309124958709 0.7977554746614554	0.137621
H	0.7731011651698350 0.4738926910075880 0.9398702596705438	0.125184
H	0.8650755051986139 0.0681416608025539 0.6994267709001103	0.287983
H	0.8964791874229656 0.1496638068708738 0.2928105769873794	0.153966
H	0.8470112279466100 0.2651110492826279 0.2405281966847307	0.133467
H	0.9636033383872366 0.2351090996839104 0.1897406820200192	0.139704
H	0.5754414314217169 0.1614985038412929 0.3316956583649077	0.143980
H	0.6636072428768038 0.1003276720036436 0.2276267606135895	0.150229
H	0.5441824223710797 0.1053380306879187 0.1393749759145657	0.131866
H	0.5232798500868887 0.3346996016223314 0.2225350719040445	0.272002
H	0.2148148455369846 0.6718737056809664 0.5447514997820267	0.149998
H	0.1282884520221159 0.7050963944476167 0.6788704623963384	0.144884
H	0.1492699134314317 0.5802526730260669 0.6376938556713526	0.133331
H	0.1814226326251952 0.9627885803595443 0.7763921777937749	0.153141
H	0.2763365256471038 0.8769309464958734 0.7977554746614554	0.137629
H	0.2731011651698346 0.9738926560075816 0.9398702596705438	0.125187
H	0.3650755721986159 0.5681416518025565 0.6994267709001103	0.287983
H	0.3964791874229653 0.6496638068708743 0.2928105769873794	0.153967
H	0.3470112279466095 0.7651110142826281 0.2405281966847307	0.133469
H	0.4636033383872365 0.7351091166839085 0.1897406820200192	0.139705
H	0.0754414104217188 0.6614985208412909 0.3316956583649077	0.143980
H	0.1636072928768009 0.6003276640036501 0.2276267606135895	0.150229
H	0.0441823843710764 0.6053379786879143 0.1393749759145657	0.131866
H	0.0232798360868876 0.8346996366223310 0.2225350719040445	0.272000
H	0.2856494126019370 0.1722535260598732 0.4562473796005320	0.152219
H	0.3722294163373768 0.2055024227785418 0.3213650106327930	0.140445
H	0.3512153934840093 0.0807656436394014 0.3651131992803355	0.134712
H	0.3154656457921787 0.4642169981129752 0.2202930136337053	0.146354
H	0.2229823640557725 0.3756593023610421 0.2010148422768944	0.137318
H	0.2245994313650048 0.4719783742193911 0.0555166436620902	0.127502
H	0.1368097203773243 0.0670627113063689 0.3033433107032301	0.281410
H	0.1018483581039413 0.1476355787691722 0.7097110096086365	0.159154
H	0.1550344328818584 0.2626917022753966 0.7556614812921861	0.133673
H	0.0384310905124309 0.2362071230973778 0.8108397925869819	0.139439
H	0.4256857344806114 0.1660238134549132 0.6673273249963695	0.145622
H	0.3371945805498010 0.1034113906578040 0.7705009355327928	0.150151
H	0.4566879570478530 0.1082310646561216 0.8594214347391473	0.131244
H	0.4746233409449078 0.3403942982219472 0.7733972180052879	0.279663
H	0.7856494466019394 0.6722535260598734 0.4562473796005320	0.152212
H	0.8722294163373769 0.7055023717785411 0.3213650106327930	0.140457
H	0.8512153604840103 0.5807656266394037 0.3651131992803355	0.134669
H	0.8154656787921778 0.9642170321129777 0.2202930136337053	0.146354
H	0.7229823980557747 0.8756593363610452 0.2010148422768944	0.137325
H	0.7245994143650071 0.9719783392193851 0.0555166436620902	0.127503
H	0.6368097623773277 0.5670627023063717 0.3033433107032301	0.281411
H	0.6018484001039447 0.6476355787691722 0.7097110096086365	0.159154
H	0.6550344498818564 0.7626916672753969 0.7556614812921861	0.133674
H	0.5384310695124331 0.7362071400973755 0.8108397925869819	0.139439
H	0.9256857344806110 0.6660238304549110 0.6673273249963695	0.145622
H	0.8371946485497991 0.6034113826578098 0.7705009355327928	0.150152
H	0.9566879570478528 0.6082310126561173 0.8594214347391473	0.131247
H	0.9746233409449073 0.8403943332219462 0.7733972180052879	0.279663
N	0.8381403149784763 0.0998626144240134 0.7996346790061131	-0.146154
N	0.6024599908148274 0.3946302474739123 0.0520855755622586	-0.238043
N	0.8959944698474209 0.1125751617351813 0.9394977090580389	-0.240777
N	0.5728339161802030 0.3202557883311042 0.1430367505400929	-0.143337
N	0.3381402479784744 0.5998625974240082 0.7996346790061131	-0.146155
N	0.1024600078148249 0.8946302824739113 0.0520855755622586	-0.238051
N	0.3959944358474184 0.6125751957351768 0.9394977090580389	-0.240772
N	0.0728339161802027 0.8202557883311045 0.1430367505400929	-0.143336
N	0.1626111051902531 0.0991594933199243 0.2018253755591346	-0.144979
N	0.3974267469493937 0.3962962399272086 0.9476857879471565	-0.237522
N	0.1050497601013471 0.1115374559230642 0.0610259487340456	-0.241813
N	0.4272229434894909 0.3231080726018313 0.8560908038630451	-0.141394
N	0.6626111051902527 0.5991594763199196 0.2018253755591346	-0.144992
N	0.8974267469493938 0.8962962749272081 0.9476857879471565	-0.237528
N	0.6050497851013452 0.6115374899230593 0.0610259487340456	-0.241806
N	0.9272229434894907 0.8231080726018309 0.8560908038630451	-0.141393
V	0.4969753286655680 0.4681728127769732 0.4813760828068352	2.216266
V	-0.0030246693344318 0.9681728817769679 0.4813760828068352	2.216310
Zn	0.5015094573782930 0.5083193281363901 -0.0103004923799133	0.777942
Zn	0.0015094573782932 0.0083193321363903 -0.0103004923799133	0.777954
	  	
