#======================================================================

# CRYSTAL DATA

#----------------------------------------------------------------------

data_VESTA_phase_1


_pd_phase_name                         VOFFIVE_13_Fe_i
_cell_length_a                         15.30134
_cell_length_b                         15.29955
_cell_length_c                         7.70628
_cell_angle_alpha                      89.69776
_cell_angle_beta                       90.20382
_cell_angle_gamma                      89.74847
_symmetry_space_group_name_H-M         P 1
_symmetry_Int_Tables_number            1

loop_
_symmetry_equiv_pos_as_xyz
   x, y, z

loop_
   _atom_site_label
   _atom_site_fract_x
   _atom_site_fract_y
   _atom_site_fract_z
   _atom_site_charge
C	0.5406616691244959 0.6812846561267373 0.8702884150986082	0.105013
C	0.5439266814878856 0.7724109313300384 0.8673408620121029	-0.150003
C	0.4626412660034299 0.3218152413700269 0.8756272736733408	0.104354
C	0.4594609237274044 0.2307344616844731 0.8754148886114991	-0.141364
C	0.8161469485322840 0.9733351462849905 0.3621829485331966	0.107218
C	0.7256191647284888 0.9699970220988914 0.3578015521057369	-0.135650
C	0.3208507614896018 0.5418073007986819 0.8678810570951259	0.102894
C	0.2297594907130216 0.5458640878638517 0.8643071749784431	-0.150439
C	0.1860313598099420 0.9706546924169271 0.3529304424566733	0.100421
C	0.2766284025834038 0.9693227287877852 0.3498452419991517	-0.135681
C	0.6802815648110445 0.4629250853423967 0.8814103348952198	0.104837
C	0.7713056074669359 0.4597810069382862 0.8804772913664929	-0.141052
C	0.4543890165268351 0.6821351224553954 0.1172338759396978	0.106097
C	0.4512776991657367 0.7730623531271215 0.1180849968650493	-0.140553
C	0.5404182739941555 0.3221064836818098 0.1347306183022962	0.103665
C	0.5431514006713752 0.2310468726512360 0.1394446721504607	-0.150583
C	0.1845342314302138 0.0210968288366607 0.6374814368518149	0.108821
C	0.2749249776298514 0.0230812213527624 0.6448318947288298	-0.140712
C	0.6795124539583139 0.5444855884021073 0.1343158499472938	0.104017
C	0.7705695223937815 0.5475291394441467 0.1377547994062740	-0.152723
C	0.8154562082324724 0.0309548990639139 0.6413939430876637	0.102996
C	0.7249691935466306 0.0313238006787371 0.6469882293194469	-0.136578
C	0.3194768286886123 0.4574598717621184 0.1189455601230940	0.105166
C	0.2285265221305622 0.4550982956473157 0.1193911582815552	-0.141287
C	0.9640446642003961 0.8135374714296881 0.6359880764522509	0.108605
C	0.9636255950254922 0.7229512543141835 0.6436514901011673	-0.135059
C	0.9828102273990494 0.1831633606409668 0.6446353993822810	0.104365
C	0.9790832937123889 0.2735336392381760 0.6470430913559106	-0.137907
C	0.0212638983228655 0.8130637516984872 0.3564170953276271	0.100171
C	0.0245813713057996 0.7225935359267104 0.3540129331161307	-0.134724
C	0.0319447263921229 0.1821899475391057 0.3588458764299616	0.107497
C	0.0316753708397996 0.2728356197545561 0.3509236439480642	-0.135038
C	0.0038818080996565 0.3188027531725290 0.4973459916569585	0.050820
C	0.0010158182979628 0.4139815643066598 0.4967718900374644	0.254960
C	0.4980870911702009 0.8200808299459702 0.9927072653958590	0.057866
C	0.4991274864691527 0.9171213355022343 0.9970320083933969	0.248309
C	0.9952555221892537 0.6770494453499766 0.5003084478998000	0.046753
C	0.9974052240679424 0.5817515232322465 0.5005116947388129	0.247170
C	0.5009881760569702 0.1835858833680294 0.0089564847073141	0.056493
C	0.5003710097331112 0.0864085215448377 0.0096006897805931	0.254420
C	0.6796118909186807 -0.0002253825619181 0.5027192435669574	0.047272
C	0.5843695600066321 0.9975292123559220 0.5038364479810479	0.245868
C	0.1818043830069368 0.5012085174600791 0.9913115634619324	0.057949
C	0.0847003889679235 0.5023058672693450 0.9934140388716759	0.250870
C	0.3214408973288658 0.9961118996428523 0.4986219643078158	0.053717
C	0.4166248024991802 0.9959731574917264 0.5017423781871280	0.253283
C	0.8182775525219397 0.5036786434677347 0.0097832099641554	0.055802
C	0.9154057738436496 0.5034358298999904 0.0072518341530033	0.251760
H	0.5718099981754093 0.6425740152195941 0.7691505753579344	0.107375
H	0.5810299363959388 0.8051363538037410 0.7657569529636188	0.122841
H	0.4348375697847404 0.3601340681453097 0.7688946552744625	0.108390
H	0.4272663562249703 0.1966907368172862 0.7693828796199716	0.117742
H	0.8549975573755937 0.9520848121873078 0.2517747086246115	0.110262
H	0.6913721659499187 0.9454278951076036 0.2441208395350217	0.123209
H	0.3597342171689883 0.5720139851149086 0.7655450790716792	0.108214
H	0.1973355441801808 0.5826429647740764 0.7609557082814967	0.123914
H	0.1483372396629333 0.9525503400013577 0.2385790204680193	0.105274
H	0.3114845066288390 0.9494158724424893 0.2334975638595013	0.118472
H	0.6420160331419457 0.4336207658387323 0.7773122196893418	0.108302
H	0.8054567259163572 0.4259356482728790 0.7766623135929379	0.117646
H	0.4223649703548274 0.6441743065772267 0.2187451742716970	0.102729
H	0.4157523152468705 0.8070038362558165 0.2198591890091541	0.116005
H	0.5694377294586572 0.3603754263189707 0.2390178283688063	0.101533
H	0.5768253523129746 0.1983666730659091 0.2466022502812425	0.122605
H	0.1456397974421041 0.0406368092227611 0.7488695443122552	0.102671
H	0.3084355419260911 0.0438761964222637 0.7623378730665036	0.122015
H	0.6411506511669960 0.5747819085192625 0.2370204174007299	0.102646
H	0.8030607418033308 0.5827645700680205 0.2420441421429608	0.123691
H	0.8533072851654586 0.0527227329712683 0.7528491571729520	0.097779
H	0.6906205762046055 0.0540975357767155 0.7618380111034960	0.123942
H	0.3571995941956697 0.4259742536750768 0.2223310719630578	0.103449
H	0.1942469723926462 0.4204566792288147 0.2223619920462247	0.115791
H	0.9414495794780677 0.8521637222627846 0.7455481760549145	0.105186
H	0.9406964583273607 0.6890251372653479 0.7593723807818709	0.121909
H	0.9656842007404866 0.1455555427463817 0.7596621134264211	0.095604
H	0.9583348371930598 0.3081037253052275 0.7630851110555887	0.123275
H	0.0413375683759171 0.8510532777462473 0.2436528379920301	0.104933
H	0.0486673855397386 0.6881105980112231 0.2405116841063353	0.121374
H	0.0511864381975448 0.1431504967065064 0.2472117700649427	0.112679
H	0.0507634015584690 0.3069153762159417 0.2326005009869038	0.121473
N	0.9434438106953789 0.5390995791881510 0.6101231417207920	-0.154886
N	0.4219725696800310 0.0459009406292944 0.0087682082451803	-0.160995
N	0.5426149227133344 0.0511073772913132 0.6153748992284368	-0.151979
N	0.9565808236916582 0.4250488811897450 0.0025783148728038	-0.158386
N	0.0528308923722973 0.5426241259846126 0.3886424370987309	-0.152547
N	0.5781276523705516 0.0440334152853884 0.0112951916424136	-0.158271
N	0.9570373977431126 0.5812393522603188 0.0049227344765977	-0.157976
N	0.5444758357121081 0.9411701371758054 0.3952518642940396	-0.151905
N	0.0550536718719119 0.4566421566474688 0.3876974004536713	-0.147977
N	0.5775203640883062 0.9576305361836456 0.0007263775499142	-0.157511
N	0.4584281887956716 0.9403765431989782 0.3945075508389912	-0.147863
N	0.0434301614105373 0.5806684663792018 0.9939824995945572	-0.155795
N	0.9448604207294069 0.4530440994185800 0.6070260808786252	-0.149177
N	0.4214375261814082 0.9593763913346373 0.0054148839051818	-0.154269
N	0.0430982669239830 0.4244758600886135 0.9983412909398620	-0.159344
N	0.4566135478232538 0.0503570667725369 0.6139775743620920	-0.151086
N	0.0075743318882057 0.1384538612380095 0.5028656170772330	-0.190686
N	0.4979520149950403 0.6363945494962713 0.9951566847043526	-0.238854
N	0.9926932604803963 0.8575709543857954 0.4955493953115497	-0.188770
N	0.5013388195774505 0.3672479452626817 0.0045392458373499	-0.241475
N	0.8599990918336339 0.0028540224171872 0.5018585518158255	-0.193049
N	0.3654643608805397 0.4995568447795161 0.9947968334186311	-0.240286
N	0.1410535248087526 0.9951972392381111 0.4944996941007931	-0.191262
N	0.6345530368933385 0.5036619951976441 0.0073709292742009	-0.239410
Fe	0.0004034157008446 0.9980659799688265 0.4970721229376289	0.775985
Fe	0.4998580500513261 0.5019005074721408 0.0027973895163489	0.891779
V	0.0004325959530696 0.9959689783132305 0.9765813949114160	2.233016
V	0.4991970257083448 0.5034226195002717 0.4759915381632765	2.250271
F	0.9998092933924236 -0.0015773320137449 0.2417086824198843	-0.599152
F	0.5036325114232724 0.5004320929666738 0.7426753469220032	-0.612912
F	0.0856982807146790 0.0801131716604226 0.0018138321403407	-0.565867
F	0.5832891430018617 0.5902529133609142 0.4980486096072206	-0.569007
F	0.9153455371695013 0.9122312989631296 0.0054895631790447	-0.564772
F	0.4155691742292913 0.4166341940818488 0.5035017138183483	-0.570582
F	0.9164801337643794 0.0821105831386794 0.9988764895919443	-0.562481
F	0.4131891992492946 0.5876485502627808 0.5077951994701604	-0.568248
F	0.0849970432891456 0.9110112046196636 0.0091629751389865	-0.561079
F	0.5868729188538974 0.4194861387449841 0.4954200861103562	-0.568220
O	0.0010754583448621 0.9946936399945744 0.7612568568047579	-0.841869
O	0.4962797510843270 0.5043956376985805 0.2598298796334046	-0.836123
	  	
