#======================================================================

# CRYSTAL DATA

#----------------------------------------------------------------------

data_VESTA_phase_1


_pd_phase_name                         VOFFIVE_5_Cd_i
_cell_length_a                         20.40543
_cell_length_b                         20.40543
_cell_length_c                         15.92810
_cell_angle_alpha                      90
_cell_angle_beta                       90
_cell_angle_gamma                      90
_symmetry_space_group_name_H-M         P 1
_symmetry_Int_Tables_number            1

loop_
_symmetry_equiv_pos_as_xyz
   x, y, z

loop_
   _atom_site_label
   _atom_site_fract_x
   _atom_site_fract_y
   _atom_site_fract_z
   _atom_site_charge
F	0.3143950014023718 0.1862476787747635 0.3457269990934895	-0.595634
F	0.1856049865976272 0.3137523332252306 0.3457269990934895	-0.595632
F	0.3137523332252306 0.3143950014023718 0.3457269990934895	-0.595632
F	0.1862476787747635 0.1856049865976272 0.3457269990934895	-0.595633
F	0.6854549495081539 0.6862506911621095 0.1462423335021432	-0.596992
F	0.8145450504918461 0.8137493088378905 0.1462423335021432	-0.596990
F	0.6862506911621095 0.8145450504918461 0.1462423335021432	-0.596990
F	0.8137493088378905 0.6854549495081539 0.1462423335021432	-0.596991
F	0.6854549495081539 0.8137493088378905 0.6462423485021407	-0.596990
F	0.8145450504918461 0.6862506911621095 0.6462423485021407	-0.596992
F	0.6862506911621095 0.6854549495081539 0.6462423485021407	-0.596991
F	0.8137493088378905 0.8145450504918461 0.6462423485021407	-0.596990
F	0.3143950014023718 0.3137523332252306 0.8457269680934902	-0.595632
F	0.1856049865976272 0.1862476787747635 0.8457269680934902	-0.595633
F	0.3137523332252306 0.1856049865976272 0.8457269680934902	-0.595633
F	0.1862476787747635 0.3143950014023718 0.8457269680934902	-0.595632
F	0.2500000000000000 0.2500000000000000 0.2340961992834519	-0.621385
F	0.7500000000000000 0.7500000000000000 0.0347065524563119	-0.620894
F	0.7500000000000000 0.7500000000000000 0.5347065484563114	-0.620895
F	0.2500000000000000 0.2500000000000000 0.7340962452834484	-0.621384
O	0.2500000000000000 0.2500000000000000 0.4611601519927774	-0.827792
O	0.7500000000000000 0.7500000000000000 0.2614683957292984	-0.827775
O	0.7500000000000000 0.7500000000000000 0.7614683647292997	-0.827774
O	0.2500000000000000 0.2500000000000000 0.9611601519927775	-0.827793
N	0.3662951898267091 0.2473767303935758 0.6009784389178759	-0.242848
N	0.1337047861732958 0.2526232936064192 0.6009784389178759	-0.242848
N	0.2526232936064192 0.3662951898267091 0.6009784389178759	-0.242848
N	0.2473767303935758 0.1337047861732958 0.6009784389178759	-0.242848
N	0.6337447688791501 0.7460135025671061 0.8988299168625967	-0.243111
N	0.8662551831208530 0.7539864974328939 0.8988299168625967	-0.243111
N	0.7460135025671061 0.8662551831208530 0.8988299168625967	-0.243111
N	0.7539864974328939 0.6337447688791501 0.8988299168625967	-0.243112
N	0.6337447688791501 0.7539864974328939 0.3988299168625963	-0.243113
N	0.8662551831208530 0.7460135025671061 0.3988299168625963	-0.243113
N	0.7460135025671061 0.6337447688791501 0.3988299168625963	-0.243113
N	0.7539864974328939 0.8662551831208530 0.3988299168625963	-0.243113
N	0.3662951898267091 0.2526232936064192 0.1009784469178764	-0.242850
N	0.1337047861732958 0.2473767303935758 0.1009784469178764	-0.242850
N	0.2526232936064192 0.1337047861732958 0.1009784469178764	-0.242850
N	0.2473767303935758 0.3662951898267091 0.1009784469178764	-0.242850
C	0.3981907457763466 0.2203850573180945 0.6663956068467111	0.104695
C	0.4662660313218400 0.2186218021567762 0.6706278949226500	-0.181788
C	0.5035029268269583 0.2474143583319399 0.6064272742463233	0.105943
C	0.4693885534721873 0.2760786854009486 0.5392963292287037	-0.184044
C	0.4013100316580762 0.2743231325553417 0.5382640240091220	0.101692
C	0.5756451591033657 0.2480535445359690 0.6092257121799167	0.055379
C	0.6109434106442592 0.1931463513038061 0.6373435131460953	-0.130880
C	0.6790393902159408 0.1938798359485498 0.6389255350482409	-0.123349
C	0.7139880282590456 0.2497819479108602 0.6136510544003713	0.066839
C	0.6787227804877911 0.3048881925712092 0.5862924903882639	-0.120854
C	0.6106550941421568 0.3038303915906286 0.5835016900828440	-0.126371
C	0.1018092662236546 0.2796149186819035 0.6663956068467111	0.104695
C	0.0337339836781578 0.2813782218432188 0.6706278949226500	-0.181787
C	0.9964970811730424 0.2525856416680600 0.6064272742463233	0.105944
C	0.0306114675278108 0.2239213145990514 0.5392963292287037	-0.184046
C	0.0986899923419258 0.2256768674446582 0.5382640240091220	0.101692
C	0.9243547928966375 0.2519464794640260 0.6092257121799167	0.055379
C	0.8890565413557440 0.3068536486961940 0.6373435131460953	-0.130881
C	0.8209606097840592 0.3061201760514511 0.6389255350482409	-0.123350
C	0.7860119717409544 0.2502180760891348 0.6136510544003713	0.066839
C	0.8212772195122089 0.1951118194287915 0.5862924903882639	-0.120856
C	0.8893449058578432 0.1961695844093694 0.5835016900828440	-0.126371
C	0.2796149186819035 0.3981907457763466 0.6663956068467111	0.104695
C	0.2813782218432188 0.4662660313218400 0.6706278949226500	-0.181787
C	0.2525856416680600 0.5035029268269583 0.6064272742463233	0.105944
C	0.2239213145990514 0.4693885534721873 0.5392963292287037	-0.184045
C	0.2256768674446582 0.4013100316580762 0.5382640240091220	0.101692
C	0.2519464794640260 0.5756451591033657 0.6092257121799167	0.055379
C	0.3068536486961940 0.6109434106442592 0.6373435131460953	-0.130880
C	0.3061201760514511 0.6790393902159408 0.6389255350482409	-0.123349
C	0.2502180760891348 0.7139880282590456 0.6136510544003713	0.066840
C	0.1951118194287915 0.6787227804877911 0.5862924903882639	-0.120855
C	0.1961695844093694 0.6106550941421568 0.5835016900828440	-0.126370
C	0.2203850573180945 0.1018092662236546 0.6663956068467111	0.104696
C	0.2186218021567762 0.0337339836781578 0.6706278949226500	-0.181788
C	0.2474143583319399 0.9964970811730424 0.6064272742463233	0.105944
C	0.2760786854009486 0.0306114675278108 0.5392963292287037	-0.184045
C	0.2743231325553417 0.0986899923419258 0.5382640240091220	0.101693
C	0.2480535445359690 0.9243547928966375 0.6092257121799167	0.055379
C	0.1931463513038061 0.8890565413557440 0.6373435131460953	-0.130881
C	0.1938798359485498 0.8209606097840592 0.6389255350482409	-0.123350
C	0.2497819479108602 0.7860119717409544 0.6136510544003713	0.066838
C	0.3048881925712092 0.8212772195122089 0.5862924903882639	-0.120855
C	0.3038303915906286 0.8893449058578432 0.5835016900828440	-0.126372
C	0.6012857762732695 0.7191872605331846 0.8338076249814208	0.103363
C	0.5332482376890770 0.7180667414694363 0.8299175462265330	-0.182372
C	0.4965008160436801 0.7473145326134193 0.8942498660083990	0.105738
C	0.5311231991254316 0.7755811751293498 0.9612268150102588	-0.182269
C	0.5992614792567253 0.7732435657539458 0.9619015006511287	0.103470
C	0.4243616032507539 0.7483152264197734 0.8914843472792674	0.054681
C	0.3891600258611568 0.6934218568652054 0.8631374320798694	-0.131082
C	0.3210828819193612 0.6940625089670300 0.8612444131516047	-0.123047
C	0.2860238810731428 0.7499010988134056 0.8864776170289386	0.065870
C	0.3211900908727977 0.8050630777849697 0.9138939313037434	-0.119457
C	0.3892630051428546 0.8040995301490210 0.9169773887119859	-0.125875
C	0.8987141767267302 0.7808127394668154 0.8338076249814208	0.103362
C	0.9667517623109230 0.7819332585305637 0.8299175462265330	-0.182370
C	0.0034991839563200 0.7526854673865807 0.8942498660083990	0.105736
C	0.9688768008745684 0.7244188248706502 0.9612268150102588	-0.182269
C	0.9007385207432747 0.7267564342460542 0.9619015006511287	0.103470
C	0.0756383967492461 0.7516847735802266 0.8914843472792674	0.054689
C	0.1108399501388482 0.8065781911347915 0.8631374320798694	-0.131066
C	0.1789171180806388 0.8059375390329739 0.8612444131516047	-0.123032
C	0.2139761189268571 0.7500989011865944 0.8864776170289386	0.065730
C	0.1788099331272045 0.6949369702150343 0.9138939313037434	-0.119431
C	0.1107369948571454 0.6959005178509758 0.9169773887119859	-0.125862
C	0.7191872605331846 0.8987141767267302 0.8338076249814208	0.103362
C	0.7180667414694363 0.9667517623109230 0.8299175462265330	-0.182371
C	0.7473145326134193 0.0034991839563200 0.8942498660083990	0.105737
C	0.7755811751293498 0.9688768008745684 0.9612268150102588	-0.182268
C	0.7732435657539458 0.9007385207432747 0.9619015006511287	0.103470
C	0.7483152264197734 0.0756383967492461 0.8914843472792674	0.054682
C	0.6934218568652054 0.1108399501388482 0.8631374320798694	-0.131081
C	0.6940625089670300 0.1789171180806388 0.8612444131516047	-0.123047
C	0.7499010988134056 0.2139761189268571 0.8864776170289386	0.065870
C	0.8050630777849697 0.1788099331272045 0.9138939313037434	-0.119457
C	0.8040995301490210 0.1107369948571454 0.9169773887119859	-0.125873
C	0.7808127394668154 0.6012857762732695 0.8338076249814208	0.103364
C	0.7819332585305637 0.5332482376890770 0.8299175462265330	-0.182370
C	0.7526854673865807 0.4965008160436801 0.8942498660083990	0.105736
C	0.7244188248706502 0.5311231991254316 0.9612268150102588	-0.182269
C	0.7267564342460542 0.5992614792567253 0.9619015006511287	0.103470
C	0.7516847735802266 0.4243616032507539 0.8914843472792674	0.054688
C	0.8065781911347915 0.3891600258611568 0.8631374320798694	-0.131067
C	0.8059375390329739 0.3210828819193612 0.8612444131516047	-0.123032
C	0.7500989011865944 0.2860238810731428 0.8864776170289386	0.065730
C	0.6949369702150343 0.3211900908727977 0.9138939313037434	-0.119431
C	0.6959005178509758 0.3892630051428546 0.9169773887119859	-0.125863
C	0.6012857762732695 0.7808127394668154 0.3338076569814234	0.103362
C	0.5332482376890770 0.7819332585305637 0.3299175152265338	-0.182371
C	0.4965008160436801 0.7526854673865807 0.3942499280083973	0.105736
C	0.5311231991254316 0.7244188248706502 0.4612267840102602	-0.182270
C	0.5992614792567253 0.7267564342460542 0.4619015006511288	0.103470
C	0.4243616032507539 0.7516847735802266 0.3914843782792665	0.054689
C	0.3891600258611568 0.8065781911347915 0.3631374950798711	-0.131067
C	0.3210828819193612 0.8059375390329739 0.3612444131516047	-0.123031
C	0.2860238810731428 0.7500989011865944 0.3864776170289385	0.065731
C	0.3211900908727977 0.6949369702150343 0.4138939313037435	-0.119431
C	0.3892630051428546 0.6959005178509758 0.4169774197119919	-0.125864
C	0.8987141767267302 0.7191872605331846 0.3338076569814234	0.103362
C	0.9667517623109230 0.7180667414694363 0.3299175152265338	-0.182372
C	0.0034991839563200 0.7473145326134193 0.3942499280083973	0.105736
C	0.9688768008745684 0.7755811751293498 0.4612267840102602	-0.182269
C	0.9007385207432747 0.7732435657539458 0.4619015006511288	0.103470
C	0.0756383967492461 0.7483152264197734 0.3914843782792665	0.054681
C	0.1108399501388482 0.6934218568652054 0.3631374950798711	-0.131082
C	0.1789171180806388 0.6940625089670300 0.3612444131516047	-0.123045
C	0.2139761189268571 0.7499010988134056 0.3864776170289385	0.065870
C	0.1788099331272045 0.8050630777849697 0.4138939313037435	-0.119455
C	0.1107369948571454 0.8040995301490210 0.4169774197119919	-0.125875
C	0.7191872605331846 0.6012857762732695 0.3338076569814234	0.103363
C	0.7180667414694363 0.5332482376890770 0.3299175152265338	-0.182372
C	0.7473145326134193 0.4965008160436801 0.3942499280083973	0.105737
C	0.7755811751293498 0.5311231991254316 0.4612267840102602	-0.182269
C	0.7732435657539458 0.5992614792567253 0.4619015006511288	0.103471
C	0.7483152264197734 0.4243616032507539 0.3914843782792665	0.054681
C	0.6934218568652054 0.3891600258611568 0.3631374950798711	-0.131083
C	0.6940625089670300 0.3210828819193612 0.3612444131516047	-0.123046
C	0.7499010988134056 0.2860238810731428 0.3864776170289385	0.065870
C	0.8050630777849697 0.3211900908727977 0.4138939313037435	-0.119456
C	0.8040995301490210 0.3892630051428546 0.4169774197119919	-0.125875
C	0.7808127394668154 0.8987141767267302 0.3338076569814234	0.103362
C	0.7819332585305637 0.9667517623109230 0.3299175152265338	-0.182371
C	0.7526854673865807 0.0034991839563200 0.3942499280083973	0.105736
C	0.7244188248706502 0.9688768008745684 0.4612267840102602	-0.182269
C	0.7267564342460542 0.9007385207432747 0.4619015006511288	0.103470
C	0.7516847735802266 0.0756383967492461 0.3914843782792665	0.054689
C	0.8065781911347915 0.1108399501388482 0.3631374950798711	-0.131066
C	0.8059375390329739 0.1789171180806388 0.3612444131516047	-0.123030
C	0.7500989011865944 0.2139761189268571 0.3864776170289385	0.065731
C	0.6949369702150343 0.1788099331272045 0.4138939313037435	-0.119430
C	0.6959005178509758 0.1107369948571454 0.4169774197119919	-0.125863
C	0.3981907457763466 0.2796149186819035 0.1663956068467110	0.104694
C	0.4662660313218400 0.2813782218432188 0.1706279259226490	-0.181788
C	0.5035029268269583 0.2525856416680600 0.1064272202463258	0.105946
C	0.4693885534721873 0.2239213145990514 0.0392963532287057	-0.184047
C	0.4013100316580762 0.2256768674446582 0.0382640470091204	0.101692
C	0.5756451591033657 0.2519464794640260 0.1092256811799176	0.055364
C	0.6109434106442592 0.3068536486961940 0.1373434661460950	-0.130877
C	0.6790393902159408 0.3061201760514511 0.1389255510482420	-0.123341
C	0.7139880282590456 0.2502180760891348 0.1136510624003718	0.066854
C	0.6787227804877911 0.1951118194287915 0.0862925133882620	-0.120858
C	0.6106550941421568 0.1961695844093694 0.0835016660828423	-0.126356
C	0.1018092662236546 0.2203850573180945 0.1663956068467110	0.104695
C	0.0337339836781578 0.2186218021567762 0.1706279259226490	-0.181790
C	0.9964970811730424 0.2474143583319399 0.1064272202463258	0.105947
C	0.0306114675278108 0.2760786854009486 0.0392963532287057	-0.184045
C	0.0986899923419258 0.2743231325553417 0.0382640470091204	0.101692
C	0.9243547928966375 0.2480535445359690 0.1092256811799176	0.055363
C	0.8890565413557440 0.1931463513038061 0.1373434661460950	-0.130878
C	0.8209606097840592 0.1938798359485498 0.1389255510482420	-0.123342
C	0.7860119717409544 0.2497819479108602 0.1136510624003718	0.066854
C	0.8212772195122089 0.3048881925712092 0.0862925133882620	-0.120858
C	0.8893449058578432 0.3038303915906286 0.0835016660828423	-0.126358
C	0.2796149186819035 0.1018092662236546 0.1663956068467110	0.104696
C	0.2813782218432188 0.0337339836781578 0.1706279259226490	-0.181789
C	0.2525856416680600 0.9964970811730424 0.1064272202463258	0.105947
C	0.2239213145990514 0.0306114675278108 0.0392963532287057	-0.184046
C	0.2256768674446582 0.0986899923419258 0.0382640470091204	0.101692
C	0.2519464794640260 0.9243547928966375 0.1092256811799176	0.055364
C	0.3068536486961940 0.8890565413557440 0.1373434661460950	-0.130878
C	0.3061201760514511 0.8209606097840592 0.1389255510482420	-0.123342
C	0.2502180760891348 0.7860119717409544 0.1136510624003718	0.066854
C	0.1951118194287915 0.8212772195122089 0.0862925133882620	-0.120858
C	0.1961695844093694 0.8893449058578432 0.0835016660828423	-0.126357
C	0.2203850573180945 0.3981907457763466 0.1663956068467110	0.104695
C	0.2186218021567762 0.4662660313218400 0.1706279259226490	-0.181789
C	0.2474143583319399 0.5035029268269583 0.1064272202463258	0.105947
C	0.2760786854009486 0.4693885534721873 0.0392963532287057	-0.184045
C	0.2743231325553417 0.4013100316580762 0.0382640470091204	0.101692
C	0.2480535445359690 0.5756451591033657 0.1092256811799176	0.055364
C	0.1931463513038061 0.6109434106442592 0.1373434661460950	-0.130877
C	0.1938798359485498 0.6790393902159408 0.1389255510482420	-0.123342
C	0.2497819479108602 0.7139880282590456 0.1136510624003718	0.066854
C	0.3048881925712092 0.6787227804877911 0.0862925133882620	-0.120858
C	0.3038303915906286 0.6106550941421568 0.0835016660828423	-0.126356
H	0.3679262931015428 0.2009365634942323 0.7173009787940190	0.106406
H	0.4900913563336721 0.1966760053136621 0.7250826371104528	0.114119
H	0.4958647078265483 0.2983303776464392 0.4871388462817448	0.113218
H	0.3736024231044166 0.2943753000719097 0.4854299607152039	0.100505
H	0.5844594380491996 0.1491606104865608 0.6564993641322794	0.099977
H	0.7058623692325997 0.1510211640154900 0.6610924150915723	0.101034
H	0.7051447946783617 0.3481680240086534 0.5645985468794428	0.102103
H	0.5839630738931152 0.3470260569132783 0.5620516168423160	0.104290
H	0.1320737188984583 0.2990634365057676 0.7173009787940190	0.106406
H	0.0099086736663304 0.3033239706863362 0.7250826371104528	0.114118
H	0.0041352951734483 0.2016696223535607 0.4871388462817448	0.113219
H	0.1263975648955824 0.2056246999280902 0.4854299607152039	0.100506
H	0.9155405139508035 0.3508394015134401 0.6564993641322794	0.099976
H	0.7941376307674003 0.3489788239845092 0.6610924150915723	0.101034
H	0.7948552053216383 0.1518319759913463 0.5645985468794428	0.102102
H	0.9160369261068848 0.1529739430867219 0.5620516168423160	0.104289
H	0.2990634365057676 0.3679262931015428 0.7173009787940190	0.106405
H	0.3033239706863362 0.4900913563336721 0.7250826371104528	0.114118
H	0.2016696223535607 0.4958647078265483 0.4871388462817448	0.113218
H	0.2056246999280902 0.3736024231044166 0.4854299607152039	0.100506
H	0.3508394015134401 0.5844594380491996 0.6564993641322794	0.099977
H	0.3489788239845092 0.7058623692325997 0.6610924150915723	0.101035
H	0.1518319759913463 0.7051447946783617 0.5645985468794428	0.102102
H	0.1529739430867219 0.5839630738931152 0.5620516168423160	0.104289
H	0.2009365634942323 0.1320737188984583 0.7173009787940190	0.106406
H	0.1966760053136621 0.0099086736663304 0.7250826371104528	0.114119
H	0.2983303776464392 0.0041352951734483 0.4871388462817448	0.113218
H	0.2943753000719097 0.1263975648955824 0.4854299607152039	0.100506
H	0.1491606104865608 0.9155405139508035 0.6564993641322794	0.099976
H	0.1510211640154900 0.7941376307674003 0.6610924150915723	0.101034
H	0.3481680240086534 0.7948552053216383 0.5645985468794428	0.102103
H	0.3470260569132783 0.9160369261068848 0.5620516168423160	0.104290
H	0.6309868448948411 0.6990929739966031 0.7828205495226882	0.101368
H	0.5090287936347930 0.6962113307064443 0.7757286630373730	0.113440
H	0.5050501484304840 0.7979762517683407 0.0136637268043455	0.112422
H	0.6275609286773230 0.7928130231855788 0.0145801264301346	0.106139
H	0.4157229190803451 0.6494987351782211 0.8439833159633128	0.100059
H	0.2943580801325544 0.6511967272322244 0.8388718028312901	0.101703
H	0.2946599154041183 0.8483320610678980 0.9353794080379556	0.101884
H	0.4158407806018177 0.8473405894759479 0.9384681568246306	0.103555
H	0.8690132021051592 0.8009070740034009 0.7828205495226882	0.101367
H	0.9909712063652070 0.8037886692935557 0.7757286630373730	0.113439
H	0.9949498045695157 0.7020237482316593 0.0136637268043455	0.112421
H	0.8724390233226801 0.7071869768144212 0.0145801264301346	0.106138
H	0.0842771049196497 0.8505012648217789 0.8439833159633128	0.100057
H	0.2056419198674456 0.8488032727677756 0.8388718028312901	0.101743
H	0.2053400845958816 0.6516678909320980 0.9353794080379556	0.101881
H	0.0841592313981834 0.6526593625240481 0.9384681568246306	0.103538
H	0.6990929739966031 0.8690132021051592 0.7828205495226882	0.101367
H	0.6962113307064443 0.9909712063652070 0.7757286630373730	0.113440
H	0.7979762517683407 0.9949498045695157 0.0136637268043455	0.112421
H	0.7928130231855788 0.8724390233226801 0.0145801264301346	0.106138
H	0.6494987351782211 0.0842771049196497 0.8439833159633128	0.100059
H	0.6511967272322244 0.2056419198674456 0.8388718028312901	0.101703
H	0.8483320610678980 0.2053400845958816 0.9353794080379556	0.101884
H	0.8473405894759479 0.0841592313981834 0.9384681568246306	0.103556
H	0.8009070740034009 0.6309868448948411 0.7828205495226882	0.101368
H	0.8037886692935557 0.5090287936347930 0.7757286630373730	0.113440
H	0.7020237482316593 0.5050501484304840 0.0136637268043455	0.112422
H	0.7071869768144212 0.6275609286773230 0.0145801264301346	0.106139
H	0.8505012648217789 0.4157229190803451 0.8439833159633128	0.100057
H	0.8488032727677756 0.2943580801325544 0.8388718028312901	0.101742
H	0.6516678909320980 0.2946599154041183 0.9353794080379556	0.101881
H	0.6526593625240481 0.4158407806018177 0.9384681568246306	0.103537
H	0.6309868448948411 0.8009070740034009 0.2828205185226892	0.101368
H	0.5090287936347930 0.8037886692935557 0.2757286630373728	0.113441
H	0.5050501484304840 0.7020237482316593 0.5136637458043509	0.112423
H	0.6275609286773230 0.7071869768144212 0.5145800974301359	0.106139
H	0.4157229190803451 0.8505012648217789 0.3439833159633130	0.100057
H	0.2943580801325544 0.8488032727677756 0.3388718338312960	0.101742
H	0.2946599154041183 0.6516678909320980 0.4353794080379554	0.101881
H	0.4158407806018177 0.6526593625240481 0.4384682188246282	0.103538
H	0.8690132021051592 0.6990929739966031 0.2828205185226892	0.101368
H	0.9909712063652070 0.6962113307064443 0.2757286630373728	0.113442
H	0.9949498045695157 0.7979762517683407 0.5136637458043509	0.112422
H	0.8724390233226801 0.7928130231855788 0.5145800974301359	0.106139
H	0.0842771049196497 0.6494987351782211 0.3439833159633130	0.100060
H	0.2056419198674456 0.6511967272322244 0.3388718338312960	0.101702
H	0.2053400845958816 0.8483320610678980 0.4353794080379554	0.101885
H	0.0841592313981834 0.8473405894759479 0.4384682188246282	0.103557
H	0.6990929739966031 0.6309868448948411 0.2828205185226892	0.101369
H	0.6962113307064443 0.5090287936347930 0.2757286630373728	0.113442
H	0.7979762517683407 0.5050501484304840 0.5136637458043509	0.112422
H	0.7928130231855788 0.6275609286773230 0.5145800974301359	0.106139
H	0.6494987351782211 0.4157229190803451 0.3439833159633130	0.100059
H	0.6511967272322244 0.2943580801325544 0.3388718338312960	0.101702
H	0.8483320610678980 0.2946599154041183 0.4353794080379554	0.101884
H	0.8473405894759479 0.4158407806018177 0.4384682188246282	0.103557
H	0.8009070740034009 0.8690132021051592 0.2828205185226892	0.101368
H	0.8037886692935557 0.9909712063652070 0.2757286630373728	0.113441
H	0.7020237482316593 0.9949498045695157 0.5136637458043509	0.112422
H	0.7071869768144212 0.8724390233226801 0.5145800974301359	0.106139
H	0.8505012648217789 0.0842771049196497 0.3439833159633130	0.100057
H	0.8488032727677756 0.2056419198674456 0.3388718338312960	0.101742
H	0.6516678909320980 0.2053400845958816 0.4353794080379554	0.101881
H	0.6526593625240481 0.0841592313981834 0.4384682188246282	0.103538
H	0.3679262931015428 0.2990634365057676 0.2173010097940180	0.106406
H	0.4900913563336721 0.3033239706863362 0.2250826221104551	0.114119
H	0.4958647078265483 0.2016696223535607 0.9871388152817391	0.113219
H	0.3736024231044166 0.2056246999280902 0.9854299607152039	0.100506
H	0.5844594380491996 0.3508394015134401 0.1564993641322794	0.099976
H	0.7058623692325997 0.3489788239845092 0.1610923990915709	0.101033
H	0.7051447946783617 0.1518319759913463 0.0645985548794435	0.102087
H	0.5839630738931152 0.1529739430867219 0.0620515698423156	0.104287
H	0.1320737188984583 0.2009365634942323 0.2173010097940180	0.106406
H	0.0099086736663304 0.1966760053136621 0.2250826221104551	0.114119
H	0.0041352951734483 0.2983303776464392 0.9871388152817391	0.113219
H	0.1263975648955824 0.2943753000719097 0.9854299607152039	0.100506
H	0.9155405139508035 0.1491606104865608 0.1564993641322794	0.099976
H	0.7941376307674003 0.1510211640154900 0.1610923990915709	0.101032
H	0.7948552053216383 0.3481680240086534 0.0645985548794435	0.102087
H	0.9160369261068848 0.3470260569132783 0.0620515698423156	0.104286
H	0.2990634365057676 0.1320737188984583 0.2173010097940180	0.106406
H	0.3033239706863362 0.0099086736663304 0.2250826221104551	0.114119
H	0.2016696223535607 0.0041352951734483 0.9871388152817391	0.113220
H	0.2056246999280902 0.1263975648955824 0.9854299607152039	0.100507
H	0.3508394015134401 0.9155405139508035 0.1564993641322794	0.099977
H	0.3489788239845092 0.7941376307674003 0.1610923990915709	0.101033
H	0.1518319759913463 0.7948552053216383 0.0645985548794435	0.102087
H	0.1529739430867219 0.9160369261068848 0.0620515698423156	0.104286
H	0.2009365634942323 0.3679262931015428 0.2173010097940180	0.106406
H	0.1966760053136621 0.4900913563336721 0.2250826221104551	0.114119
H	0.2983303776464392 0.4958647078265483 0.9871388152817391	0.113218
H	0.2943753000719097 0.3736024231044166 0.9854299607152039	0.100506
H	0.1491606104865608 0.5844594380491996 0.1564993641322794	0.099976
H	0.1510211640154900 0.7058623692325997 0.1610923990915709	0.101033
H	0.3481680240086534 0.7051447946783617 0.0645985548794435	0.102087
H	0.3470260569132783 0.5839630738931152 0.0620515698423156	0.104287
Cd	0.2500000000000000 0.2500000000000000 0.5985405784134589	0.871883
Cd	0.7500000000000000 0.7500000000000000 0.8994055821934515	0.874065
Cd	0.7500000000000000 0.7500000000000000 0.3994055821934515	0.874068
Cd	0.2500000000000000 0.2500000000000000 0.0985405864134597	0.871885
V	0.2500000000000000 0.2500000000000000 0.3576731825212565	2.295486
V	0.7500000000000000 0.7500000000000000 0.1579997769809709	2.296823
V	0.7500000000000000 0.7500000000000000 0.6579997769809707	2.296823
V	0.2500000000000000 0.2500000000000000 0.8576732135212554	2.295486
	  	
