#======================================================================

# CRYSTAL DATA

#----------------------------------------------------------------------

data_VESTA_phase_1


_pd_phase_name                         VOFFIVE_18_Co
_cell_length_a                         13.45369
_cell_length_b                         13.80762
_cell_length_c                         8.28377
_cell_angle_alpha                      89.55601
_cell_angle_beta                       95.26855
_cell_angle_gamma                      90.04071
_symmetry_space_group_name_H-M         P 1
_symmetry_Int_Tables_number            1

loop_
_symmetry_equiv_pos_as_xyz
   x, y, z

loop_
   _atom_site_label
   _atom_site_fract_x
   _atom_site_fract_y
   _atom_site_fract_z
   _atom_site_charge
F	0.3815144749132052 0.3856011559499785 0.5039593939731762	-0.567565
F	0.5126474766063014 0.4712519423727022 0.7227276635813724	-0.627781
F	0.4095006277092000 0.5701800016276560 0.5126211830747462	-0.560001
F	0.8815145419132078 0.8856011219499825 0.5039593939731762	-0.567644
F	0.0126474496063025 0.9712518733727072 0.7227276635813724	-0.627719
F	0.9095005607091979 0.0701800226276540 0.5126211830747462	-0.559605
F	0.5642200050923075 0.3499876423306389 0.4951045542757199	-0.578911
F	0.6102059774674728 0.5355070715088566 0.4935238626743870	-0.567009
F	0.0642200310923096 0.8499876083306437 0.4951045542757199	-0.578913
F	0.1102059694674725 0.0355070925088550 0.4935238626743870	-0.567037
O	0.4784564962210879 0.4751856260911196 0.2782282477837359	-0.791150
O	0.9784564632210886 0.9751855570911246 0.2782282477837359	-0.791185
C	0.6934576021548249 0.1622834541716555 0.6589518914858384	-0.428839
C	0.7650667214019314 0.1531384156396390 0.8058972463306473	0.211105
C	0.7709552140479773 0.2011523128945696 0.9547135608034604	-0.152460
C	0.6976634807503389 0.2666197599077846 0.0142918996527192	-0.144391
C	0.6752812285644559 0.3640223208544197 0.9696982092414389	0.219360
C	0.7279961153940344 0.4269895189271159 0.8586950240638342	-0.434813
C	0.9031921924525143 0.1998311819774277 0.2046496355604129	-0.438300
C	0.8586251831443659 0.1658379841437086 0.0441025672740100	0.212085
C	0.6328966594918486 0.2421512880423925 0.1313308035517706	0.216664
C	0.6189977122198654 0.1501892008113108 0.2210809977690756	-0.426584
C	0.1934576191548227 0.6622834881716512 0.6589518914858384	-0.428809
C	0.2650667554019271 0.6531384496396417 0.8058972463306473	0.211088
C	0.2709552650479783 0.7011523468945654 0.9547135608034604	-0.152413
C	0.1976635147503346 0.7666197599077850 0.0142918996527192	-0.144394
C	0.1752812035644503 0.8640223548544226 0.9696982092414389	0.219360
C	0.2279961653940312 0.9269895529271117 0.8586950240638342	-0.434818
C	0.4031921254525127 0.6998311649774224 0.2046496355604129	-0.438285
C	0.3586252501443677 0.6658379841437086 0.0441025672740100	0.212124
C	0.1328966594918557 0.7421513050423900 0.1313308035517706	0.216663
C	0.1189976532198715 0.6501892178113089 0.2210809977690756	-0.426581
C	0.3133558561656163 0.1664801399821806 0.3380301557659018	-0.423698
C	0.2388394886256037 0.1539154991113357 0.1957440496796629	0.205615
C	0.2309044644959076 0.1979577351563039 0.0422267688741703	-0.148596
C	0.3022414339133334 0.2657366280325396 0.9819033489888884	-0.148691
C	0.3216416066205169 0.3621020514866630 0.0333545034182832	0.215519
C	0.2626232992304334 0.4219468528898115 0.1385910233810826	-0.426642
C	0.0973548422135129 0.1877460156996639 0.7944713189815660	-0.437553
C	0.1428259602246267 0.1600224360083078 0.9588606756337571	0.211830
C	0.3705918306776261 0.2464553905763225 0.8680680266958078	0.217657
C	0.3885666255219132 0.1580678913481579 0.7732273344388473	-0.428393
C	0.8133558891656156 0.6664801739821691 0.3380301557659018	-0.423632
C	0.7388395216256031 0.6539155331113383 0.1957440496796629	0.205595
C	0.7309044984959105 0.6979577691562995 0.0422267688741703	-0.148549
C	0.8022414679133361 0.7657366280325394 0.9819033489888884	-0.148702
C	0.8216415726205214 0.8621020854866658 0.0333545034182832	0.215517
C	0.7626233672304321 0.9219468868898076 0.1385910233810826	-0.426650
C	0.5973547792135113 0.6877459986996586 0.7944713189815660	-0.437534
C	0.6428260112246275 0.6600224360083077 0.9588606756337571	0.211815
C	0.8705918306776259 0.7464554075763202 0.8680680266958078	0.217657
C	0.8885665585219040 0.6580679083481559 0.7732273344388473	-0.428392
H	0.7334317661669628 0.1733474018185495 0.5506110245528915	0.151841
H	0.6434804994478227 0.2240889220503529 0.6688838633403521	0.153176
H	0.6479931295615499 0.0963612720430122 0.6393183525818167	0.133196
H	0.6759685962505262 0.4628798885947308 0.7680474270852276	0.158524
H	0.7803387721314432 0.3829629095384572 0.7966175618308048	0.137316
H	0.7706501815525678 0.4830753146821998 0.9286013256045997	0.129249
H	0.8716462280355155 0.0571774464017443 0.7180177170398829	0.288761
H	0.8945777106565815 0.1479541739750286 0.3032238051956258	0.156872
H	0.8673044196977154 0.2680567882083064 0.2340136596725245	0.133914
H	0.9835664553817447 0.2128287435450170 0.2019917575073314	0.143344
H	0.5792895361613019 0.1631036000573974 0.3288267184246410	0.146967
H	0.6911220512658841 0.1161937455326172 0.2591172164106579	0.152349
H	0.5754214787660441 0.0981034463992068 0.1432693639480097	0.135151
H	0.5291674345298809 0.3340255725876716 0.2356167087968608	0.273020
H	0.2334317321669602 0.6733474018185498 0.5506110245528915	0.151864
H	0.1434805084478129 0.7240888710503521 0.6688838633403521	0.153181
H	0.1479931035615476 0.5963612550430143 0.6393183525818167	0.133207
H	0.1759686302505217 0.9628799225947340 0.7680474270852276	0.158516
H	0.2803388221314401 0.8829629435384602 0.7966175618308048	0.137317
H	0.2706501815525678 0.9830752796821934 0.9286013256045997	0.129247
H	0.3716462950355179 0.5571774374017472 0.7180177170398829	0.289387
H	0.3945777106565816 0.6479541739750284 0.3032238051956258	0.156923
H	0.3673044196977154 0.7680567532083070 0.2340136596725245	0.133914
H	0.4835664553817451 0.7128287605450150 0.2019917575073314	0.143347
H	0.0792895151613038 0.6631036170573947 0.3288267184246410	0.146966
H	0.1911221012658811 0.6161937375326240 0.2591172164106579	0.152351
H	0.0754214407660405 0.5981033943992027 0.1432693639480097	0.135148
H	0.0291674205298723 0.8340256075876705 0.2356167087968608	0.273019
H	0.2766350664730834 0.1817187422307124 0.4480685040034732	0.151718
H	0.3628180585002987 0.2275295487897964 0.3175488829152228	0.144028
H	0.3590960650909539 0.1008457376294122 0.3617850249599227	0.133184
H	0.3103475633793994 0.4675948936929241 0.2203620219028326	0.147247
H	0.2177318930011791 0.3753175378147948 0.2110449706572899	0.141133
H	0.2116988673952915 0.4693238163612243 0.0623586422866070	0.129877
H	0.1380642331057480 0.0571298665222496 0.2983010402489737	0.284541
H	0.0906595665792459 0.1264970640210919 0.7109891109116044	0.155599
H	0.1434195400970900 0.2439343424927507 0.7438676894201870	0.134764
H	0.0219770332900713 0.2171671511392731 0.8007720691173119	0.143119
H	0.4268291885673561 0.1767767124745561 0.6658269036232770	0.148133
H	0.3182620083170316 0.1213152523574516 0.7337913347731466	0.153363
H	0.4355561858828199 0.1058451397853662 0.8466726420606011	0.133912
H	0.4751269282598498 0.3480200344037589 0.7777182169410033	0.282617
H	0.7766351004730794 0.6817187422307122 0.4480685040034732	0.151707
H	0.8628180585002984 0.7275294977897958 0.3175488829152228	0.144007
H	0.8590960320909549 0.6008457206294143 0.3617850249599227	0.133175
H	0.8103475963793987 0.9675949276929270 0.2203620219028326	0.147241
H	0.7177319270011822 0.8753175718147974 0.2110449706572899	0.141135
H	0.7116988503952937 0.9693237813612182 0.0623586422866070	0.129873
H	0.6380642751057516 0.5571298575222527 0.2983010402489737	0.284547
H	0.5906596085792495 0.6264970640210920 0.7109891109116044	0.155617
H	0.6434195570970880 0.7439343074927509 0.7438676894201870	0.134762
H	0.5219770122900733 0.7171671681392708 0.8007720691173119	0.143133
H	0.9268291885673564 0.6767767294745536 0.6658269036232770	0.148133
H	0.8182620763170303 0.6213152443574580 0.7337913347731466	0.153361
H	0.9355561858828199 0.6058450877853618 0.8466726420606011	0.133911
H	0.9751269282598495 0.8480200694037582 0.7777182169410033	0.282606
N	0.8431788578636180 0.0914832462383176 0.8134888943856873	-0.150851
N	0.5996720089991076 0.3954250263453367 0.0521005715571136	-0.199828
N	0.9006441038766480 0.0980142884622681 0.9562827507340111	-0.190899
N	0.5761852110056778 0.3208238088871370 0.1488283955969600	-0.146366
N	0.3431787908636162 0.5914832292383128 0.8134888943856873	-0.151678
N	0.0996720259991054 0.8954250613453362 0.0521005715571136	-0.199832
N	0.4006440698766450 0.5980143224622638 0.9562827507340111	-0.190956
N	0.0761852110056777 0.8208238088871298 0.1488283955969600	-0.146365
N	0.1610914467587492 0.0922672495650578 0.1974626238072799	-0.151834
N	0.3991429347428733 0.3973588617940658 0.9588955904164744	-0.196528
N	0.1021135500487383 0.0949787952149675 0.0554484951356054	-0.192455
N	0.4264766679226051 0.3267708165065776 0.8594669892507043	-0.151262
N	0.6610914467587493 0.5922672325650528 0.1974626238072799	-0.151877
N	0.8991429347428731 0.8973588967940651 0.9588955904164744	-0.196570
N	0.6021135750487367 0.5949788292149630 0.0554484951356054	-0.192441
N	0.9264766679226051 0.8267708165065775 0.8594669892507043	-0.151274
V	0.4900257724390808 0.4633720727525520 0.4780931362898413	2.207230
V	0.9900257744390812 0.9633721417525470 0.4780931362898413	2.207079
Co	0.4996663784771623 0.4987012275418781 0.0106153620592941	0.617420
Co	-0.0003336215228375 0.9987012315418785 0.0106153620592941	0.617365
	  	
