#======================================================================

# CRYSTAL DATA

#----------------------------------------------------------------------

data_VESTA_phase_1


_pd_phase_name                         VOFFIVE_13_Ni_i
_cell_length_a                         15.27901
_cell_length_b                         15.28030
_cell_length_c                         7.63920
_cell_angle_alpha                      89.62621
_cell_angle_beta                       90.60983
_cell_angle_gamma                      89.29861
_symmetry_space_group_name_H-M         P 1
_symmetry_Int_Tables_number            1

loop_
_symmetry_equiv_pos_as_xyz
   x, y, z

loop_
   _atom_site_label
   _atom_site_fract_x
   _atom_site_fract_y
   _atom_site_fract_z
   _atom_site_charge
C	0.5418230098551587 0.6824468719006269 0.8691975701445813	0.106450
C	0.5455629539670140 0.7734831520754381 0.8659396165086792	-0.149568
C	0.4616989972724636 0.3202469913661125 0.8781008257318754	0.107480
C	0.4575383340868331 0.2293166902257579 0.8787948155768808	-0.141515
C	0.8185920003128215 0.9710991087070151 0.3607342214433348	0.108644
C	0.7276482775104129 0.9678136921655883 0.3548588400929453	-0.136102
C	0.3186767543166600 0.5439792018812618 0.8668424185400042	0.106670
C	0.2275612244470263 0.5478943859664532 0.8614043938965319	-0.148974
C	0.1820017639097788 0.9706542787086391 0.3590918444984712	0.104826
C	0.2728819985714363 0.9685127068474617 0.3546300232104553	-0.138008
C	0.6820348678191651 0.4613042918465421 0.8823248436325873	0.106834
C	0.7730409494999512 0.4576066994158484 0.8819480272081994	-0.139735
C	0.4527842258549169 0.6842448515168627 0.1140383253126432	0.108238
C	0.4495151894151845 0.7751845706330255 0.1144108270648283	-0.140687
C	0.5447037849677165 0.3197066789363684 0.1346177152426514	0.107988
C	0.5471708165635836 0.2286412629336466 0.1401630030910889	-0.150592
C	0.1824411996392701 0.0250833526801739 0.6420051306305696	0.111244
C	0.2732840792239346 0.0267626315440732 0.6475380230009877	-0.140618
C	0.6815555117216879 0.5472449953193683 0.1324056779285050	0.107599
C	0.7725888846863612 0.5503265291655993 0.1362517316028679	-0.151539
C	0.8172560532723033 0.0311751692912720 0.6391117282161835	0.104592
C	0.7264583660438619 0.0323225472531947 0.6425835846646062	-0.138902
C	0.3180663232333685 0.4563444900364500 0.1163576974290199	0.107726
C	0.2271615890762839 0.4531725569554244 0.1148714978128477	-0.141463
C	0.9634875822169918 0.8154078113757390 0.6362795605085773	0.112190
C	0.9614269573659526 0.7244888709379391 0.6401848555161159	-0.140636
C	0.9784776900000018 0.1809639367725333 0.6443669564595662	0.104394
C	0.9765700906843756 0.2717032489815681 0.6472064692067506	-0.141233
C	0.0239901455677001 0.8160481232668169 0.3590155477201361	0.104445
C	0.0264197549104199 0.7252229999086726 0.3535989250796928	-0.139480
C	0.0302785432936883 0.1789007041854944 0.3597482642512325	0.110869
C	0.0322775741259814 0.2698584275843011 0.3526718078612046	-0.140084
C	0.0039484091188702 0.3172447101994644 0.4983426699265475	0.044670
C	0.0020311252351943 0.4131097709752162 0.4973332487734988	0.253571
C	0.4980359454362344 0.8208597295734191 0.9898252952322127	0.054094
C	0.4992982441668405 0.9173674151853537 0.9949117382778611	0.248250
C	0.9948322841853940 0.6782785418931493 0.4971811953407563	0.039720
C	0.9973359966622918 0.5823118238711836 0.4975356893865895	0.247528
C	0.5018032066401978 0.1824042870721166 0.0112006699491648	0.053157
C	0.5009364817167683 0.0857730040870736 0.0112398409216120	0.249683
C	0.6805566591954534 -0.0007584543545322 0.4982701326521766	0.038340
C	0.5846663193441123 0.9970805065948531 0.5004899884661762	0.245358
C	0.1807914928988254 0.5010009450781508 0.9865584032766138	0.053952
C	0.0842291875611228 0.5020870193549016 0.9889645775394851	0.248640
C	0.3195823140248739 0.9969983768475046 0.5017489971730454	0.043456
C	0.4154626065678693 0.9959985412434180 0.5032205937114334	0.252237
C	0.8193167029270697 0.5037579265744228 0.0099521508532986	0.054123
C	0.9159157527114850 0.5033421018888877 0.0068338632231216	0.248435
H	0.5740580212720717 0.6429049255246519 0.7696111062369355	0.111030
H	0.5842357760663253 0.8061860503139838 0.7665441844389086	0.122736
H	0.4321858906948587 0.3592976424350247 0.7722551327671150	0.110915
H	0.4229176600606017 0.1952773125996291 0.7747800183649948	0.116815
H	0.8577659707154245 0.9489137435134890 0.2506801749974827	0.108698
H	0.6946630129477493 0.9420244143214264 0.2395323126842662	0.118632
H	0.3578097221039242 0.5756694607530416 0.7664947616654533	0.110467
H	0.1943436399438153 0.5861091539415200 0.7592251109691566	0.123761
H	0.1437165922515751 0.9516110690312772 0.2449221156229746	0.099464
H	0.3058958921457166 0.9466841976688538 0.2367900184241052	0.117179
H	0.6432546896035554 0.4307196700676976 0.7790767293734882	0.111528
H	0.8075657556997238 0.4220680191453578 0.7801558071993409	0.116147
H	0.4200727529240370 0.6462369760618075 0.2150826119220084	0.106807
H	0.4133829151711668 0.8100441952498921 0.2148234206886668	0.114469
H	0.5756569441641222 0.3580128202578570 0.2377078146124323	0.105753
H	0.5826170356398513 0.1950605503711177 0.2457774479907853	0.122952
H	0.1445636259037867 0.0465349092315815 0.7542596661671330	0.101023
H	0.3067837472930439 0.0493012632697596 0.7649978348768859	0.116791
H	0.6428141832866648 0.5792418077560165 0.2334272646857329	0.106769
H	0.8057197646806784 0.5872701665434071 0.2383084156461350	0.122772
H	0.8544759272231165 0.0535612418902091 0.7522120296926138	0.093997
H	0.6925746648254302 0.0567170085612185 0.7573644824884647	0.119213
H	0.3563607669838977 0.4241978962957577 0.2201868181499067	0.106064
H	0.1926083421820612 0.4173757891656956 0.2159788217184059	0.114675
H	0.9400635284233571 0.8533059830360976 0.7471664244206004	0.101847
H	0.9360279328828603 0.6907636522342709 0.7544818121704769	0.117790
H	0.9595102113509401 0.1439785522192435 0.7597460380983104	0.091966
H	0.9553943181214861 0.3057325269569693 0.7644201415135558	0.118478
H	0.0454407260662737 0.8543833595685347 0.2472442418645764	0.099498
H	0.0516504414756878 0.6923679654131578 0.2382801231849166	0.119458
H	0.0496902607975677 0.1394546407425974 0.2478583615736580	0.108676
H	0.0536835040946375 0.3026389381100273 0.2339012003132926	0.119088
N	0.9416752943147307 0.5395325563352152 0.6038316355776345	-0.137565
N	0.4222092556150424 0.0463990293730766 0.0100983166993350	-0.149062
N	0.5430225767681713 0.0528105301300244 0.6095968679363960	-0.134966
N	0.9572274785092917 0.4247140121219414 0.0017801875274203	-0.149078
N	0.0556002373349377 0.5420100200795911 0.3920040649013881	-0.136657
N	0.5788483882270584 0.0430420000847784 0.0113604576325353	-0.147430
N	0.9565882578974169 0.5813386784013653 0.0033757913600938	-0.148278
N	0.5433960766267056 0.9382810893115910 0.3981586608660952	-0.134971
N	0.0582277043441295 0.4557986591132120 0.3927050062991065	-0.131408
N	0.5779979191394253 0.9567566077041544 -0.0013140265758996	-0.148497
N	0.4571446231497029 0.9378078750251241 0.3999233488583229	-0.130084
N	0.0428249233766968 0.5807100928249350 0.9901714519959953	-0.145326
N	0.9437849049533412 0.4534418411953071 0.6028343575573791	-0.130701
N	0.4214949609269317 0.9599481414071375 0.0048389031779927	-0.145992
N	0.0436723354945651 0.4240596561807040 0.9954858744116629	-0.149041
N	0.4569730457060257 0.0522406338234270 0.6107981941247533	-0.132705
N	0.0036900863950464 0.1352638217427666 0.5030760181795315	-0.216811
N	0.4974608779950978 0.6388842318354930 0.9930005453113059	-0.222698
N	0.9946948113049556 0.8605100176061090 0.4986950725979168	-0.216672
N	0.5034200554981541 0.3645581997720727 0.0051520056753695	-0.226196
N	0.8626267256189492 0.0015823122271892 0.5009166425792154	-0.215919
N	0.3629509607241856 0.5001883136653952 0.9937735497202036	-0.224284
N	0.1374733153888170 0.9971707351842408 0.5007722785372914	-0.215943
N	0.6373357528374475 0.5042170195638848 0.0068431947270034	-0.224712
Ni	-0.0000579212166867 0.9981190221135561 0.5019751864834761	0.797081
Ni	0.5003448080567328 0.5019763896649059 0.0009460569282625	0.799551
V	0.0007700102922319 0.9955468894073419 0.9798763801021073	2.244730
V	0.4999867563286496 0.5029882024593364 0.4793634735694691	2.266922
F	0.0005126745036229 -0.0021320615912049 0.2434113919390165	-0.625202
F	0.5011087824237750 0.5020065871208600 0.7432756075318399	-0.631100
F	0.0880270334157560 0.0782035932107323 0.0051237032152858	-0.560740
F	0.5868417834092469 0.5862431344575015 0.5048207716949394	-0.577808
F	0.9146108440165504 0.9123352512034649 0.0063671878397460	-0.560137
F	0.4136891077229353 0.4195158445106534 0.5047758728225199	-0.578437
F	0.9168278387000435 0.0833838598734960 0.0005199454637682	-0.558677
F	0.4159341916813865 0.5906655607228266 0.5023944468885444	-0.577382
F	0.0850587896054959 0.9081944062204953 0.0085563615050876	-0.556260
F	0.5848441326180956 0.4156318011315813 0.5065067227087092	-0.578080
O	0.0005832421612876 0.9954311241241115 0.7633869335446596	-0.835837
O	0.4993948943131047 0.5030001439406222 0.2626053907735308	-0.845353
	  	
