#======================================================================

# CRYSTAL DATA

#----------------------------------------------------------------------

data_VESTA_phase_1


_pd_phase_name                         VOFFIVE_4_Cu_i
_cell_length_a                         23.32037
_cell_length_b                         20.50974
_cell_length_c                         9.66929
_cell_angle_alpha                      90
_cell_angle_beta                       90
_cell_angle_gamma                      90
_symmetry_space_group_name_H-M         P 1
_symmetry_Int_Tables_number            1

loop_
_symmetry_equiv_pos_as_xyz
   x, y, z

loop_
   _atom_site_label
   _atom_site_fract_x
   _atom_site_fract_y
   _atom_site_fract_z
   _atom_site_charge
C	0.4171044537066023 0.5952330128341177 0.6242515996043111	0.103807
C	0.3735035038110781 0.5493026555344586 0.6264163550645906	-0.169121
C	0.2783541152728458 0.4486377660389066 0.6284590861384285	-0.117068
C	0.2321382324962542 0.4060981574337264 0.6267252982800313	-0.111791
C	0.1313835938181761 0.3193701549190033 0.6222651634534957	-0.164858
C	0.0849060200103841 0.2771470918854151 0.6223559034490054	0.099247
C	0.9171044957065998 0.0952330128341172 0.6242515996043111	0.103810
C	0.8735035458110814 0.0493026495344581 0.6264163550645906	-0.169117
C	0.7783541362728433 0.9486378120389102 0.6284590861384285	-0.117068
C	0.7321382524962557 0.9060982034337230 0.6267252982800313	-0.111791
C	0.6313835938181759 0.8193701549190024 0.6222651634534957	-0.164858
C	0.5849060150103804 0.7771471388854155 0.6223559034490054	0.099247
C	0.5828955462933966 0.4047669871658828 0.1242515606043111	0.103807
C	0.6264964961889221 0.4506973444655415 0.1264163390645894	-0.169122
C	0.7216458637271567 0.5513622339610936 0.1284591171384277	-0.117067
C	0.7678617475037443 0.5939018425662737 0.1267253442800284	-0.111790
C	0.8686164471818240 0.6806297980809972 0.1222651784535004	-0.164860
C	0.9150940269896159 0.7228528611145845 0.1223559194490070	0.099247
C	0.0828955512934012 0.9047669411658856 0.1242515606043111	0.103812
C	0.1264964751889165 0.9506972984655447 0.1264163390645894	-0.169109
C	0.2216458637271561 0.0513622289610893 0.1284591171384277	-0.117068
C	0.2678617675037459 0.0939018305662801 0.1267253442800284	-0.111790
C	0.3686164061818241 0.1806298450809971 0.1222651784535004	-0.164861
C	0.4150939849896199 0.2228528851145866 0.1223559194490070	0.099247
C	0.5815606818163158 0.5975362202941529 0.8623347429821155	0.093829
C	0.6253425321581917 0.5517827188611820 0.8684967075460788	-0.166035
C	0.7225261064231108 0.4490426687247246 0.8716012783537763	-0.113025
C	0.7686290585352238 0.4062167241642398 0.8719506346928031	-0.110636
C	0.8700546531636896 0.3179382488981333 0.8696755113565499	-0.169132
C	0.9165712070489814 0.2757170454611377 0.8629839711421493	0.086640
C	0.0815606868163198 0.0975362202941528 0.8623347429821155	0.093829
C	0.1253425111581863 0.0517827128611815 0.8684967075460788	-0.166034
C	0.2225261064231104 0.9490427147247283 0.8716012783537763	-0.113023
C	0.2686290785352259 0.9062167701642365 0.8719506346928031	-0.110637
C	0.3700546121636906 0.8179382488981328 0.8696755113565499	-0.169132
C	0.4165711650489851 0.7757170924611388 0.8629839711421493	0.086640
C	0.4184393181836842 0.4024637797058472 0.3623347739821141	0.093830
C	0.3746574678418085 0.4482172811388180 0.3684967695460774	-0.166036
C	0.2774738725768914 0.5509573312752755 0.3716012783537766	-0.113024
C	0.2313709214647741 0.5937832758357602 0.3719506036928041	-0.110635
C	0.1299453878363095 0.6820617041018668 0.3696754493565522	-0.169149
C	0.0834288399510191 0.7242829075388612 0.3629839091421516	0.086652
C	0.9184393601836806 0.9024637337058504 0.3623347739821141	0.093898
C	0.8746575098418118 0.9482172351388213 0.3684967695460774	-0.166070
C	0.7774738935768892 0.0509573262752715 0.3716012783537766	-0.113025
C	0.7313709414647762 0.0937832638357665 0.3719506036928041	-0.110635
C	0.6299453878363103 0.1820617511018671 0.3696754493565522	-0.169149
C	0.5834288349510149 0.2242829315388636 0.3629839091421516	0.086651
C	0.5815606818163158 0.4024637797058472 0.3623347739821141	0.093830
C	0.6253425321581917 0.4482172811388180 0.3684967695460774	-0.166036
C	0.7225261064231108 0.5509573312752755 0.3716012783537766	-0.113024
C	0.7686290585352238 0.5937832758357602 0.3719506036928041	-0.110635
C	0.8700546531636896 0.6820617041018668 0.3696754493565522	-0.169150
C	0.9165712070489814 0.7242829075388612 0.3629839091421516	0.086651
C	0.0815606868163198 0.9024637337058504 0.3623347739821141	0.093830
C	0.1253425111581863 0.9482172351388213 0.3684967695460774	-0.166036
C	0.2225261064231104 0.0509573262752715 0.3716012783537766	-0.113024
C	0.2686290785352259 0.0937832638357665 0.3719506036928041	-0.110635
C	0.3700546121636906 0.1820617511018671 0.3696754493565522	-0.169150
C	0.4165711650489851 0.2242829315388636 0.3629839091421516	0.086651
C	0.4184393181836842 0.5975362202941529 0.8623347429821155	0.093830
C	0.3746574678418085 0.5517827188611820 0.8684967075460789	-0.166036
C	0.2774738725768914 0.4490426687247246 0.8716012783537763	-0.113025
C	0.2313709214647741 0.4062167241642398 0.8719506346928031	-0.110636
C	0.1299453878363095 0.3179382488981333 0.8696755113565499	-0.169133
C	0.0834288399510191 0.2757170454611377 0.8629839711421493	0.086640
C	0.9184393601836806 0.0975362202941528 0.8623347429821155	0.093898
C	0.8746575098418118 0.0517827128611815 0.8684967075460788	-0.166069
C	0.7774738935768892 0.9490427147247283 0.8716012783537763	-0.113023
C	0.7313709414647762 0.9062167701642365 0.8719506346928031	-0.110637
C	0.6299453878363103 0.8179382488981328 0.8696755113565499	-0.169133
C	0.5834288349510149 0.7757170924611388 0.8629839711421493	0.086640
C	0.4171044537066023 0.4047669871658828 0.1242515606043111	0.103808
C	0.3735035038110781 0.4506973444655415 0.1264163390645894	-0.169122
C	0.2783541152728458 0.5513622339610936 0.1284591171384277	-0.117067
C	0.2321382324962542 0.5939018425662737 0.1267253442800284	-0.111790
C	0.1313835938181761 0.6806297980809972 0.1222651784535004	-0.164863
C	0.0849060200103841 0.7228528611145845 0.1223559194490070	0.099247
C	0.9171044957065998 0.9047669411658856 0.1242515606043111	0.103816
C	0.8735035458110814 0.9506972984655447 0.1264163390645894	-0.169104
C	0.7783541362728433 0.0513622289610893 0.1284591171384277	-0.117068
C	0.7321382524962557 0.0939018305662801 0.1267253442800284	-0.111790
C	0.6313835938181759 0.1806298450809971 0.1222651784535004	-0.164863
C	0.5849060150103804 0.2228528851145866 0.1223559194490070	0.099247
C	0.5828955462933966 0.5952330128341176 0.6242515996043111	0.103808
C	0.6264964961889221 0.5493026555344586 0.6264163550645906	-0.169121
C	0.7216458637271567 0.4486377660389066 0.6284590861384285	-0.117068
C	0.7678617475037443 0.4060981574337264 0.6267252982800313	-0.111791
C	0.8686164471818240 0.3193701549190033 0.6222651634534957	-0.164860
C	0.9150940269896159 0.2771470918854151 0.6223559034490054	0.099247
C	0.0828955512934012 0.0952330128341172 0.6242515996043111	0.103808
C	0.1264964751889165 0.0493026495344581 0.6264163550645906	-0.169121
C	0.2216458637271561 0.9486378120389102 0.6284590861384285	-0.117068
C	0.2678617675037459 0.9060982034337230 0.6267252982800313	-0.111791
C	0.3686164061818241 0.8193701549190024 0.6222651634534957	-0.164860
C	0.4150939849896199 0.7771471388854155 0.6223559034490054	0.099247
C	0.3498645634331327 0.5239977168957678 0.7491949526229619	0.117053
C	0.3026019079910434 0.4742591713015478 0.7503627586073190	0.071204
C	0.2061519802560803 0.3842607381527816 0.7489608066753014	0.064852
C	0.1559027595194641 0.3405540427196590 0.7472597150920661	0.103253
C	0.8498646044331328 0.0239977148957679 0.7491949526229619	0.117045
C	0.8026019709910447 0.9742592173015510 0.7503627586073190	0.071205
C	0.7061519802560806 0.8842607381527809 0.7489608066753014	0.064852
C	0.6559027805194627 0.8405540427196587 0.7472597150920661	0.103253
C	0.6501354365668670 0.4760022831042320 0.2491949376229646	0.117053
C	0.6973980290089553 0.5257407826984490 0.2503627436073215	0.071203
C	0.7938480197439194 0.6157392618472191 0.2489607916753034	0.064846
C	0.8440972194805373 0.6594459572803413 0.2472597000920690	0.103277
C	0.1501354265668662 0.9760022361042319 0.2491949376229646	0.117054
C	0.1973980710089513 0.0257408196984478 0.2503627436073215	0.071203
C	0.2938480197439202 0.1157392728472231 0.2489607916753034	0.064846
C	0.3440972404805360 0.1594459802803392 0.2472597000920690	0.103277
C	0.6501354365668670 0.5239977168957678 0.7491949526229619	0.117053
C	0.6973980290089553 0.4742591713015478 0.7503627586073190	0.071204
C	0.7938480197439194 0.3842607381527816 0.7489608066753014	0.064852
C	0.8440972194805373 0.3405540427196590 0.7472597150920661	0.103253
C	0.1501354265668662 0.0239977148957679 0.7491949526229619	0.117053
C	0.1973980710089513 0.9742592173015510 0.7503627586073190	0.071204
C	0.2938480197439202 0.8842607381527809 0.7489608066753014	0.064852
C	0.3440972404805360 0.8405540427196587 0.7472597150920661	0.103253
C	0.3498645634331327 0.4760022831042320 0.2491949376229646	0.117053
C	0.3026019079910434 0.5257407826984490 0.2503627436073215	0.071203
C	0.2061519802560803 0.6157392618472191 0.2489607916753034	0.064846
C	0.1559027595194641 0.6594459572803413 0.2472597000920690	0.103277
C	0.8498646044331328 0.9760022361042319 0.2491949376229646	0.117047
C	0.8026019709910447 0.0257408196984478 0.2503627436073215	0.071204
C	0.7061519802560806 0.1157392728472231 0.2489607916753034	0.064846
C	0.6559027805194627 0.1594459802803392 0.2472597000920690	0.103277
H	0.4347964129302292 0.6141106029329141 0.5271784281058460	0.123238
H	0.3593142640564654 0.5353834623628554 0.5250395135032700	0.102583
H	0.2947424370230275 0.4611976217012203 0.5279633755163780	0.084874
H	0.2164099149518674 0.3902912193375191 0.5261682366061036	0.103863
H	0.1477469419227638 0.3348627812972906 0.5222172936254532	0.120596
H	0.0655154713143263 0.2590093102653606 0.5266508244993778	0.122763
H	0.9347964129302299 0.1141105799329161 0.5271784281058460	0.123238
H	0.8593142640564654 0.0353834823628497 0.5250395135032700	0.102585
H	0.7947423750230292 0.9611976217012204 0.5279633755163780	0.084872
H	0.7164098939518692 0.8902912663375199 0.5261682366061036	0.103863
H	0.6477469419227642 0.8348628042972892 0.5222172936254532	0.120596
H	0.5655154563143288 0.7590093102653601 0.5266508244993778	0.122763
H	0.5652035870697701 0.3858894200670839 0.0271783981058434	0.123238
H	0.6406857359435346 0.4646165376371444 0.0250395135032705	0.102583
H	0.7052576249769708 0.5388023782987796 0.0279634375163762	0.084874
H	0.7835901060481308 0.6097087806624805 0.0261682056060977	0.103864
H	0.8522530160772324 0.6651372427027111 0.0222173246254520	0.120595
H	0.9344845856856677 0.7409906897346399 0.0266507934993789	0.122763
H	0.0652035720697656 0.8858894430670897 0.0271783981058434	0.123237
H	0.1406857669435335 0.9646164916371479 0.0250395135032705	0.102564
H	0.2052575839769707 0.0388023842987804 0.0279634375163762	0.084872
H	0.2835901060481312 0.1097087686624798 0.0261682056060977	0.103864
H	0.3522530580772362 0.1651372307027106 0.0222173246254520	0.120595
H	0.4344845026856711 0.2409906657346377 0.0266507934993789	0.122763
H	0.5628819027571139 0.6176217833826479 -0.0429185912224007	0.111458
H	0.6384470598495109 0.5400236390118961 -0.0278746902958459	0.104849
H	0.7069689826576934 0.4618635762024540 -0.0273393849820172	0.086345
H	0.7848393084823871 0.3903422518000617 -0.0279211725031500	0.103342
H	0.8547779817667919 0.3324182284238250 -0.0283594250215429	0.121051
H	0.9368883035385607 0.2569266841394987 -0.0430917443520725	0.110381
H	0.0628818877571093 0.1176217603826495 -0.0429185912224007	0.111458
H	0.1384470908495103 0.0400236590118911 -0.0278746902958459	0.104848
H	0.2069689416576934 0.9618635762024548 -0.0273393849820172	0.086348
H	0.2848393084823870 0.8903422988000625 -0.0279211725031500	0.103342
H	0.3547780237667956 0.8324182514238235 -0.0283594250215429	0.121051
H	0.4368882205385640 0.7569266841394986 -0.0430917443520725	0.110381
H	0.4371180972428859 0.3823782396173505 0.4570814297775978	0.111458
H	0.3615529401504888 0.4599763609881031 0.4721253347041529	0.104849
H	0.2930310793423046 0.5381364237975452 0.4726605920179847	0.086345
H	0.2151607125176110 0.6096577481999378 0.4720788714968466	0.103343
H	0.1452219762332045 0.6675817955761768 0.4716405249784525	0.121044
H	0.0631117534614337 0.7430733158605014 0.4569082396479331	0.110379
H	0.9371180972428861 0.8823782626173559 0.4570814297775978	0.111446
H	0.8615529401504891 0.9599763149881072 0.4721253347041529	0.104843
H	0.7930310173423066 0.0381364297975465 0.4726605920179847	0.086345
H	0.7151606915176129 0.1096577361999372 0.4720788714968466	0.103343
H	0.6452219762332047 0.1675817835761758 0.4716405249784524	0.121044
H	0.5631117384614357 0.2430732918604994 0.4569082396479331	0.110379
H	0.5628819027571139 0.3823782396173505 0.4570814297775978	0.111458
H	0.6384470598495109 0.4599763609881031 0.4721253347041529	0.104850
H	0.7069689826576934 0.5381364237975452 0.4726605920179848	0.086345
H	0.7848393084823871 0.6096577481999378 0.4720788714968466	0.103343
H	0.8547779817667919 0.6675817955761768 0.4716405249784525	0.121043
H	0.9368883035385607 0.7430733158605014 0.4569082396479331	0.110379
H	0.0628818877571093 0.8823782626173559 0.4570814297775978	0.111458
H	0.1384470908495103 0.9599763149881072 0.4721253347041529	0.104850
H	0.2069689416576934 0.0381364297975465 0.4726605920179847	0.086345
H	0.2848393084823870 0.1096577361999372 0.4720788714968466	0.103343
H	0.3547780237667956 0.1675817835761758 0.4716405249784524	0.121043
H	0.4368882205385640 0.2430732918604994 0.4569082396479331	0.110379
H	0.4371180972428859 0.6176217833826479 -0.0429185912224007	0.111458
H	0.3615529401504888 0.5400236390118961 -0.0278746902958459	0.104850
H	0.2930310793423046 0.4618635762024540 -0.0273393849820172	0.086345
H	0.2151607125176110 0.3903422518000617 -0.0279211725031500	0.103343
H	0.1452219762332045 0.3324182284238250 -0.0283594250215429	0.121051
H	0.0631117534614337 0.2569266841394987 -0.0430917443520725	0.110381
H	0.9371180972428861 0.1176217603826495 -0.0429185912224007	0.111447
H	0.8615529401504891 0.0400236590118911 -0.0278746902958459	0.104842
H	0.7930310173423066 0.9618635762024548 -0.0273393849820172	0.086347
H	0.7151606915176129 0.8903422988000625 -0.0279211725031500	0.103343
H	0.6452219762332047 0.8324182514238235 -0.0283594250215429	0.121051
H	0.5631117384614357 0.7569266841394986 -0.0430917443520725	0.110381
H	0.4347964129302292 0.3858894200670839 0.0271783981058434	0.123238
H	0.3593142640564654 0.4646165376371444 0.0250395135032705	0.102583
H	0.2947424370230275 0.5388023782987796 0.0279634375163762	0.084874
H	0.2164099149518674 0.6097087806624805 0.0261682056060977	0.103864
H	0.1477469419227638 0.6651372427027111 0.0222173246254518	0.120595
H	0.0655154713143263 0.7409906897346399 0.0266507934993789	0.122763
H	0.9347964129302299 0.8858894430670897 0.0271783981058434	0.123237
H	0.8593142640564654 0.9646164916371479 0.0250395135032705	0.102565
H	0.7947423750230292 0.0388023842987804 0.0279634375163762	0.084871
H	0.7164098939518692 0.1097087686624798 0.0261682056060977	0.103864
H	0.6477469419227642 0.1651372307027106 0.0222173246254518	0.120595
H	0.5655154563143288 0.2409906657346377 0.0266507934993789	0.122763
H	0.5652035870697701 0.6141106029329141 0.5271784281058460	0.123238
H	0.6406857359435346 0.5353834623628554 0.5250395135032700	0.102583
H	0.7052576249769708 0.4611976217012203 0.5279633755163780	0.084873
H	0.7835901060481308 0.3902912193375191 0.5261682366061036	0.103863
H	0.8522530160772324 0.3348627812972906 0.5222172936254532	0.120596
H	0.9344845856856676 0.2590093102653606 0.5266508244993778	0.122763
H	0.0652035720697656 0.1141105799329161 0.5271784281058460	0.123238
H	0.1406857669435335 0.0353834823628497 0.5250395135032700	0.102583
H	0.2052575839769707 0.9611976217012204 0.5279633755163780	0.084874
H	0.2835901060481312 0.8902912663375199 0.5261682366061036	0.103863
H	0.3522530580772362 0.8348628042972892 0.5222172936254532	0.120596
H	0.4344845026856711 0.7590093102653601 0.5266508244993778	0.122763
Cu	0.5000000000000000 0.6877457008615016 0.7252955577133767	0.657588
Cu	-0.0000000000000000 0.1877457008615014 0.7252955577133767	0.657590
Cu	0.5000000000000000 0.3122542991384987 0.2252955427133796	0.657588
Cu	-0.0000000000000000 0.8122542521384981 0.2252955427133796	0.657589
F	0.5000000000000000 0.6859981772597585 0.4970844048836760	-0.671845
F	-0.0000000000000000 0.1859982112597617 0.4970844048836760	-0.671845
F	0.5000000000000000 0.3140017997402428 0.9970843738836768	-0.671846
F	-0.0000000000000000 0.8140017767402448 0.9970843738836768	-0.671846
F	0.4445326469962362 0.7481370659789847 0.2858799142221457	-0.597729
F	0.5555604162270288 0.6223098222575818 0.2862842948216242	-0.594341
F	0.9445326469962366 0.2481371119789813 0.2858799142221457	-0.597729
F	0.0555604162270290 0.1223098342575759 0.2862842948216242	-0.594341
F	0.5554673530037634 0.2518628880210185 0.7858799292221434	-0.597731
F	0.4444395837729708 0.3776901777424177 0.7862843098216213	-0.594339
F	0.0554673320037654 0.7518629340210153 0.7858799292221434	-0.597731
F	0.9444395837729712 0.8776902237424220 0.7862843098216213	-0.594338
F	0.5554673530037634 0.7481370659789847 0.2858799142221457	-0.597729
F	0.4444395837729708 0.6223098222575818 0.2862842948216242	-0.594341
F	0.0554673320037654 0.2481371119789813 0.2858799142221457	-0.597730
F	0.9444395837729712 0.1223098342575759 0.2862842948216242	-0.594340
F	0.4445326469962362 0.2518628880210185 0.7858799292221434	-0.597731
F	0.5555604162270288 0.3776901777424177 0.7862843098216213	-0.594339
F	0.9445326469962366 0.7518629340210153 0.7858799292221434	-0.597731
F	0.0555604162270290 0.8776902237424220 0.7862843098216213	-0.594339
O	0.5000000000000000 0.6856385310141599 0.0878940377670426	-0.812976
O	-0.0000000000000000 0.1856385650141631 0.0878940377670426	-0.812976
O	0.5000000000000000 0.3143614459858415 0.5878940607670413	-0.812976
O	-0.0000000000000000 0.8143614229858434 0.5878940607670413	-0.812976
N	0.4395898470776213 0.6191156578500384 0.7415624528346711	-0.213032
N	0.5616592049378907 0.7554008283017430 0.7412687859546725	-0.221540
N	0.9395898880776209 0.1191156688500354 0.7415624528346711	-0.213050
N	0.0616592209378924 0.2554007813017421 0.7412687859546725	-0.221540
N	0.5604101529223789 0.3808843191499635 0.2415624378346740	-0.213033
N	0.4383407950621092 0.2445991946982560 0.2412687709546744	-0.221540
N	0.0604101529223788 0.8808843421499616 0.2415624378346740	-0.213034
N	0.9383407950621093 0.7445991716982570 0.2412687709546744	-0.221540
N	0.5604101529223789 0.6191156578500384 0.7415624528346711	-0.213032
N	0.4383407950621092 0.7554008283017430 0.7412687859546725	-0.221540
N	0.0604101529223788 0.1191156688500354 0.7415624528346711	-0.213032
N	0.9383407950621093 0.2554007813017421 0.7412687859546725	-0.221541
N	0.4395898470776213 0.3808843191499635 0.2415624378346740	-0.213034
N	0.5616592049378907 0.2445991946982560 0.2412687709546744	-0.221540
N	0.9395898880776209 0.8808843421499616 0.2415624378346740	-0.213052
N	0.0616592209378924 0.7445991716982570 0.2412687709546744	-0.221540
V	0.5000000000000000 0.6852886083244418 0.2577210658888925	2.253394
V	-0.0000000000000000 0.1852886543244378 0.2577210658888925	2.253394
V	0.5000000000000000 0.3147113456755623 0.7577210808888901	2.253394
V	-0.0000000000000000 0.8147113916755583 0.7577210808888901	2.253394
	  	
