#======================================================================

# CRYSTAL DATA

#----------------------------------------------------------------------

data_VESTA_phase_1


_pd_phase_name                         VOFFIVE_16_Co_i
_cell_length_a                         24.78854
_cell_length_b                         24.78854
_cell_length_c                         7.66295
_cell_angle_alpha                      90
_cell_angle_beta                       90
_cell_angle_gamma                      90
_symmetry_space_group_name_H-M         P 1
_symmetry_Int_Tables_number            1

loop_
_symmetry_equiv_pos_as_xyz
   x, y, z

loop_
   _atom_site_label
   _atom_site_fract_x
   _atom_site_fract_y
   _atom_site_fract_z
   _atom_site_charge
C	0.4780235827421394 0.3928044582986082 0.3670024130805886	0.090907
C	0.4769237889268395 0.3368448755691082 0.3620020071244718	-0.165535
C	0.9543641272554146 0.6146493009227627 0.9424124436891350	-0.126568
C	0.9545161857223876 0.5586265583879677 0.9432742031366159	-0.122393
C	0.5219764552578638 0.6071955417013918 0.3670024130805886	0.090903
C	0.5230761730731648 0.6631550864308962 0.3620020071244718	-0.165521
C	0.0456358677445816 0.3853506990772368 0.9424124436891350	-0.126568
C	0.0454838192776096 0.4413734416120316 0.9432742031366159	-0.122393
C	0.6071955417013918 0.4780235827421394 0.3670024130805886	0.090907
C	0.6631550864308962 0.4769237889268395 0.3620020071244718	-0.165536
C	0.3853506990772368 0.9543641272554146 0.9424124436891350	-0.126568
C	0.4413734416120316 0.9545161857223876 0.9432742031366159	-0.122393
C	0.3928044582986082 0.5219764552578638 0.3670024130805886	0.090903
C	0.3368448755691082 0.5230761730731648 0.3620020071244718	-0.165521
C	0.6146493009227627 0.0456358677445816 0.9424124436891350	-0.126568
C	0.5586265583879677 0.0454838192776096 0.9432742031366159	-0.122393
C	0.5227089436043479 0.3921724859456838 0.6339044063600398	0.093253
C	0.5234140955040024 0.3362359332100368 0.6375180044507303	-0.170234
C	0.0456647646984578 0.6146350976819416 0.0574036456516915	-0.126474
C	0.0454865363909925 0.5586149723756667 0.0566630920414595	-0.122481
C	0.4772910943956549 0.6078275140543159 0.6339044063600398	0.093253
C	0.4765858664960012 0.6637640287899670 0.6375180044507303	-0.170233
C	0.9543352303015380 0.3853649023180585 0.0574036456516915	-0.126474
C	0.9545134686090047 0.4413850276243330 0.0566630920414595	-0.122481
C	0.3921724859456838 0.4772910943956549 0.6339044063600398	0.093253
C	0.3362359332100368 0.4765858664960012 0.6375180044507303	-0.170233
C	0.6146350976819416 0.9543352303015380 0.0574036456516915	-0.126474
C	0.5586149723756667 0.9545134686090047 0.0566630920414595	-0.122481
C	0.6078275140543159 0.5227089436043479 0.6339044063600398	0.093253
C	0.6637640287899670 0.5234140955040024 0.6375180044507303	-0.170234
C	0.3853649023180585 0.0456647646984578 0.0574036456516915	-0.126474
C	0.4413850276243330 0.0454865363909925 0.0566630920414595	-0.122481
C	0.5456647696984620 0.8853649023180584 0.5574036536516918	-0.126473
C	0.5454865313909953 0.9413850276243333 0.5566631280414622	-0.122481
C	0.0227089266043503 0.1078275050543187 0.1339044383600353	0.093252
C	0.0234141335039989 0.1637640477899653 0.1375180044507300	-0.170233
C	0.4543352693015379 0.1146350876819407 0.5574036536516918	-0.126473
C	0.4545134686090045 0.0586149623756661 0.5566631280414622	-0.122481
C	0.9772910183956489 0.8921724859456841 0.1339044383600353	0.093253
C	0.9765858664960015 0.8362359332100370 0.1375180044507300	-0.170233
C	0.1146350876819407 0.5456647696984620 0.5574036536516918	-0.126473
C	0.0586149623756661 0.5454865313909953 0.5566631280414622	-0.122481
C	0.8921724859456841 0.0227089266043503 0.1339044383600353	0.093253
C	0.8362359332100370 0.0234141335039989 0.1375180044507300	-0.170233
C	0.8853649023180584 0.4543352693015379 0.5574036536516918	-0.126473
C	0.9413850276243333 0.4545134686090045 0.5566631280414622	-0.122481
C	0.1078275050543187 0.9772910183956489 0.1339044383600353	0.093252
C	0.1637640477899653 0.9765858664960015 0.1375180044507300	-0.170233
C	0.4543641662554141 0.8853506990772373 0.4424124436891356	-0.126566
C	0.4545161857223871 0.9413734416120323 0.4432742031366159	-0.122393
C	0.9780235067421330 0.1071955327013948 0.8670024130805887	0.090907
C	0.9769237889268392 0.1631551054308938 0.8620019751244691	-0.165535
C	0.5456358727445854 0.1146492909227619 0.4424124436891356	-0.126566
C	0.5454838142776124 0.0586265483879673 0.4432742031366159	-0.122393
C	0.0219764382578660 0.8928044582986082 0.8670024130805887	0.090907
C	0.0230762110731606 0.8368448755691078 0.8620019751244691	-0.165535
C	0.8853506990772373 0.5456358727445854 0.4424124436891356	-0.126566
C	0.9413734416120323 0.5454838142776124 0.4432742031366159	-0.122393
C	0.1071955327013948 0.0219764382578660 0.8670024130805887	0.090907
C	0.1631551054308938 0.0230762110731606 0.8620019751244691	-0.165535
C	0.1146492909227619 0.4543641662554141 0.4424124436891356	-0.126566
C	0.0586265483879673 0.4545161857223871 0.4432742031366159	-0.122393
C	0.8928044582986082 0.9780235067421330 0.8670024130805887	0.090907
C	0.8368448755691078 0.9769237889268392 0.8620019751244691	-0.165535
C	0.4999771505956296 0.3070985392253435 0.4993939740525695	0.171170
C	0.4998077343789094 0.2499602081548138 0.4990220163748558	-0.116185
C	0.4999060678750818 0.2007526037531529 0.4995069671574877	-0.094494
C	0.4999669829032856 0.1435833110560582 0.4998022249467351	0.123327
C	0.5000001586490896 0.0296657386271531 0.4999569932268093	0.064641
C	0.0000228494043702 0.8070985592253450 -0.0006060259474308	0.171170
C	0.0001922656210909 0.7499602271548121 -0.0009779836251443	-0.116185
C	0.0000939321249179 0.7007526037531532 -0.0004930328425123	-0.094494
C	0.0000330170967140 0.6435833110560587 -0.0001977750532649	0.123328
C	-0.0000001586490897 0.5296657346271524 -0.0000430067731909	0.064641
C	0.5000228494043700 0.6929014027746589 0.4993939740525695	0.171165
C	0.5001922656210908 0.7500398108451839 0.4990220163748558	-0.116184
C	0.5000939321249180 0.7992473572468471 0.4995069671574877	-0.094495
C	0.5000330170967140 0.8564166499439416 0.4998022249467351	0.123327
C	0.4999998413509101 0.9703343043728473 0.4999569932268093	0.064646
C	-0.0000228494043702 0.1929014407746548 -0.0006060259474308	0.171170
C	-0.0001922656210909 0.2500397918451862 -0.0009779836251443	-0.116185
C	-0.0000939321249179 0.2992473762468454 -0.0004930328425123	-0.094495
C	-0.0000330170967140 0.3564166889439416 -0.0001977750532649	0.123328
C	0.0000001586490897 0.4703342653728472 -0.0000430067731909	0.064646
C	0.6929014027746589 0.4999771505956296 0.4993939740525695	0.171170
C	0.7500398108451839 0.4998077343789094 0.4990220163748558	-0.116184
C	0.7992473572468471 0.4999060678750818 0.4995069671574877	-0.094495
C	0.8564166499439416 0.4999669829032856 0.4998022249467351	0.123327
C	0.9703343043728473 0.5000001586490896 0.4999569932268093	0.064641
C	0.1929014407746548 0.0000228494043702 -0.0006060259474308	0.171170
C	0.2500397918451862 0.0001922656210909 -0.0009779836251443	-0.116185
C	0.2992473762468454 0.0000939321249179 -0.0004930328425123	-0.094495
C	0.3564166889439416 0.0000330170967140 -0.0001977750532649	0.123328
C	0.4703342653728472 -0.0000001586490897 -0.0000430067731909	0.064641
C	0.3070985392253435 0.5000228494043700 0.4993939740525695	0.171165
C	0.2499602081548138 0.5001922656210908 0.4990220163748558	-0.116184
C	0.2007526037531529 0.5000939321249180 0.4995069671574877	-0.094495
C	0.1435833110560582 0.5000330170967140 0.4998022249467351	0.123327
C	0.0296657386271531 0.4999998413509101 0.4999569932268093	0.064646
C	0.8070985592253450 -0.0000228494043702 -0.0006060259474308	0.171170
C	0.7499602271548121 -0.0001922656210909 -0.0009779836251443	-0.116185
C	0.7007526037531532 -0.0000939321249179 -0.0004930328425123	-0.094494
C	0.6435833110560587 -0.0000330170967140 -0.0001977750532649	0.123328
C	0.5296657346271524 0.0000001586490897 -0.0000430067731909	0.064646
H	0.4614783501620646 0.4167049282598237 0.2602218328292067	0.112816
H	0.4584375064662821 0.3164046606513158 0.2513941294165182	0.126319
H	0.9191681913857891 0.6367694417896633 0.8960726526223158	0.111997
H	0.9193603691654771 0.5367736542172887 0.8948628581641840	0.105456
H	0.5385216498379349 0.5832951097401716 0.2602218328292066	0.112816
H	0.5415625315337140 0.6835953583486893 0.2513941294165182	0.126312
H	0.0808318086142105 0.3632305962103325 0.8960726526223158	0.111997
H	0.0806396118345244 0.4632263457827112 0.8948628581641840	0.105456
H	0.5832951097401716 0.4614783501620646 0.2602218328292067	0.112816
H	0.6835953583486893 0.4584375064662821 0.2513941294165182	0.126319
H	0.3632305962103325 0.9191681913857891 0.8960726526223158	0.111997
H	0.4632263457827112 0.9193603691654771 0.8948628581641840	0.105456
H	0.4167049282598237 0.5385216498379349 0.2602218328292066	0.112816
H	0.3164046606513158 0.5415625315337140 0.2513941294165182	0.126312
H	0.6367694417896633 0.0808318086142105 0.8960726526223158	0.111997
H	0.5367736542172887 0.0806396118345244 0.8948628581641840	0.105456
H	0.5397015683716810 0.4155122310287676 0.7411550833572075	0.107877
H	0.5417397270803554 0.3153992050203446 0.7475918097177626	0.128237
H	0.0808571844979097 0.6367562249081568 0.1037573020262354	0.111885
H	0.0806370306328570 0.5367579257277206 0.1050818291302266	0.105478
H	0.4602984316283187 0.5844878069712285 0.7411550833572075	0.107877
H	0.4582603109196406 0.6846008139796602 0.7475918097177626	0.128237
H	0.9191428155020896 0.3632438130918400 0.1037573020262354	0.111885
H	0.9193629503671453 0.4632420742722793 0.1050818291302266	0.105478
H	0.4155122310287676 0.4602984316283187 0.7411550833572075	0.107877
H	0.3153992050203446 0.4582603109196406 0.7475918097177626	0.128237
H	0.6367562249081568 0.9191428155020896 0.1037573020262354	0.111885
H	0.5367579257277206 0.9193629503671453 0.1050818291302266	0.105478
H	0.5844878069712285 0.5397015683716810 0.7411550833572075	0.107877
H	0.6846008139796602 0.5417397270803554 0.7475918097177626	0.128237
H	0.3632438130918400 0.0808571844979097 0.1037573020262354	0.111885
H	0.4632420742722793 0.0806370306328570 0.1050818291302266	0.105478
H	0.5808571464979143 0.8632437750918432 0.6037573260262374	0.111881
H	0.5806370116328586 0.9632420362722833 0.6050818451302277	0.105478
H	0.0397015703716813 0.0844877689712327 0.2411550833572075	0.107877
H	0.0417396890803595 0.1846007949796551 0.2475918097177626	0.128238
H	0.4191428155020904 0.1367561959081574 0.6037573260262374	0.111881
H	0.4193629883671409 0.0367579427277186 0.6050818451302277	0.105478
H	0.9602984696283221 0.9155122310287676 0.2411550833572075	0.107877
H	0.9582603109196406 0.8153992240203429 0.2475918097177626	0.128238
H	0.1367561959081574 0.5808571464979143 0.6037573260262374	0.111881
H	0.0367579427277186 0.5806370116328586 0.6050818451302277	0.105478
H	0.9155122310287676 0.0397015703716813 0.2411550833572075	0.107877
H	0.8153992240203429 0.0417396890803595 0.2475918097177626	0.128238
H	0.8632437750918432 0.4191428155020904 0.6037573260262374	0.111881
H	0.9632420362722833 0.4193629883671409 0.6050818451302277	0.105478
H	0.0844877689712327 0.9602984696283221 0.2411550833572075	0.107877
H	0.1846007949796551 0.9582603109196406 0.2475918097177626	0.128238
H	0.4191681913857895 0.8632305582103367 0.3960726206223131	0.111990
H	0.4193604071654737 0.9632263077827152 0.3948629221641817	0.105456
H	0.9614783881620682 0.0832950717401760 0.7602218488292081	0.112816
H	0.9584375064662820 0.1835953393486842 0.7513940974165231	0.126317
H	0.5808317706142149 0.1367694127896648 0.3960726206223131	0.111990
H	0.5806395928345268 0.0367736712172867 0.3948629221641817	0.105456
H	0.0385216518379354 0.9167049282598244 0.7602218488292081	0.112816
H	0.0415624935337180 0.8164046796513138 0.7513940974165231	0.126317
H	0.8632305582103367 0.5808317706142149 0.3960726206223131	0.111990
H	0.9632263077827152 0.5806395928345268 0.3948629221641817	0.105456
H	0.0832950717401760 0.0385216518379354 0.7602218488292081	0.112816
H	0.1835953393486842 0.0415624935337180 0.7513940974165231	0.126317
H	0.1367694127896648 0.4191681913857895 0.3960726206223131	0.111990
H	0.0367736712172867 0.4193604071654737 0.3948629221641817	0.105456
H	0.9167049282598244 0.9614783881620682 0.7602218488292081	0.112816
H	0.8164046796513138 0.9584375064662820 0.7513940974165231	0.126317
Co	0.5000000000000000 0.5000000000000000 0.5041640505033220	0.649909
Co	0.0000000000000000 -0.0000000000000000 0.0041640505033218	0.649909
V	0.5000000000000000 0.5000000000000000 -0.0188440990874776	2.230067
V	0.0000000000000000 -0.0000000000000000 0.4811559009125224	2.230067
F	0.5000000000000000 0.5000000000000000 0.2377794358508480	-0.614448
F	0.0000000000000000 -0.0000000000000000 0.7377793878508442	-0.614448
F	0.5540607727630429 0.5522373109957225 0.0038202458608968	-0.586690
F	0.0522372829957271 0.0540607447630482 0.5038202458608967	-0.586690
F	0.4459392652369524 0.4477627270042734 0.0038202458608968	-0.586690
F	0.9477626890042775 0.9459392272369571 0.5038202458608967	-0.586690
F	0.4477627270042734 0.5540607727630429 0.0038202458608968	-0.586690
F	0.9459392272369571 0.0522372829957271 0.5038202458608967	-0.586690
F	0.5522373109957225 0.4459392652369524 0.0038202458608968	-0.586690
F	0.0540607447630482 0.9477626890042775 0.5038202458608967	-0.586690
O	0.5000000000000000 0.5000000000000000 0.7650890494129198	-0.837492
O	0.0000000000000000 -0.0000000000000000 0.2650890174129179	-0.837492
N	0.5003697487653637 0.4201898593523619 0.5011327244123516	-0.179317
N	-0.0003697487653636 0.9201898973523648 0.0011327244123515	-0.179317
N	0.4996302512346362 0.5798101406476384 0.5011327244123516	-0.179316
N	0.0003697487653636 0.0798101126476359 0.0011327244123515	-0.179317
N	0.5798101406476384 0.5003697487653637 0.5011327244123516	-0.179317
N	0.0798101126476359 -0.0003697487653636 0.0011327244123515	-0.179317
N	0.4201898593523619 0.4996302512346362 0.5011327244123516	-0.179316
N	0.9201898973523648 0.0003697487653636 0.0011327244123515	-0.179317
	  	
