#======================================================================

# CRYSTAL DATA

#----------------------------------------------------------------------

data_VESTA_phase_1


_pd_phase_name                         VOFFIVE_2_Co
_cell_length_a                         13.59698
_cell_length_b                         13.59698
_cell_length_c                         7.90102
_cell_angle_alpha                      90
_cell_angle_beta                       90
_cell_angle_gamma                      90
_symmetry_space_group_name_H-M         P 1
_symmetry_Int_Tables_number            1

loop_
_symmetry_equiv_pos_as_xyz
   x, y, z

loop_
   _atom_site_label
   _atom_site_fract_x
   _atom_site_fract_y
   _atom_site_fract_z
   _atom_site_charge
C	0.5317453360905064 0.6959088915075837 0.1369792764800071	0.093032
C	0.5323896833376172 0.7977876899369249 0.1416162468801223	-0.163782
C	0.4682546639094938 0.3040911434924157 0.1369792764800071	0.093029
C	0.4676103166623825 0.2022123450630743 0.1416162468801223	-0.163780
C	0.3040911434924157 0.5317453360905064 0.1369792764800071	0.093032
C	0.2022123450630743 0.5323896833376172 0.1416162468801223	-0.163782
C	0.6959088915075837 0.4682546639094938 0.1369792764800071	0.093030
C	0.7977876899369249 0.4676103166623825 0.1416162468801223	-0.163780
C	0.4685703591131947 0.6951680817539257 0.8630028682628382	0.092210
C	0.4676966245816891 0.7972005872233948 0.8581315166474968	-0.163149
C	0.5314296408868054 0.3048319532460738 0.8630028682628382	0.092207
C	0.5323033754183109 0.2027994477766047 0.8581315166474968	-0.163146
C	0.6951680817539257 0.5314296408868054 0.8630028682628382	0.092208
C	0.7972005872233948 0.5323033754183109 0.8581315166474968	-0.163146
C	0.3048319532460738 0.4685703591131947 0.8630028682628382	0.092210
C	0.2027994477766047 0.4676966245816891 0.8581315166474968	-0.163149
C	0.5000853857474850 0.1487916713696210 -0.0003005962469626	0.165188
C	0.5001071734039216 0.0448430892613163 -0.0005199135661861	-0.093212
C	0.4999146142525153 0.8512083286303792 -0.0003005962469626	0.165157
C	0.4998928265960783 0.9551569027386831 -0.0005199135661861	-0.092964
C	0.8512083286303792 0.5000853857474850 -0.0003005962469626	0.165188
C	0.9551569027386831 0.5001071734039216 -0.0005199135661861	-0.093212
C	0.1487916713696210 0.4999146142525153 -0.0003005962469626	0.165157
C	0.0448430892613163 0.4998928265960783 -0.0005199135661861	-0.092964
H	0.5565658549890808 0.6532379959711152 0.2455578192007937	0.105442
H	0.5585393982853621 0.8355196363197953 0.2543947584464402	0.129982
H	0.4434341450109193 0.3467619340288787 0.2455578192007937	0.105442
H	0.4414606017146377 0.1644803636802047 0.2543947584464402	0.129983
H	0.3467619340288787 0.5565658549890808 0.2455578192007937	0.105442
H	0.1644803636802047 0.5585393982853621 0.2543947584464402	0.129982
H	0.6532379959711152 0.4434341450109193 0.2455578192007937	0.105442
H	0.8355196363197953 0.4414606017146377 0.2543947584464402	0.129983
H	0.4446851413046188 0.6515973269930511 0.7546197991849867	0.112867
H	0.4416092575980787 0.8350096015919091 0.7454147078351050	0.129832
H	0.5553148586953812 0.3484026030069426 0.7546197991849867	0.112867
H	0.5583907424019215 0.1649903984080909 0.7454147078351050	0.129833
H	0.6515973269930511 0.5553148586953812 0.7546197991849867	0.112867
H	0.8350096015919091 0.5583907424019215 0.7454147078351050	0.129833
H	0.3484026030069426 0.4446851413046188 0.7546197991849867	0.112867
H	0.1649903984080909 0.4416092575980787 0.7454147078351050	0.129831
Co	0.5000000000000000 0.5000000000000000 0.0027042857779623	0.626344
V	0.5000000000000000 0.5000000000000000 0.4810712371412987	2.233654
F	0.5000000000000000 0.5000000000000000 0.7326870090644656	-0.619217
F	0.5961636454959744 0.5971536129191709 0.5037226257037443	-0.583247
F	0.4028464220808288 0.5961636454959744 0.5037226257037443	-0.583247
F	0.4038363895040248 0.4028464220808288 0.5037226257037443	-0.583247
F	0.5971536129191709 0.4038363895040248 0.5037226257037443	-0.583247
O	0.5000000000000000 0.5000000000000000 0.2712845054729796	-0.824560
N	0.4998869742793038 0.3549999264165623 0.0004441618074403	-0.179327
N	0.5001130257206960 0.6450001085834371 0.0004441618074403	-0.179326
N	0.6450001085834371 0.4998869742793038 0.0004441618074403	-0.179327
N	0.3549999264165623 0.5001130257206960 0.0004441618074403	-0.179326
	  	
