#======================================================================

# CRYSTAL DATA

#----------------------------------------------------------------------

data_VESTA_phase_1


_pd_phase_name                         VOFFIVE_13_Zn_i
_cell_length_a                         15.40109
_cell_length_b                         15.39915
_cell_length_c                         7.74071
_cell_angle_alpha                      89.73996
_cell_angle_beta                       90.21137
_cell_angle_gamma                      89.74602
_symmetry_space_group_name_H-M         P 1
_symmetry_Int_Tables_number            1

loop_
_symmetry_equiv_pos_as_xyz
   x, y, z

loop_
   _atom_site_label
   _atom_site_fract_x
   _atom_site_fract_y
   _atom_site_fract_z
   _atom_site_charge
C	0.5403445969619369 0.6861159828209322 0.8690068395714539	0.108159
C	0.5440680430154593 0.7765056644288323 0.8669607244985300	-0.151308
C	0.4629494423981838 0.3170407048313256 0.8757635936985344	0.106719
C	0.4592727501034988 0.2267126066214993 0.8759846428201921	-0.143259
C	0.8160755640583245 0.9734516137839688 0.3628923357130127	0.109480
C	0.7258582556193074 0.9700602745837770 0.3583494265793729	-0.138305
C	0.3159428366988754 0.5418617150868345 0.8668102203213881	0.106338
C	0.2255461423784624 0.5461794749518448 0.8638416935286046	-0.150308
C	0.1859906713032589 0.9709208116614672 0.3539950279539059	0.104733
C	0.2762532632749848 0.9695244289688618 0.3510569328529603	-0.138415
C	0.6850875054721421 0.4627720180688575 0.8819026175073850	0.108737
C	0.7753643083128182 0.4594992477519488 0.8809976051180520	-0.143167
C	0.4542178822939470 0.6865568512469482 0.1150893997748216	0.109037
C	0.4511602694533071 0.7767823574384884 0.1174294745893652	-0.142395
C	0.5409062494700650 0.3176609237403759 0.1338543707653709	0.105108
C	0.5434940448041622 0.2272857122968958 0.1396276720026230	-0.151470
C	0.1846367609611719 0.0209973010638165 0.6368245914465724	0.111891
C	0.2747362078740814 0.0231916350333080 0.6441251518138230	-0.142942
C	0.6841759477665916 0.5443491334487491 0.1340488737866741	0.107986
C	0.7745259138461258 0.5476680820580613 0.1380702716515962	-0.152153
C	0.8152299058538613 0.0304042852333224 0.6405723762734331	0.103318
C	0.7250714795385781 0.0310831375314567 0.6457377682876594	-0.139141
C	0.3150492585280532 0.4574625711201367 0.1168186846148982	0.107834
C	0.2247849063231809 0.4550064568895759 0.1184733024111263	-0.143238
C	0.9647719536207671 0.8132793053800418 0.6356877681266745	0.109779
C	0.9637820918845569 0.7230100071304736 0.6425368810135285	-0.140106
C	0.9824854462098260 0.1831982815544420 0.6431560826140272	0.105819
C	0.9789846855647781 0.2732542277140422 0.6460950871696787	-0.141342
C	0.0212924340437705 0.8130314819505050 0.3576279795537521	0.104598
C	0.0244894041242027 0.7228981761814328 0.3548039574031234	-0.138773
C	0.0310588978241807 0.1822465642791019 0.3591072201280990	0.109654
C	0.0313923309877980 0.2725798922235546 0.3519264213511374	-0.138230
C	0.0039309150401998 0.3188605778035321 0.4975332296459906	0.040941
C	0.0013242597569402 0.4139283109874080 0.4970475856006826	0.254540
C	0.4980687621746229 0.8226212774650646 0.9924139044139303	0.055939
C	0.4991301207138012 0.9183369460678839 0.9971328175813685	0.246561
C	0.9952075815169146 0.6769309289277834 0.4998102656535615	0.038244
C	0.9973583694149220 0.5817487092004890 0.4999272828640871	0.246450
C	0.5010280065468157 0.1810529053441134 0.0094296525054045	0.054795
C	0.5003566681679056 0.0852186136678506 0.0102858763722889	0.250811
C	0.6794713192817703 -0.0002935669461747 0.5021401241921422	0.037154
C	0.5843582090428356 0.9975382362301960 0.5032652764864340	0.247974
C	0.1792330057070581 0.5012915352340828 0.9908154944508235	0.054460
C	0.0834844469371715 0.5023177566879795 0.9931564174115541	0.249837
C	0.3214810791071176 0.9962538359123874 0.4987906033356965	0.040705
C	0.4165596302716605 0.9960039266669878 0.5018152112500860	0.255720
C	0.8208875602763961 0.5035626875599819 0.0103400554250335	0.053750
C	0.9166560544038947 0.5033574900966182 0.0078194416913602	0.250136
H	0.5713116358834401 0.6472414553986463 0.7687454067303754	0.110509
H	0.5812179897295231 0.8100751292599633 0.7676589464410023	0.122291
H	0.4351304955180578 0.3555485610018284 0.7701093314377397	0.111434
H	0.4270075710318345 0.1919053180481350 0.7719095274141454	0.117139
H	0.8549132908678984 0.9525853056347255 0.2529012638759396	0.109074
H	0.6923834433429032 0.9455743906205339 0.2444518008546740	0.118425
H	0.3549930596023402 0.5719324386223206 0.7654737077370527	0.110937
H	0.1921451985754147 0.5828616785405950 0.7626128536931220	0.123032
H	0.1483769307968656 0.9529597248781252 0.2401327172477381	0.103825
H	0.3104027660954460 0.9494977656264177 0.2347591001128441	0.114946
H	0.6465770871281669 0.4335422502045294 0.7788598992448856	0.111276
H	0.8102535608029688 0.4259926582700332 0.7787228175031576	0.116545
H	0.4225789513748442 0.6479297389949300 0.2150673517467163	0.105856
H	0.4162544691007371 0.8112677674542598 0.2183086104609451	0.115357
H	0.5696567882865777 0.3565357308705869 0.2368067746828903	0.105085
H	0.5767230870873257 0.1938604120642069 0.2454479153074511	0.123196
H	0.1457500274925062 0.0400987883437033 0.7478263725783199	0.100492
H	0.3076867654074704 0.0440130397458242 0.7615168053194630	0.118325
H	0.6452076310369210 0.5742642415596575 0.2354108196256737	0.105262
H	0.8078093984608431 0.5827516559355647 0.2406511349205362	0.122853
H	0.8529690814737112 0.0517224714555601 0.7518307441018121	0.096901
H	0.6911806657066203 0.0540093622826041 0.7601889608026290	0.119426
H	0.3534355939313048 0.4262607084824875 0.2186911157679126	0.105378
H	0.1899670102260867 0.4208477203008174 0.2202570997076895	0.115564
H	0.9428391815170130 0.8518179785836730 0.7452375251959744	0.102843
H	0.9405260471052802 0.6895473959280676 0.7576718464108557	0.118458
H	0.9657164455401225 0.1455169011731419 0.7575325680642905	0.093589
H	0.9585005592219126 0.3071925941985901 0.7622769831224467	0.118593
H	0.0410790168612192 0.8511009749469762 0.2456034307153686	0.102414
H	0.0484756374394970 0.6891927019025191 0.2411171541486667	0.117756
H	0.0499024067811448 0.1433376539740891 0.2477240306071720	0.110112
H	0.0509428997478356 0.3060343684259379 0.2340299443332453	0.117670
N	0.9444676408351833 0.5388729091087897 0.6098648571439741	-0.136095
N	0.4223113807555500 0.0455673323665699 0.0089169470351574	-0.150205
N	0.5423817932028997 0.0500193776930954 0.6153056814365290	-0.135517
N	0.9569979619820693 0.4253585558482738 0.0025524502403543	-0.147068
N	0.0518211716623515 0.5421888316339692 0.3880901140522238	-0.133348
N	0.5777610818250462 0.0436684296446644 0.0118317988534700	-0.148154
N	0.9573827473566314 0.5808442463380182 0.0053161921713401	-0.150446
N	0.5440285902021946 0.9420933042935522 0.3947303031249179	-0.134056
N	0.0542623781113283 0.4568166790162023 0.3876290717417862	-0.130719
N	0.5771751587118179 0.9579997285457907 0.0005178347503889	-0.147297
N	0.4585951801137483 0.9413855388496263 0.3942843466958342	-0.131023
N	0.0430222439860906 0.5803054189865641 0.9934074292327083	-0.145094
N	0.9460719646226441 0.4534449348745210 0.6071670559867687	-0.129630
N	0.4217959803926387 0.9597471649782429 0.0055592936883522	-0.144317
N	0.0427991970406576 0.4248187495866866 0.9982623343527273	-0.149924
N	0.4569965441675710 0.0492444671952861 0.6143532822861157	-0.133377
N	0.0068515943775831 0.1386089845858228 0.5021525353513669	-0.210954
N	0.4973130829259361 0.6424029063777058 0.9925391256299079	-0.214765
N	0.9932068829864339 0.8572804697454067 0.4963514735918536	-0.208979
N	0.5020888063247549 0.3612777561146581 0.0036153102509177	-0.217074
N	0.8597588190868642 0.0025646633854273 0.5019572161257780	-0.209084
N	0.3594057051635761 0.4993668643044587 0.9925986654701819	-0.216479
N	0.1411895232503389 0.9953236587649404 0.4948585280166785	-0.210441
N	0.6406764300168458 0.5034948460589457 0.0073872350874882	-0.217345
Zn	0.0004033802338976 0.9977728818848348 0.4997290645816542	0.767130
Zn	0.5001042605424172 0.5020127099888564 0.0002437445259420	0.770243
V	0.0004723295900402 0.9961416867035108 0.9790294473567037	2.249104
V	0.4991019080093301 0.5035878798972794 0.4792689047136887	2.268614
F	0.9996310985985217 -0.0011613523443342 0.2389867524379798	-0.614702
F	0.5043150930842282 0.5006237312600242 0.7396865339072436	-0.620304
F	0.0857807291562733 0.0801573952746698 0.0019088422569254	-0.569178
F	0.5827929177024560 0.5895097882206680 0.5010007977563872	-0.583122
F	0.9154029156895085 0.9125073415699072 0.0059753936352825	-0.567954
F	0.4162661713211694 0.4175173049101394 0.5075723891925509	-0.584035
F	0.9165704404796533 0.0822459873382698 0.9976888497431642	-0.566266
F	0.4136500444505801 0.5872537875412555 0.5120068238546071	-0.582426
F	0.0849627780161887 0.9111864453293445 0.0105120116616823	-0.565659
F	0.5861876905174396 0.4199263389223404 0.4963445647423681	-0.583499
O	0.0011373246968571 0.9947001963938414 0.7650545546188062	-0.822395
O	0.4954489017065353 0.5050218801021026 0.2652895499636428	-0.831381
	  	
