#======================================================================

# CRYSTAL DATA

#----------------------------------------------------------------------

data_VESTA_phase_1


_pd_phase_name                         VOFFIVE_2_Fe_i
_cell_length_a                         14.04861
_cell_length_b                         14.04861
_cell_length_c                         7.88535
_cell_angle_alpha                      90
_cell_angle_beta                       90
_cell_angle_gamma                      90
_symmetry_space_group_name_H-M         P 1
_symmetry_Int_Tables_number            1

loop_
_symmetry_equiv_pos_as_xyz
   x, y, z

loop_
   _atom_site_label
   _atom_site_fract_x
   _atom_site_fract_y
   _atom_site_fract_z
   _atom_site_charge
C	-0.0000000000000000 0.3036889620403233 0.3462668894796506	-0.163002
C	-0.0000000000000000 0.2050170676183886 0.3534818331769131	0.105694
C	0.5000000000000000 0.8036889620403227 0.8462668594796547	-0.163002
C	0.5000000000000000 0.7050170676183881 0.8534817741769113	0.105694
C	-0.0000000000000000 0.6963110379596773 0.3462668894796506	-0.163004
C	-0.0000000000000000 0.7949829323816119 0.3534818331769131	0.105696
C	0.5000000000000000 0.1963110379596769 0.8462668594796547	-0.163004
C	0.5000000000000000 0.2949829323816113 0.8534817741769113	0.105696
C	0.6963110379596773 0.0000000000000000 0.3462668894796506	-0.163002
C	0.7949829323816119 0.0000000000000000 0.3534818331769131	0.105697
C	0.1963110379596769 0.5000000000000000 0.8462668594796547	-0.163002
C	0.2949829323816113 0.5000000000000000 0.8534817741769113	0.105697
C	0.3036889620403233 0.0000000000000000 0.3462668894796506	-0.163004
C	0.2050170676183886 0.0000000000000000 0.3534818331769131	0.105699
C	0.8036889620403227 0.5000000000000000 0.8462668594796547	-0.163004
C	0.7050170676183881 0.5000000000000000 0.8534817741769113	0.105699
C	-0.0000000000000000 0.3051491992649133 0.6522519670740430	-0.162030
C	-0.0000000000000000 0.2065058688018751 0.6472868745074825	0.106179
C	0.5000000000000000 0.8051491992649132 0.1522519370740478	-0.162030
C	0.5000000000000000 0.7065058688018753 0.1472868305074858	0.106179
C	-0.0000000000000000 0.6948508007350868 0.6522519670740430	-0.162032
C	-0.0000000000000000 0.7934941311981247 0.6472868745074825	0.106181
C	0.5000000000000000 0.1948508007350866 0.1522519370740478	-0.162032
C	0.5000000000000000 0.2934941311981250 0.1472868305074858	0.106181
C	0.3051491992649133 0.0000000000000000 0.6522519670740430	-0.162032
C	0.2065058688018751 0.0000000000000000 0.6472868745074825	0.106185
C	0.8051491992649132 0.5000000000000000 0.1522519370740478	-0.162032
C	0.7065058688018753 0.5000000000000000 0.1472868305074858	0.106185
C	0.6948508007350868 0.0000000000000000 0.6522519670740430	-0.162030
C	0.7934941311981247 0.0000000000000000 0.6472868745074825	0.106182
C	0.1948508007350866 0.5000000000000000 0.1522519370740478	-0.162030
C	0.2934941311981250 0.5000000000000000 0.1472868305074858	0.106182
C	-0.0000000000000000 0.4565657944017982 0.4975538591279967	-0.098490
C	-0.0000000000000000 0.3560648403422713 0.4985156759400239	0.158704
C	0.5000000000000000 0.9565657594017989 -0.0024461408720033	-0.098490
C	0.5000000000000000 0.8560648053422719 -0.0014843240599761	0.158704
C	-0.0000000000000000 0.5434342055982018 0.4975538591279967	-0.098246
C	-0.0000000000000000 0.6439351946577281 0.4985156759400239	0.158675
C	0.5000000000000000 0.0434342185982065 -0.0024461408720033	-0.098246
C	0.5000000000000000 0.1439351776577302 -0.0014843240599761	0.158675
C	0.5434342055982018 0.0000000000000000 0.4975538591279967	-0.098491
C	0.6439351946577281 0.0000000000000000 0.4985156759400239	0.158704
C	0.0434342185982065 0.5000000000000000 -0.0024461408720033	-0.098491
C	0.1439351776577302 0.5000000000000000 -0.0014843240599761	0.158704
C	0.4565657944017982 0.0000000000000000 0.4975538591279967	-0.098246
C	0.3560648403422713 0.0000000000000000 0.4985156759400239	0.158675
C	0.9565657594017989 0.5000000000000000 -0.0024461408720033	-0.098246
C	0.8560648053422719 0.5000000000000000 -0.0014843240599761	0.158675
H	-0.0000000000000000 0.3400033153201559 0.2243386089469106	0.119248
H	-0.0000000000000000 0.1625497576315592 0.2380646915368877	0.099695
H	0.5000000000000000 0.8400033493201585 0.7243386239469085	0.119248
H	0.5000000000000000 0.6625497926315588 0.7380646765368896	0.099695
H	-0.0000000000000000 0.6599966506798415 0.2243386089469106	0.119247
H	-0.0000000000000000 0.8374502073684412 0.2380646915368877	0.099695
H	0.5000000000000000 0.1599966676798463 0.7243386239469085	0.119247
H	0.5000000000000000 0.3374502423684408 0.7380646765368896	0.099695
H	0.6599966506798415 0.0000000000000000 0.2243386089469106	0.119248
H	0.8374502073684412 0.0000000000000000 0.2380646915368877	0.099694
H	0.1599966676798463 0.5000000000000000 0.7243386239469085	0.119248
H	0.3374502423684408 0.5000000000000000 0.7380646765368896	0.099694
H	0.3400033153201559 0.0000000000000000 0.2243386089469106	0.119247
H	0.1625497576315592 0.0000000000000000 0.2380646915368877	0.099695
H	0.8400033493201585 0.5000000000000000 0.7243386239469085	0.119247
H	0.6625497926315588 0.5000000000000000 0.7380646765368896	0.099694
H	-0.0000000000000000 0.3423268323235703 0.7733701569451525	0.118069
H	-0.0000000000000000 0.1656284450449800 0.7643548007587480	0.087420
H	0.5000000000000000 0.8423268663235732 0.2733701859451514	0.118069
H	0.5000000000000000 0.6656284800449793 0.2643547717587489	0.087420
H	-0.0000000000000000 0.6576731336764268 0.7733701569451525	0.118068
H	-0.0000000000000000 0.8343715199550207 0.7643548007587480	0.087420
H	0.5000000000000000 0.1576731506764316 0.2733701859451514	0.118068
H	0.5000000000000000 0.3343715549550200 0.2643547717587489	0.087420
H	0.3423268323235703 0.0000000000000000 0.7733701569451525	0.118068
H	0.1656284450449800 0.0000000000000000 0.7643548007587480	0.087419
H	0.8423268663235732 0.5000000000000000 0.2733701859451514	0.118068
H	0.6656284800449793 0.5000000000000000 0.2643547717587489	0.087420
H	0.6576731336764268 0.0000000000000000 0.7733701569451525	0.118069
H	0.8343715199550207 0.0000000000000000 0.7643548007587480	0.087419
H	0.1576731506764316 0.5000000000000000 0.2733701859451514	0.118069
H	0.3343715549550200 0.5000000000000000 0.2643547717587489	0.087419
Fe	-0.0000000000000000 0.0000000000000000 0.4983662814985710	0.863921
Fe	0.5000000000000000 0.5000000000000000 -0.0016337185014287	0.863921
V	-0.0000000000000000 0.0000000000000000 -0.0232636699226095	2.235396
V	0.5000000000000000 0.5000000000000000 0.4767363300773908	2.235396
N	-0.0000000000000000 0.1564084859481422 0.5012756755590188	-0.239741
N	0.5000000000000000 0.6564084859481423 0.0012756755590186	-0.239741
N	-0.0000000000000000 0.8435915140518577 0.5012756755590188	-0.239741
N	0.5000000000000000 0.3435915140518579 0.0012756755590186	-0.239741
N	0.8435915140518577 0.0000000000000000 0.5012756755590188	-0.239743
N	0.3435915140518579 0.5000000000000000 0.0012756755590186	-0.239743
N	0.1564084859481422 0.0000000000000000 0.5012756755590188	-0.239742
N	0.6564084859481423 0.5000000000000000 0.0012756755590186	-0.239742
O	-0.0000000000000000 0.0000000000000000 0.7656336753860815	-0.802336
O	0.5000000000000000 0.5000000000000000 0.2656336463860831	-0.802336
F	-0.0000000000000000 0.0000000000000000 0.2461455586859705	-0.597830
F	0.5000000000000000 0.5000000000000000 0.7461455146859740	-0.597830
F	0.5918004540339981 0.5918004540339981 0.5065186055351650	-0.556641
F	0.5918004540339981 0.4081995109660019 0.5065186055351650	-0.556641
F	0.4081995109660020 0.5918004540339981 0.5065186055351650	-0.556641
F	0.4081995109660019 0.4081995109660019 0.5065186055351650	-0.556641
F	0.0918004620339990 0.0918004620339990 0.0065186055351654	-0.556641
F	0.9081995459660019 0.9081995459660019 0.0065186055351654	-0.556641
F	0.9081995459660019 0.0918004620339990 0.0065186055351654	-0.556641
F	0.0918004620339990 0.9081995459660019 0.0065186055351654	-0.556641
	  	
