#======================================================================

# CRYSTAL DATA

#----------------------------------------------------------------------

data_VESTA_phase_1


_pd_phase_name                         VOFFIVE_5_Zn_i
_cell_length_a                         19.99599
_cell_length_b                         19.99599
_cell_length_c                         15.36971
_cell_angle_alpha                      90
_cell_angle_beta                       90
_cell_angle_gamma                      90
_symmetry_space_group_name_H-M         P 1
_symmetry_Int_Tables_number            1

loop_
_symmetry_equiv_pos_as_xyz
   x, y, z

loop_
   _atom_site_label
   _atom_site_fract_x
   _atom_site_fract_y
   _atom_site_fract_z
   _atom_site_charge
F	0.3217337871251049 0.1916969053129649 0.3486460827303886	-0.584412
F	0.1782662008748941 0.3083031066870289 0.3486460827303886	-0.584410
F	0.3083031066870289 0.3217337871251049 0.3486460827303886	-0.584410
F	0.1916969053129649 0.1782662008748941 0.3486460827303886	-0.584411
F	0.6783629997929288 0.6915848377435521 0.1459222271101275	-0.584940
F	0.8216370002070712 0.8084151622564479 0.1459222271101275	-0.584939
F	0.6915848377435521 0.8216370002070712 0.1459222271101275	-0.584939
F	0.8084151622564479 0.6783629997929288 0.1459222271101275	-0.584940
F	0.6783629997929288 0.8084151622564479 0.6459222421101253	-0.584938
F	0.8216370002070712 0.6915848377435521 0.6459222421101253	-0.584939
F	0.6915848377435521 0.6783629997929288 0.6459222421101253	-0.584939
F	0.8084151622564479 0.8216370002070712 0.6459222421101253	-0.584938
F	0.3217337871251049 0.3083031066870289 0.8486460517303897	-0.584410
F	0.1782662008748941 0.1916969053129649 0.8486460517303897	-0.584411
F	0.3083031066870289 0.1782662008748941 0.8486460517303897	-0.584411
F	0.1916969053129649 0.3217337871251049 0.8486460517303897	-0.584410
F	0.2500000000000000 0.2500000000000000 0.2309017278069468	-0.615504
F	0.7500000000000000 0.7500000000000000 0.0286222228587138	-0.614528
F	0.7500000000000000 0.7500000000000000 0.5286222188587135	-0.614529
F	0.2500000000000000 0.2500000000000000 0.7309017738069437	-0.615503
O	0.2500000000000000 0.2500000000000000 0.4679644282190971	-0.815843
O	0.7500000000000000 0.7500000000000000 0.2654903332326927	-0.819779
O	0.7500000000000000 0.7500000000000000 0.7654903022326937	-0.819778
O	0.2500000000000000 0.2500000000000000 0.9679644282190971	-0.815844
N	0.3580747737431406 0.2477646939188330 0.6012715220698046	-0.226260
N	0.1419252022568644 0.2522353300811691 0.6012715220698046	-0.226264
N	0.2522353300811691 0.3580747737431406 0.6012715220698046	-0.226260
N	0.2477646939188330 0.1419252022568644 0.6012715220698046	-0.226264
N	0.6419317106328487 0.7471906066376313 0.8986764780481470	-0.227761
N	0.8580682413671544 0.7528093933623687 0.8986764780481470	-0.227762
N	0.7471906066376313 0.8580682413671544 0.8986764780481470	-0.227761
N	0.7528093933623687 0.6419317106328487 0.8986764780481470	-0.227762
N	0.6419317106328487 0.7528093933623687 0.3986764780481472	-0.227764
N	0.8580682413671544 0.7471906066376313 0.3986764780481472	-0.227764
N	0.7471906066376313 0.6419317106328487 0.3986764780481472	-0.227764
N	0.7528093933623687 0.8580682413671544 0.3986764780481472	-0.227764
N	0.3580747737431406 0.2522353300811691 0.1012715300698052	-0.226261
N	0.1419252022568644 0.2477646939188330 0.1012715300698052	-0.226266
N	0.2522353300811691 0.1419252022568644 0.1012715300698052	-0.226266
N	0.2477646939188330 0.3580747737431406 0.1012715300698052	-0.226261
C	0.3909205553204834 0.2179071911607144 0.6670924143403746	0.102978
C	0.4603585046758483 0.2161848089362298 0.6709385601993199	-0.179481
C	0.4981742780254728 0.2470806880894205 0.6053296075646285	0.103959
C	0.4629548404257969 0.2779675071835353 0.5372884548660043	-0.182753
C	0.3934852583276866 0.2770295164653300 0.5373416944326475	0.104429
C	0.5718327820744218 0.2477942815280190 0.6084461613396858	0.054585
C	0.6078128037997745 0.1916997762340331 0.6375640377226538	-0.131952
C	0.6772927788917634 0.1925116598875728 0.6400802996904114	-0.122365
C	0.7131812662686295 0.2497871808775824 0.6150758448890538	0.066585
C	0.6771942749851478 0.3061745571524885 0.5870972134101110	-0.117032
C	0.6077423803244609 0.3049602405759330 0.5830355826853588	-0.127721
C	0.1090794566795178 0.2820927848392835 0.6670924143403746	0.103001
C	0.0396415103241494 0.2838152150637651 0.6709385601993199	-0.179441
C	0.0018257299745280 0.2529193119105794 0.6053296075646285	0.103900
C	0.0370451805742015 0.2220324928164647 0.5372884548660043	-0.182738
C	0.1065147656723152 0.2229704835346701 0.5373416944326475	0.104427
C	0.9281671699255813 0.2522057424719759 0.6084461613396858	0.054595
C	0.8921871482002286 0.3083002237659669 0.6375640377226538	-0.131956
C	0.8227072211082366 0.3074883521124283 0.6400802996904114	-0.122365
C	0.7868187337313705 0.2502128431224124 0.6150758448890538	0.066585
C	0.8228057250148522 0.1938254548475126 0.5870972134101110	-0.117033
C	0.8922576196755391 0.1950397354240651 0.5830355826853588	-0.127722
C	0.2820927848392835 0.3909205553204834 0.6670924143403746	0.102978
C	0.2838152150637651 0.4603585046758483 0.6709385601993199	-0.179480
C	0.2529193119105794 0.4981742780254728 0.6053296075646285	0.103960
C	0.2220324928164647 0.4629548404257969 0.5372884548660043	-0.182754
C	0.2229704835346701 0.3934852583276866 0.5373416944326475	0.104430
C	0.2522057424719759 0.5718327820744218 0.6084461613396858	0.054585
C	0.3083002237659669 0.6078128037997745 0.6375640377226538	-0.131952
C	0.3074883521124283 0.6772927788917634 0.6400802996904114	-0.122365
C	0.2502128431224124 0.7131812662686295 0.6150758448890538	0.066585
C	0.1938254548475126 0.6771942749851478 0.5870972134101110	-0.117032
C	0.1950397354240651 0.6077423803244609 0.5830355826853588	-0.127720
C	0.2179071911607144 0.1090794566795178 0.6670924143403746	0.103002
C	0.2161848089362298 0.0396415103241494 0.6709385601993199	-0.179442
C	0.2470806880894205 0.0018257299745280 0.6053296075646285	0.103899
C	0.2779675071835353 0.0370451805742015 0.5372884548660043	-0.182736
C	0.2770295164653300 0.1065147656723152 0.5373416944326475	0.104428
C	0.2477942815280190 0.9281671699255813 0.6084461613396858	0.054595
C	0.1916997762340331 0.8921871482002286 0.6375640377226538	-0.131956
C	0.1925116598875728 0.8227072211082366 0.6400802996904114	-0.122365
C	0.2497871808775824 0.7868187337313705 0.6150758448890538	0.066584
C	0.3061745571524885 0.8228057250148522 0.5870972134101110	-0.117032
C	0.3049602405759330 0.8922576196755391 0.5830355826853588	-0.127723
C	0.6087917501925950 0.7174149177030745 0.8331270239608347	0.103667
C	0.5394166752893169 0.7160775777182297 0.8292604959116159	-0.180595
C	0.5018287403345677 0.7472008451344446 0.8948772694924405	0.104057
C	0.5372749989042153 0.7779033620150199 0.9629019323576081	-0.181364
C	0.6068131859354320 0.7765966213833855 0.9628610034969284	0.104641
C	0.4281709100024689 0.7479108846772961 0.8917673316017870	0.054909
C	0.3922399982715920 0.6917825969280679 0.8625866842292346	-0.132237
C	0.3227505600338909 0.6925588050354630 0.8599649885679568	-0.123432
C	0.2868178892295421 0.7498248153450587 0.8849339412620506	0.067029
C	0.3227648918458526 0.8062169406689538 0.9129407260921658	-0.117500
C	0.3922028687741449 0.8050406984128184 0.9170997678658217	-0.127159
C	0.8912082028074046 0.7825850822969255 0.8331270239608347	0.103666
C	0.9605833247106831 0.7839224222817703 0.8292604959116159	-0.180593
C	0.9981712596654323 0.7527991548655554 0.8948772694924405	0.104056
C	0.9627250010957847 0.7220966379849801 0.9629019323576081	-0.181365
C	0.8931868140645680 0.7234033786166145 0.9628610034969284	0.104641
C	0.0718290899975311 0.7520891153227039 0.8917673316017870	0.054909
C	0.1077599777284130 0.8082174510719290 0.8625866842292346	-0.132237
C	0.1772494399661020 0.8074412429645410 0.8599649885679568	-0.123431
C	0.2131821107704578 0.7501751846549413 0.8849339412620506	0.067029
C	0.1772351321541494 0.6937831073310502 0.9129407260921658	-0.117499
C	0.1077971312258550 0.6949593495871784 0.9170997678658217	-0.127157
C	0.7174149177030745 0.8912082028074046 0.8331270239608347	0.103666
C	0.7160775777182297 0.9605833247106831 0.8292604959116159	-0.180594
C	0.7472008451344446 0.9981712596654323 0.8948772694924405	0.104056
C	0.7779033620150199 0.9627250010957847 0.9629019323576081	-0.181363
C	0.7765966213833855 0.8931868140645680 0.9628610034969284	0.104641
C	0.7479108846772961 0.0718290899975311 0.8917673316017870	0.054909
C	0.6917825969280679 0.1077599777284130 0.8625866842292346	-0.132237
C	0.6925588050354630 0.1772494399661020 0.8599649885679568	-0.123432
C	0.7498248153450587 0.2131821107704578 0.8849339412620506	0.067029
C	0.8062169406689538 0.1772351321541494 0.9129407260921658	-0.117500
C	0.8050406984128184 0.1077971312258550 0.9170997678658217	-0.127157
C	0.7825850822969255 0.6087917501925950 0.8331270239608347	0.103668
C	0.7839224222817703 0.5394166752893169 0.8292604959116159	-0.180594
C	0.7527991548655554 0.5018287403345677 0.8948772694924405	0.104056
C	0.7220966379849801 0.5372749989042153 0.9629019323576081	-0.181365
C	0.7234033786166145 0.6068131859354320 0.9628610034969284	0.104642
C	0.7520891153227039 0.4281709100024689 0.8917673316017870	0.054909
C	0.8082174510719290 0.3922399982715920 0.8625866842292346	-0.132238
C	0.8074412429645410 0.3227505600338909 0.8599649885679568	-0.123431
C	0.7501751846549413 0.2868178892295421 0.8849339412620506	0.067029
C	0.6937831073310502 0.3227648918458526 0.9129407260921658	-0.117499
C	0.6949593495871784 0.3922028687741449 0.9170997678658217	-0.127158
C	0.6087917501925950 0.7825850822969255 0.3331270559608372	0.103666
C	0.5394166752893169 0.7839224222817703 0.3292604649116171	-0.180595
C	0.5018287403345677 0.7527991548655554 0.3948773314924386	0.104060
C	0.5372749989042153 0.7220966379849801 0.4629019013576089	-0.181389
C	0.6068131859354320 0.7234033786166145 0.4628610034969285	0.104647
C	0.4281709100024689 0.7520891153227039 0.3917673626017860	0.054909
C	0.3922399982715920 0.8082174510719290 0.3625867472292366	-0.132238
C	0.3227505600338909 0.8074412429645410 0.3599649885679569	-0.123431
C	0.2868178892295421 0.7501751846549413 0.3849339412620504	0.067029
C	0.3227648918458526 0.6937831073310502 0.4129407260921659	-0.117500
C	0.3922028687741449 0.6949593495871784 0.4170997988658278	-0.127159
C	0.8912082028074046 0.7174149177030745 0.3331270559608372	0.103666
C	0.9605833247106831 0.7160775777182297 0.3292604649116171	-0.180595
C	0.9981712596654323 0.7472008451344446 0.3948773314924386	0.104059
C	0.9627250010957847 0.7779033620150199 0.4629019013576089	-0.181387
C	0.8931868140645680 0.7765966213833855 0.4628610034969285	0.104646
C	0.0718290899975311 0.7479108846772961 0.3917673626017860	0.054909
C	0.1077599777284130 0.6917825969280679 0.3625867472292366	-0.132237
C	0.1772494399661020 0.6925588050354630 0.3599649885679569	-0.123431
C	0.2131821107704578 0.7498248153450587 0.3849339412620504	0.067028
C	0.1772351321541494 0.8062169406689538 0.4129407260921659	-0.117498
C	0.1077971312258550 0.8050406984128184 0.4170997988658278	-0.127158
C	0.7174149177030745 0.6087917501925950 0.3331270559608372	0.103667
C	0.7160775777182297 0.5394166752893169 0.3292604649116171	-0.180595
C	0.7472008451344446 0.5018287403345677 0.3948773314924386	0.104059
C	0.7779033620150199 0.5372749989042153 0.4629019013576089	-0.181387
C	0.7765966213833855 0.6068131859354320 0.4628610034969285	0.104647
C	0.7479108846772961 0.4281709100024689 0.3917673626017860	0.054908
C	0.6917825969280679 0.3922399982715920 0.3625867472292366	-0.132238
C	0.6925588050354630 0.3227505600338909 0.3599649885679569	-0.123432
C	0.7498248153450587 0.2868178892295421 0.3849339412620504	0.067028
C	0.8062169406689538 0.3227648918458526 0.4129407260921659	-0.117499
C	0.8050406984128184 0.3922028687741449 0.4170997988658278	-0.127159
C	0.7825850822969255 0.8912082028074046 0.3331270559608372	0.103667
C	0.7839224222817703 0.9605833247106831 0.3292604649116171	-0.180594
C	0.7527991548655554 0.9981712596654323 0.3948773314924386	0.104059
C	0.7220966379849801 0.9627250010957847 0.4629019013576089	-0.181387
C	0.7234033786166145 0.8931868140645680 0.4628610034969285	0.104646
C	0.7520891153227039 0.0718290899975311 0.3917673626017860	0.054909
C	0.8082174510719290 0.1077599777284130 0.3625867472292366	-0.132237
C	0.8074412429645410 0.1772494399661020 0.3599649885679569	-0.123430
C	0.7501751846549413 0.2131821107704578 0.3849339412620504	0.067029
C	0.6937831073310502 0.1772351321541494 0.4129407260921659	-0.117499
C	0.6949593495871784 0.1077971312258550 0.4170997988658278	-0.127158
C	0.3909205553204834 0.2820927848392835 0.1670924143403746	0.102977
C	0.4603585046758483 0.2838152150637651 0.1709385911993190	-0.179480
C	0.4981742780254728 0.2529193119105794 0.1053295535646313	0.103958
C	0.4629548404257969 0.2220324928164647 0.0372884788660065	-0.182755
C	0.3934852583276866 0.2229704835346701 0.0373417174326459	0.104429
C	0.5718327820744218 0.2522057424719759 0.1084461303396869	0.054585
C	0.6078128037997745 0.3083002237659669 0.1375639907226534	-0.131953
C	0.6772927788917634 0.3074883521124283 0.1400803156904126	-0.122364
C	0.7131812662686295 0.2502128431224124 0.1150758528890543	0.066584
C	0.6771942749851478 0.1938254548475126 0.0870972364101093	-0.117032
C	0.6077423803244609 0.1950397354240651 0.0830355586853566	-0.127721
C	0.1090794566795178 0.2179071911607144 0.1670924143403746	0.103001
C	0.0396415103241494 0.2161848089362298 0.1709385911993190	-0.179442
C	0.0018257299745280 0.2470806880894205 0.1053295535646313	0.103899
C	0.0370451805742015 0.2779675071835353 0.0372884788660065	-0.182736
C	0.1065147656723152 0.2770295164653300 0.0373417174326459	0.104427
C	0.9281671699255813 0.2477942815280190 0.1084461303396869	0.054594
C	0.8921871482002286 0.1916997762340331 0.1375639907226534	-0.131956
C	0.8227072211082366 0.1925116598875728 0.1400803156904126	-0.122364
C	0.7868187337313705 0.2497871808775824 0.1150758528890543	0.066585
C	0.8228057250148522 0.3061745571524885 0.0870972364101093	-0.117032
C	0.8922576196755391 0.3049602405759330 0.0830355586853566	-0.127724
C	0.2820927848392835 0.1090794566795178 0.1670924143403746	0.103002
C	0.2838152150637651 0.0396415103241494 0.1709385911993190	-0.179441
C	0.2529193119105794 0.0018257299745280 0.1053295535646313	0.103898
C	0.2220324928164647 0.0370451805742015 0.0372884788660065	-0.182737
C	0.2229704835346701 0.1065147656723152 0.0373417174326459	0.104428
C	0.2522057424719759 0.9281671699255813 0.1084461303396869	0.054595
C	0.3083002237659669 0.8921871482002286 0.1375639907226534	-0.131956
C	0.3074883521124283 0.8227072211082366 0.1400803156904126	-0.122363
C	0.2502128431224124 0.7868187337313705 0.1150758528890543	0.066584
C	0.1938254548475126 0.8228057250148522 0.0870972364101093	-0.117032
C	0.1950397354240651 0.8922576196755391 0.0830355586853566	-0.127723
C	0.2179071911607144 0.3909205553204834 0.1670924143403746	0.102977
C	0.2161848089362298 0.4603585046758483 0.1709385911993190	-0.179481
C	0.2470806880894205 0.4981742780254728 0.1053295535646313	0.103959
C	0.2779675071835353 0.4629548404257969 0.0372884788660065	-0.182753
C	0.2770295164653300 0.3934852583276866 0.0373417174326459	0.104430
C	0.2477942815280190 0.5718327820744218 0.1084461303396869	0.054585
C	0.1916997762340331 0.6078128037997745 0.1375639907226534	-0.131953
C	0.1925116598875728 0.6772927788917634 0.1400803156904126	-0.122364
C	0.2497871808775824 0.7131812662686295 0.1150758528890543	0.066585
C	0.3061745571524885 0.6771942749851478 0.0870972364101093	-0.117032
C	0.3049602405759330 0.6077423803244609 0.0830355586853566	-0.127722
H	0.3601332846400162 0.1963152238347416 0.7186385610563798	0.105895
H	0.4847962884479987 0.1927283279859510 0.7264916927687225	0.112634
H	0.4895075784664576 0.3015345173533041 0.4834569243190312	0.112788
H	0.3647151111065102 0.2995860823022055 0.4845167068240855	0.098793
H	0.5807464291401983 0.1466946738364163 0.6568899360594618	0.099557
H	0.7044222096716629 0.1485974426112091 0.6629560354248085	0.101014
H	0.7041757512664338 0.3505916158897246 0.5655993625934020	0.100992
H	0.5807438983610473 0.3491843066508084 0.5608717755329703	0.103500
H	0.1398667273599848 0.3036847761652582 0.7186385610563798	0.105892
H	0.0152037415520038 0.3072716480140470 0.7264916927687225	0.112620
H	0.0104924245335391 0.1984654826466959 0.4834569243190312	0.112787
H	0.1352848768934888 0.2004139176977946 0.4845167068240855	0.098794
H	0.9192535228598049 0.3533053381635847 0.6568899360594618	0.099556
H	0.7955777903283371 0.3514025453887900 0.6629560354248085	0.101014
H	0.7958242487335662 0.1494083841102755 0.5655993625934020	0.100990
H	0.9192561016389527 0.1508156933491916 0.5608717755329703	0.103499
H	0.3036847761652582 0.3601332846400162 0.7186385610563798	0.105895
H	0.3072716480140470 0.4847962884479987 0.7264916927687225	0.112634
H	0.1984654826466959 0.4895075784664576 0.4834569243190312	0.112788
H	0.2004139176977946 0.3647151111065102 0.4845167068240855	0.098794
H	0.3533053381635847 0.5807464291401983 0.6568899360594618	0.099557
H	0.3514025453887900 0.7044222096716629 0.6629560354248085	0.101014
H	0.1494083841102755 0.7041757512664338 0.5655993625934020	0.100992
H	0.1508156933491916 0.5807438983610473 0.5608717755329703	0.103499
H	0.1963152238347416 0.1398667273599848 0.7186385610563798	0.105892
H	0.1927283279859510 0.0152037415520038 0.7264916927687225	0.112621
H	0.3015345173533041 0.0104924245335391 0.4834569243190312	0.112786
H	0.2995860823022055 0.1352848768934888 0.4845167068240855	0.098794
H	0.1466946738364163 0.9192535228598049 0.6568899360594618	0.099556
H	0.1485974426112091 0.7955777903283371 0.6629560354248085	0.101013
H	0.3505916158897246 0.7958242487335662 0.5655993625934020	0.100991
H	0.3491843066508084 0.9192561016389527 0.5608717755329703	0.103501
H	0.6392723979305623 0.6952309591911701 0.7816837988612854	0.099405
H	0.5148370456859618 0.6926584997813225 0.7737799731165613	0.112786
H	0.5108549164800212 0.8014929951888092 0.0168264959577171	0.112668
H	0.6359161255079713 0.7986186492157641 0.0157570683588051	0.105413
H	0.4192990202858831 0.6467896670616977 0.8432142413337647	0.099492
H	0.2956547690088107 0.6486544465444384 0.8370240360402569	0.101446
H	0.2957504960834669 0.8506444361546499 0.9343809176537340	0.101148
H	0.4192072124727033 0.8492728459239890 0.9392328776132702	0.103267
H	0.8607276490694380 0.8047690888088339 0.7816837988612854	0.099405
H	0.9851629543140382 0.8073415002186775 0.7737799731165613	0.112786
H	0.9891450365199784 0.6985070048111908 0.0168264959577171	0.112667
H	0.8640838264920319 0.7013813507842359 0.0157570683588051	0.105412
H	0.0807010037141116 0.8532103329383023 0.8432142413337647	0.099492
H	0.2043452309911893 0.8513455534555616 0.8370240360402569	0.101446
H	0.2042495039165330 0.6493555158453461 0.9343809176537340	0.101147
H	0.0807927995272975 0.6507271060760070 0.9392328776132702	0.103267
H	0.6952309591911701 0.8607276490694380 0.7816837988612854	0.099405
H	0.6926584997813225 0.9851629543140382 0.7737799731165613	0.112786
H	0.8014929951888092 0.9891450365199784 0.0168264959577171	0.112667
H	0.7986186492157641 0.8640838264920319 0.0157570683588051	0.105412
H	0.6467896670616977 0.0807010037141116 0.8432142413337647	0.099492
H	0.6486544465444384 0.2043452309911893 0.8370240360402569	0.101446
H	0.8506444361546499 0.2042495039165330 0.9343809176537340	0.101148
H	0.8492728459239890 0.0807927995272975 0.9392328776132702	0.103267
H	0.8047690888088339 0.6392723979305623 0.7816837988612854	0.099405
H	0.8073415002186775 0.5148370456859618 0.7737799731165613	0.112786
H	0.6985070048111908 0.5108549164800212 0.0168264959577171	0.112668
H	0.7013813507842359 0.6359161255079713 0.0157570683588051	0.105413
H	0.8532103329383023 0.4192990202858831 0.8432142413337647	0.099493
H	0.8513455534555616 0.2956547690088107 0.8370240360402569	0.101446
H	0.6493555158453461 0.2957504960834669 0.9343809176537340	0.101147
H	0.6507271060760070 0.4192072124727033 0.9392328776132702	0.103267
H	0.6392723979305623 0.8047690888088339 0.2816837678612866	0.099406
H	0.5148370456859618 0.8073415002186775 0.2737799731165610	0.112787
H	0.5108549164800212 0.6985070048111908 0.5168265149577222	0.112683
H	0.6359161255079713 0.7013813507842359 0.5157570393588063	0.105413
H	0.4192990202858831 0.8532103329383023 0.3432142413337645	0.099493
H	0.2956547690088107 0.8513455534555616 0.3370240670402631	0.101446
H	0.2957504960834669 0.6493555158453461 0.4343809176537341	0.101146
H	0.4192072124727033 0.6507271060760070 0.4392329396132684	0.103268
H	0.8607276490694380 0.6952309591911701 0.2816837678612866	0.099405
H	0.9851629543140382 0.6926584997813225 0.2737799731165610	0.112788
H	0.9891450365199784 0.8014929951888092 0.5168265149577222	0.112683
H	0.8640838264920319 0.7986186492157641 0.5157570393588063	0.105413
H	0.0807010037141116 0.6467896670616977 0.3432142413337645	0.099493
H	0.2043452309911893 0.6486544465444384 0.3370240670402631	0.101446
H	0.2042495039165330 0.8506444361546499 0.4343809176537341	0.101148
H	0.0807927995272975 0.8492728459239890 0.4392329396132684	0.103268
H	0.6952309591911701 0.6392723979305623 0.2816837678612866	0.099406
H	0.6926584997813225 0.5148370456859618 0.2737799731165610	0.112788
H	0.8014929951888092 0.5108549164800212 0.5168265149577222	0.112683
H	0.7986186492157641 0.6359161255079713 0.5157570393588063	0.105412
H	0.6467896670616977 0.4192990202858831 0.3432142413337645	0.099492
H	0.6486544465444384 0.2956547690088107 0.3370240670402631	0.101446
H	0.8506444361546499 0.2957504960834669 0.4343809176537341	0.101147
H	0.8492728459239890 0.4192072124727033 0.4392329396132684	0.103269
H	0.8047690888088339 0.8607276490694380 0.2816837678612866	0.099405
H	0.8073415002186775 0.9851629543140382 0.2737799731165610	0.112787
H	0.6985070048111908 0.9891450365199784 0.5168265149577222	0.112683
H	0.7013813507842359 0.8640838264920319 0.5157570393588063	0.105413
H	0.8532103329383023 0.0807010037141116 0.3432142413337645	0.099493
H	0.8513455534555616 0.2043452309911893 0.3370240670402631	0.101446
H	0.6493555158453461 0.2042495039165330 0.4343809176537341	0.101147
H	0.6507271060760070 0.0807927995272975 0.4392329396132684	0.103268
H	0.3601332846400162 0.3036847761652582 0.2186385920563791	0.105896
H	0.4847962884479987 0.3072716480140470 0.2264916777687248	0.112634
H	0.4895075784664576 0.1984654826466959 0.9834568933190252	0.112788
H	0.3647151111065102 0.2004139176977946 0.9845167068240858	0.098794
H	0.5807464291401983 0.3533053381635847 0.1568899360594618	0.099557
H	0.7044222096716629 0.3514025453887900 0.1629560194248070	0.101014
H	0.7041757512664338 0.1494083841102755 0.0655993705934026	0.100991
H	0.5807438983610473 0.1508156933491916 0.0608717285329703	0.103501
H	0.1398667273599848 0.1963152238347416 0.2186385920563791	0.105892
H	0.0152037415520038 0.1927283279859510 0.2264916777687248	0.112620
H	0.0104924245335391 0.3015345173533041 0.9834568933190252	0.112786
H	0.1352848768934888 0.2995860823022055 0.9845167068240858	0.098794
H	0.9192535228598049 0.1466946738364163 0.1568899360594618	0.099556
H	0.7955777903283371 0.1485974426112091 0.1629560194248070	0.101013
H	0.7958242487335662 0.3505916158897246 0.0655993705934026	0.100991
H	0.9192561016389527 0.3491843066508084 0.0608717285329703	0.103501
H	0.3036847761652582 0.1398667273599848 0.2186385920563791	0.105892
H	0.3072716480140470 0.0152037415520038 0.2264916777687248	0.112620
H	0.1984654826466959 0.0104924245335391 0.9834568933190252	0.112787
H	0.2004139176977946 0.1352848768934888 0.9845167068240858	0.098794
H	0.3533053381635847 0.9192535228598049 0.1568899360594618	0.099557
H	0.3514025453887900 0.7955777903283371 0.1629560194248070	0.101014
H	0.1494083841102755 0.7958242487335662 0.0655993705934026	0.100991
H	0.1508156933491916 0.9192561016389527 0.0608717285329703	0.103501
H	0.1963152238347416 0.3601332846400162 0.2186385920563791	0.105896
H	0.1927283279859510 0.4847962884479987 0.2264916777687248	0.112634
H	0.3015345173533041 0.4895075784664576 0.9834568933190252	0.112788
H	0.2995860823022055 0.3647151111065102 0.9845167068240858	0.098793
H	0.1466946738364163 0.5807464291401983 0.1568899360594618	0.099556
H	0.1485974426112091 0.7044222096716629 0.1629560194248070	0.101013
H	0.3505916158897246 0.7041757512664338 0.0655993705934026	0.100991
H	0.3491843066508084 0.5807438983610473 0.0608717285329703	0.103501
Zn	0.2500000000000000 0.2500000000000000 0.6001421499162736	0.776635
Zn	0.7500000000000000 0.7500000000000000 0.8983548470042482	0.778292
Zn	0.7500000000000000 0.7500000000000000 0.3983548470042482	0.778295
Zn	0.2500000000000000 0.2500000000000000 0.1001421579162744	0.776639
V	0.2500000000000000 0.2500000000000000 0.3606659861007297	2.271953
V	0.7500000000000000 0.7500000000000000 0.1580673690556439	2.276077
V	0.7500000000000000 0.7500000000000000 0.6580673690556439	2.276077
V	0.2500000000000000 0.2500000000000000 0.8606660171007285	2.271953
	  	
