#======================================================================

# CRYSTAL DATA

#----------------------------------------------------------------------

data_VESTA_phase_1


_pd_phase_name                         VOFFIVE_15_Zn_i
_cell_length_a                         29.90232
_cell_length_b                         29.06965
_cell_length_c                         7.93166
_cell_angle_alpha                      90
_cell_angle_beta                       90
_cell_angle_gamma                      90
_symmetry_space_group_name_H-M         P 1
_symmetry_Int_Tables_number            1

loop_
_symmetry_equiv_pos_as_xyz
   x, y, z

loop_
   _atom_site_label
   _atom_site_fract_x
   _atom_site_fract_y
   _atom_site_fract_z
   _atom_site_charge
C	0.9329980156348893 0.1020402750639477 0.8966087579787945	0.106486
C	0.9009392036332496 0.0675882066554427 0.9015272042393736	-0.167685
C	0.7699740028719013 0.9362202362434707 0.9034860067212734	-0.115103
C	0.7358700119263799 0.9039849348305947 0.9032450364797729	-0.115778
C	0.5686902612769987 0.7420004089324260 0.8964928401815876	0.104962
C	0.6022088690134618 0.7749513021798831 0.9011255879098461	-0.172666
C	0.4329979516348838 0.6020402580639496 0.8966087579787945	0.106494
C	0.4009391716332472 0.5675881866554411 0.9015272042393736	-0.167686
C	0.2699740028719010 0.4362202042434685 0.9034860067212734	-0.115103
C	0.2358700119263793 0.4039849348305946 0.9032450364797729	-0.115778
C	0.0686903012769948 0.2420004249324274 0.8964928401815876	0.104962
C	0.1022088610134679 0.2749512851798849 0.9011255879098461	-0.172666
C	0.0670020283651143 0.8979597419360504 0.3966087579787945	0.106495
C	0.0990608283667529 0.9324118133445589 0.4015272042393738	-0.167686
C	0.2300260291280946 0.0637798047565290 0.4034860067212735	-0.115102
C	0.2641300040736224 0.0960150571694048 0.4032450364797732	-0.115778
C	0.4313097067230059 0.2579995910675742 0.3964928091815885	0.104961
C	0.3977911309865387 0.2250486978201171 0.4011255879098463	-0.172666
C	0.5670019843651107 0.3979597089360511 0.3966087579787945	0.106487
C	0.5990607963667504 0.4324117813445565 0.4015272042393738	-0.167686
C	0.7300259971280987 0.5637797637565293 0.4034860067212735	-0.115103
C	0.7641299880736201 0.5960150651694053 0.4032450364797732	-0.115778
C	0.9313097387230013 0.7579995910675740 0.3964928091815885	0.104961
C	0.8977911309865382 0.7250486978201169 0.4011255879098463	-0.172666
C	0.0665555308032517 0.1025253176169400 0.6040597427057588	0.105324
C	0.0986378723720934 0.0680422307951185 0.5970111538026230	-0.166862
C	0.2300223054153585 0.9362275982512048 0.5958965099532276	-0.113469
C	0.2641160289640568 0.9040041667015118 0.5961099086692704	-0.115989
C	0.4317828235387319 0.7415300927936598 0.6041511949338295	0.103180
C	0.3982517048801761 0.7745197621788259 0.5973182756894606	-0.169808
C	0.5665554868032483 0.6025253006169413 0.6040597427057588	0.105332
C	0.5986378403720907 0.5680422107951170 0.5970111538026230	-0.166892
C	0.7300222734153632 0.4362275662512018 0.5958965099532276	-0.113473
C	0.7641160129640552 0.4040041667015113 0.5961099086692704	-0.115991
C	0.9317828555387276 0.2415301087936609 0.6041511949338295	0.103180
C	0.8982517048801761 0.2745197451788280 0.5973182756894606	-0.169807
C	0.9334445131967517 0.8974746993830587 0.1040597667057538	0.105332
C	0.9013621596279093 0.9319577892048830 0.0970111298026279	-0.166893
C	0.7699777265846368 0.0637724427487952 0.0958965489532273	-0.113472
C	0.7358839870359448 0.0959958252984878 0.0961099316692686	-0.115991
C	0.5682171444612724 0.2584699072063404 0.1041511869338287	0.103179
C	0.6017482951198239 0.2254802378211742 0.0973182916894628	-0.169807
C	0.4334444491967466 0.3974746663830585 0.1040597667057538	0.105325
C	0.4013621276279066 0.4319577572048806 0.0970111298026279	-0.166862
C	0.2699777265846370 0.5637724017487952 0.0958965489532273	-0.113469
C	0.2358839870359447 0.5959958332984882 0.0961099316692686	-0.115989
C	0.0682171844612687 0.7584699072063402 0.1041511869338287	0.103179
C	0.1017482871198304 0.7254802378211741 0.0973182916894628	-0.169808
C	0.0665555308032517 0.8974746993830587 0.1040597667057538	0.105325
C	0.0986378723720934 0.9319577892048830 0.0970111298026279	-0.166863
C	0.2300223054153585 0.0637724427487952 0.0958965489532273	-0.113469
C	0.2641160289640568 0.0959958252984878 0.0961099316692686	-0.115990
C	0.4317828235387319 0.2584699072063404 0.1041511869338287	0.103180
C	0.3982517048801761 0.2254802378211742 0.0973182916894628	-0.169807
C	0.5665554868032483 0.3974746663830585 0.1040597667057538	0.105333
C	0.5986378403720907 0.4319577572048806 0.0970111298026279	-0.166893
C	0.7300222734153632 0.5637724017487952 0.0958965489532273	-0.113473
C	0.7641160129640552 0.5959958332984882 0.0961099316692686	-0.115991
C	0.9317828555387276 0.7584699072063402 0.1041511869338287	0.103180
C	0.8982517048801761 0.7254802378211741 0.0973182916894628	-0.169807
C	0.9334445131967517 0.1025253176169400 0.6040597427057588	0.105332
C	0.9013621596279093 0.0680422307951185 0.5970111538026230	-0.166893
C	0.7699777265846368 0.9362275982512048 0.5958965099532276	-0.113473
C	0.7358839870359448 0.9040041667015118 0.5961099086692704	-0.115991
C	0.5682171444612724 0.7415300927936598 0.6041511949338295	0.103180
C	0.6017482951198239 0.7745197621788259 0.5973182756894606	-0.169807
C	0.4334444491967466 0.6025253006169413 0.6040597427057588	0.105324
C	0.4013621276279066 0.5680422107951170 0.5970111538026230	-0.166862
C	0.2699777265846370 0.4362275662512018 0.5958965099532276	-0.113469
C	0.2358839870359447 0.4040041667015113 0.5961099086692704	-0.115990
C	0.0682171844612687 0.2415301087936609 0.6041511949338295	0.103180
C	0.1017482871198304 0.2745197451788280 0.5973182756894606	-0.169807
C	0.9329980156348893 0.8979597419360504 0.3966087579787945	0.106487
C	0.9009392036332496 0.9324118133445589 0.4015272042393738	-0.167685
C	0.7699740028719013 0.0637798047565290 0.4034860067212735	-0.115103
C	0.7358700119263799 0.0960150571694048 0.4032450364797732	-0.115778
C	0.5686902612769987 0.2579995910675742 0.3964928091815885	0.104962
C	0.6022088690134618 0.2250486978201171 0.4011255879098463	-0.172665
C	0.4329979516348838 0.3979597089360511 0.3966087579787945	0.106495
C	0.4009391716332472 0.4324117813445565 0.4015272042393738	-0.167686
C	0.2699740028719010 0.5637797637565293 0.4034860067212735	-0.115102
C	0.2358700119263793 0.5960150651694053 0.4032450364797732	-0.115778
C	0.0686903012769948 0.7579995910675740 0.3964928091815885	0.104961
C	0.1022088610134679 0.7250486978201169 0.4011255879098463	-0.172665
C	0.0670020283651143 0.1020402750639477 0.8966087579787945	0.106495
C	0.0990608283667529 0.0675882066554427 0.9015272042393736	-0.167686
C	0.2300260291280946 0.9362202362434707 0.9034860067212734	-0.115102
C	0.2641300040736224 0.9039849348305947 0.9032450364797729	-0.115778
C	0.4313097067230059 0.7420004089324260 0.8964928401815876	0.104962
C	0.3977911309865387 0.7749513021798831 0.9011255879098461	-0.172665
C	0.5670019843651107 0.6020402580639496 0.8966087579787945	0.106487
C	0.5990607963667504 0.5675881866554411 0.9015272042393736	-0.167685
C	0.7300259971280987 0.4362202042434685 0.9034860067212734	-0.115103
C	0.7641299880736201 0.4039849348305946 0.9032450364797729	-0.115778
C	0.9313097387230013 0.2420004249324274 0.8964928401815876	0.104962
C	0.8977911309865382 0.2749512851798849 0.9011255879098461	-0.172665
C	0.6539383136010619 0.8254986500507956 0.7479877379516795	-0.105029
C	0.8843082751149233 0.0499265295879090 0.7485914360525515	0.161117
C	0.8218080726783381 0.9861045193240153 0.7493509062922852	-0.099816
C	0.6196465799758254 0.7920358400747071 0.7485039408219053	0.168837
C	0.7874498849808753 0.9528283632205246 0.7496938351550259	0.127315
C	0.7182572907455654 0.8873339236840390 0.7496508832686278	0.137877
C	0.6836718484809450 0.8542755428624137 0.7492218524792975	-0.100389
C	0.8510751516290963 0.0153729402653101 0.7481609551333057	-0.105448
C	0.1539382656010652 0.3254986830507945 0.7479877379516795	-0.105028
C	0.3843082431149210 0.5499265045879103 0.7485914360525515	0.161115
C	0.3218081046783403 0.4861045523240219 0.7493509062922852	-0.099817
C	0.1196465559758240 0.2920358400747067 0.7485039408219053	0.168837
C	0.2874499169808712 0.4528283632205245 0.7496938351550259	0.127314
C	0.2182572587455628 0.3873339566840379 0.7496508832686278	0.137876
C	0.1836718644809463 0.3542755428624131 0.7492218524792975	-0.100390
C	0.3510751836290917 0.5153729762653129 0.7481609551333057	-0.105450
C	0.3460617503989364 0.1745013329491997 0.2479877219516778	-0.105028
C	0.1156917408850777 0.9500734954120897 0.2485914200525502	0.161115
C	0.1781919273216622 0.0138954616759794 0.2493508902922839	-0.099816
C	0.3803534520241765 0.2079641599252933 0.2485039248219040	0.168836
C	0.2125500990191303 0.0471716197794704 0.2496938191550241	0.127313
C	0.2817427412544375 0.1126660593159632 0.2496508672686265	0.137877
C	0.3163281515190553 0.1457244571375868 0.2492218364792961	-0.100390
C	0.1489248323709023 0.9846270237346871 0.2481609391333049	-0.105451
C	0.8460616863989381 0.6745013499492044 0.2479877219516778	-0.105028
C	0.6156917248850767 0.4500734954120894 0.2485914200525502	0.161117
C	0.6781919273216619 0.5138954806759847 0.2493508902922839	-0.099815
C	0.8803534200241746 0.7079641599252929 0.2485039248219040	0.168836
C	0.7125501150191247 0.5471716367794754 0.2496938191550241	0.127314
C	0.7817427092544346 0.6126660763159610 0.2496508672686265	0.137878
C	0.8163281515190550 0.6457244571375863 0.2492218364792961	-0.100390
C	0.6489248483709037 0.4846270567346860 0.2481609391333049	-0.105449
C	0.3460617503989364 0.8254986500507956 0.7479877379516795	-0.105029
C	0.1156917408850777 0.0499265295879090 0.7485914360525515	0.161115
C	0.1781919273216622 0.9861045193240153 0.7493509062922852	-0.099818
C	0.3803534520241765 0.7920358400747071 0.7485039408219053	0.168837
C	0.2125500990191303 0.9528283632205246 0.7496938351550259	0.127313
C	0.2817427412544375 0.8873339236840390 0.7496508832686278	0.137876
C	0.3163281515190553 0.8542755428624137 0.7492218524792975	-0.100389
C	0.1489248323709023 0.0153729402653101 0.7481609551333057	-0.105450
C	0.8460616863989381 0.3254986830507945 0.7479877379516795	-0.105028
C	0.6156917248850767 0.5499265045879103 0.7485914360525515	0.161117
C	0.6781919273216619 0.4861045523240219 0.7493509062922852	-0.099816
C	0.8803534200241746 0.2920358400747067 0.7485039408219053	0.168837
C	0.7125501150191247 0.4528283632205245 0.7496938351550259	0.127315
C	0.7817427092544346 0.3873339566840379 0.7496508832686278	0.137877
C	0.8163281515190550 0.3542755428624131 0.7492218524792975	-0.100390
C	0.6489248483709037 0.5153729762653129 0.7481609551333057	-0.105448
C	0.6539383136010619 0.1745013329491997 0.2479877219516778	-0.105028
C	0.8843082751149233 0.9500734954120897 0.2485914200525502	0.161117
C	0.8218080726783381 0.0138954616759794 0.2493508902922839	-0.099815
C	0.6196465799758254 0.2079641599252933 0.2485039248219040	0.168836
C	0.7874498849808753 0.0471716197794704 0.2496938191550241	0.127314
C	0.7182572907455654 0.1126660593159632 0.2496508672686265	0.137878
C	0.6836718484809450 0.1457244571375868 0.2492218364792961	-0.100390
C	0.8510751516290963 0.9846270237346871 0.2481609391333049	-0.105450
C	0.1539382656010652 0.6745013499492044 0.2479877219516778	-0.105028
C	0.3843082431149210 0.4500734954120894 0.2485914200525502	0.161115
C	0.3218081046783403 0.5138954806759847 0.2493508902922839	-0.099816
C	0.1196465559758240 0.7079641599252929 0.2485039248219040	0.168836
C	0.2874499169808712 0.5471716367794754 0.2496938191550241	0.127313
C	0.2182572587455628 0.6126660763159610 0.2496508672686265	0.137877
C	0.1836718644809463 0.6457244571375863 0.2492218364792961	-0.100390
C	0.3510751836290917 0.4846270567346860 0.2481609391333049	-0.105451
H	0.9464274290494322 0.1164377054112734 0.0126223159269687	0.091730
H	0.8888462318323075 0.0545462893257998 0.0218390078468297	0.120424
H	0.7837044162201336 0.9490955552258179 0.0216584261163418	0.106031
H	0.7222761820109955 0.8910841064898618 0.0214490941801017	0.115092
H	0.5547019854488201 0.7282349589829347 0.0126224066969015	0.091253
H	0.6147727699638612 0.7873292195217747 0.0215743841983387	0.125953
H	0.4464274940494272 0.6164376804112753 0.0126223159269687	0.091729
H	0.3888462318323074 0.5545462563258006 0.0218390078468297	0.120424
H	0.2837043842201381 0.4490955882258170 0.0216584261163418	0.106031
H	0.2222761820109954 0.3910840734898623 0.0214490941801017	0.115092
H	0.0547019374488235 0.2282349749829361 0.0126224066969015	0.091253
H	0.1147728179638649 0.2873291535217768 0.0215743841983387	0.125953
H	0.0535725229505709 0.8835623195887247 0.5126223009269714	0.091729
H	0.1111537681676925 0.9454537436741994 0.5218390078468301	0.120425
H	0.2162956157798618 0.0509044157741832 0.5216584261163415	0.106030
H	0.2777238179890044 0.1089159345101382 0.5214490631800954	0.115093
H	0.4452980795511744 0.2717650250170637 0.5126224146969022	0.091254
H	0.3852271660361409 0.2126708294782256 0.5215744111983445	0.125952
H	0.5535725709505678 0.3835623195887251 0.5126223009269714	0.091729
H	0.6111537681676925 0.4454537106741999 0.5218390078468301	0.120425
H	0.7162955837798664 0.5509044117741829 0.5216584261163415	0.106030
H	0.7777238179890045 0.6089158935101382 0.5214490631800954	0.115093
H	0.9452980145511799 0.7717650410170653 0.5126224146969022	0.091254
H	0.8852272300361388 0.7126707804782253 0.5215744111983445	0.125952
H	0.0526056788745562 0.1174438419635224 0.4896586336084154	0.103709
H	0.1104527527811353 0.0553232428422306 0.4758247045762219	0.120334
H	0.2162845170314467 0.9491200063445543 0.4777750476149580	0.105329
H	0.2777169226589468 0.8910959018811558 0.4779411095432578	0.114679
H	0.4462834726931611 0.7272171657894073 0.4896817104545266	0.102801
H	0.3860013262910233 0.7866017504574669 0.4759936654509394	0.125055
H	0.5526057268745530 0.6174438169635236 0.4896586336084154	0.103713
H	0.6104527527811352 0.5553232098422316 0.4758247045762219	0.120335
H	0.7162844850314515 0.4491200393445537 0.4777750476149580	0.105332
H	0.7777169226589470 0.3910958688811566 0.4779411095432578	0.114679
H	0.9462834076931662 0.2272171817894085 0.4896817104545266	0.102801
H	0.8860013902910211 0.2866016844574689 0.4759936654509394	0.125055
H	0.9473942731254470 0.8825561830364764 0.9896586026084164	0.103712
H	0.8895472472188648 0.9446767901577684 0.9758246735762223	0.120336
H	0.7837155149685485 0.0508799646554467 0.9777750156149549	0.105331
H	0.7222830773410530 0.1089041391188442 0.9779411095432585	0.114679
H	0.5537165923068338 0.2727828182105914 0.9896817104545262	0.102802
H	0.6139986097089789 0.2133982985425333 0.9759936654509397	0.125054
H	0.4473943381254418 0.3825561830364760 0.9896586026084164	0.103708
H	0.3895472472188646 0.4446767571577694 0.9758246735762223	0.120334
H	0.2837154829685534 0.5508799606554465 0.9777750156149549	0.105328
H	0.2222830773410531 0.6089040981188442 0.9779411095432585	0.114679
H	0.0537165443068368 0.7727828342105927 0.9896817104545262	0.102802
H	0.1139986577089823 0.7133982495425331 0.9759936654509397	0.125054
H	0.0526056788745562 0.8825561830364764 0.9896586026084164	0.103708
H	0.1104527527811353 0.9446767901577684 0.9758246735762223	0.120334
H	0.2162845170314467 0.0508799646554467 0.9777750156149549	0.105329
H	0.2777169226589468 0.1089041391188442 0.9779411095432585	0.114680
H	0.4462834726931611 0.2727828182105914 0.9896817104545262	0.102802
H	0.3860013262910233 0.2133982985425333 0.9759936654509397	0.125054
H	0.5526057268745530 0.3825561830364760 0.9896586026084164	0.103712
H	0.6104527527811352 0.4446767571577694 0.9758246735762223	0.120336
H	0.7162844850314515 0.5508799606554465 0.9777750156149549	0.105331
H	0.7777169226589470 0.6089040981188442 0.9779411095432585	0.114680
H	0.9462834076931662 0.7727828342105927 0.9896817104545262	0.102802
H	0.8860013902910211 0.7133982495425331 0.9759936654509397	0.125054
H	0.9473942731254470 0.1174438419635224 0.4896586336084154	0.103713
H	0.8895472472188648 0.0553232428422306 0.4758247045762219	0.120335
H	0.7837155149685485 0.9491200063445543 0.4777750476149580	0.105332
H	0.7222830773410530 0.8910959018811558 0.4779411095432578	0.114679
H	0.5537165923068338 0.7272171657894073 0.4896817104545266	0.102801
H	0.6139986097089789 0.7866017504574669 0.4759936654509394	0.125055
H	0.4473943381254418 0.6174438169635236 0.4896586336084154	0.103709
H	0.3895472472188646 0.5553232098422316 0.4758247045762219	0.120334
H	0.2837154829685534 0.4491200393445537 0.4777750476149580	0.105329
H	0.2222830773410531 0.3910958688811566 0.4779411095432578	0.114679
H	0.0537165443068368 0.2272171817894085 0.4896817104545266	0.102801
H	0.1139986577089823 0.2866016844574689 0.4759936654509394	0.125055
H	0.9464274290494322 0.8835623195887247 0.5126223009269714	0.091729
H	0.8888462318323075 0.9454537436741994 0.5218390078468301	0.120425
H	0.7837044162201336 0.0509044157741832 0.5216584261163415	0.106030
H	0.7222761820109955 0.1089159345101382 0.5214490631800954	0.115093
H	0.5547019854488201 0.2717650250170637 0.5126224146969022	0.091254
H	0.6147727699638612 0.2126708294782256 0.5215744111983445	0.125952
H	0.4464274940494272 0.3835623195887251 0.5126223009269714	0.091729
H	0.3888462318323074 0.4454537106741999 0.5218390078468301	0.120425
H	0.2837043842201381 0.5509044117741829 0.5216584261163415	0.106030
H	0.2222761820109954 0.6089158935101382 0.5214490631800954	0.115093
H	0.0547019374488235 0.7717650410170653 0.5126224146969022	0.091254
H	0.1147728179638649 0.7126707804782253 0.5215744111983445	0.125952
H	0.0535725229505709 0.1164377054112734 0.0126223159269687	0.091729
H	0.1111537681676925 0.0545462893257998 0.0218390078468297	0.120424
H	0.2162956157798618 0.9490955552258179 0.0216584261163418	0.106031
H	0.2777238179890044 0.8910841064898618 0.0214490941801017	0.115092
H	0.4452980795511744 0.7282349589829347 0.0126224066969015	0.091253
H	0.3852271660361409 0.7873292195217747 0.0215743841983387	0.125953
H	0.5535725709505678 0.6164376804112753 0.0126223159269687	0.091730
H	0.6111537681676925 0.5545462563258006 0.0218390078468297	0.120424
H	0.7162955837798664 0.4490955882258170 0.0216584261163418	0.106031
H	0.7777238179890045 0.3910840734898623 0.0214490941801017	0.115092
H	0.9452980145511799 0.2282349749829361 0.0126224066969015	0.091253
H	0.8852272300361388 0.2873291535217768 0.0215743841983387	0.125953
Zn	0.5000000000000000 0.6729530912311035 0.7499014694123879	0.761280
Zn	-0.0000000000000000 0.1729530582311040 0.7499014694123879	0.761280
Zn	0.5000000000000000 0.3270469417688961 0.2499014534123868	0.761280
Zn	-0.0000000000000000 0.8270469087688965 0.2499014534123868	0.761280
V	0.5000000000000000 0.6728021350195147 0.2302023708717519	2.240020
V	-0.0000000000000000 0.1728021840195152 0.2302023708717519	2.240019
V	0.5000000000000000 0.3271977999804905 0.7302023868717534	2.240019
V	-0.0000000000000000 0.8271978649804853 0.7302023868717534	2.240019
F	0.5000000000000000 0.7359758476081794 0.2566416236395677	-0.571705
F	0.5000000000000000 0.6096889031005085 0.2583229787248925	-0.568641
F	-0.0000000000000000 0.2359758146081798 0.2566416236395677	-0.571705
F	-0.0000000000000000 0.1096889111005094 0.2583229787248925	-0.568641
F	0.5000000000000000 0.2640241693918188 0.7566416396395692	-0.571707
F	0.5000000000000000 0.3903110638994922 0.7583229947248938	-0.568638
F	-0.0000000000000000 0.7640241523918206 0.7566416396395692	-0.571707
F	-0.0000000000000000 0.8903110968994915 0.7583229947248937	-0.568639
F	0.5614031334948247 0.6727553096717431 0.2575858235105706	-0.572272
F	0.0614031254948241 0.1727552926717450 0.2575858235105706	-0.572272
F	0.4385968665051753 0.3272446903282571 0.7575858395105721	-0.572272
F	0.9385968665051753 0.8272446903282569 0.7575858395105721	-0.572272
F	0.4385968665051753 0.6727553096717431 0.2575858235105706	-0.572272
F	0.9385968665051753 0.1727552926717450 0.2575858235105706	-0.572272
F	0.5614031334948247 0.3272446903282571 0.7575858395105721	-0.572272
F	0.0614031254948241 0.8272446903282569 0.7575858395105721	-0.572272
F	0.5000000000000000 0.6731040414728344 0.4907247944305140	-0.611255
F	-0.0000000000000000 0.1731040414728347 0.4907247944305140	-0.611255
F	0.5000000000000000 0.3268959585271654 -0.0092751435694879	-0.611255
F	-0.0000000000000000 0.8268959585271656 -0.0092751435694879	-0.611255
O	0.5000000000000000 0.6726843368353339 0.0208224309417110	-0.802954
O	-0.0000000000000000 0.1726843368353339 0.0208224309417110	-0.802954
O	0.5000000000000000 0.3273156631646662 0.5208224119417126	-0.802954
O	-0.0000000000000000 0.8273156631646661 0.5208224119417126	-0.802954
N	0.5518493500093627 0.7253827489855016 0.7511396837187831	-0.221038
N	0.9490292126065225 0.1193987416374673 0.7511324961269435	-0.219487
N	0.0518493900093589 0.2253827649855028 0.7511396837187831	-0.221037
N	0.4490291806065274 0.6193987176374657 0.7511324961269435	-0.219508
N	0.4481506179906416 0.2746172350144971 0.2511396677187824	-0.221035
N	0.0509708153934725 0.8806012823625343 0.2511324801269422	-0.219511
N	0.9481506499906373 0.7746172510144984 0.2511396677187824	-0.221036
N	0.5509707873934775 0.3806012493625355 0.2511324801269422	-0.219489
N	0.4481506179906416 0.7253827489855016 0.7511396837187831	-0.221038
N	0.0509708153934725 0.1193987416374673 0.7511324961269435	-0.219509
N	0.9481506499906373 0.2253827649855028 0.7511396837187831	-0.221038
N	0.5509707873934775 0.6193987176374657 0.7511324961269435	-0.219487
N	0.5518493500093627 0.2746172350144971 0.2511396677187824	-0.221036
N	0.9490292126065225 0.8806012823625343 0.2511324801269422	-0.219489
N	0.0518493900093589 0.7746172510144984 0.2511396677187824	-0.221035
N	0.4490291806065274 0.3806012493625355 0.2511324801269422	-0.219511
	  	
