#======================================================================

# CRYSTAL DATA

#----------------------------------------------------------------------

data_VESTA_phase_1


_pd_phase_name                         VOFFIVE_5_Ni_i
_cell_length_a                         19.84825
_cell_length_b                         19.84825
_cell_length_c                         15.16848
_cell_angle_alpha                      90
_cell_angle_beta                       90
_cell_angle_gamma                      90
_symmetry_space_group_name_H-M         P 1
_symmetry_Int_Tables_number            1

loop_
_symmetry_equiv_pos_as_xyz
   x, y, z

loop_
   _atom_site_label
   _atom_site_fract_x
   _atom_site_fract_y
   _atom_site_fract_z
   _atom_site_charge
F	0.3226766390072901 0.1918302230878156 0.3492603898188951	-0.578380
F	0.1773233489927089 0.3081697889121783 0.3492603898188951	-0.578379
F	0.3081697889121783 0.3226766390072901 0.3492603898188951	-0.578379
F	0.1918302230878156 0.1773233489927089 0.3492603898188951	-0.578380
F	0.6773583676880950 0.6918836071282357 0.1464319255248670	-0.578326
F	0.8226416323119050 0.8081163928717643 0.1464319255248670	-0.578325
F	0.6918836071282357 0.8226416323119050 0.1464319255248670	-0.578325
F	0.8081163928717643 0.6773583676880950 0.1464319255248670	-0.578326
F	0.6773583676880950 0.8081163928717643 0.6464319405248649	-0.578324
F	0.8226416323119050 0.6918836071282357 0.6464319405248649	-0.578326
F	0.6918836071282357 0.6773583676880950 0.6464319405248649	-0.578325
F	0.8081163928717643 0.8226416323119050 0.6464319405248649	-0.578325
F	0.3226766390072901 0.3081697889121783 0.8492603588188961	-0.578379
F	0.1773233489927089 0.1918302230878156 0.8492603588188961	-0.578380
F	0.3081697889121783 0.1773233489927089 0.8492603588188961	-0.578380
F	0.1918302230878156 0.3226766390072901 0.8492603588188961	-0.578379
F	0.2500000000000000 0.2500000000000000 0.2298157128392572	-0.617702
F	0.7500000000000000 0.7500000000000000 0.0274239163320922	-0.617228
F	0.7500000000000000 0.7500000000000000 0.5274239123320922	-0.617229
F	0.2500000000000000 0.2500000000000000 0.7298157588392539	-0.617701
O	0.2500000000000000 0.2500000000000000 0.4700061335946949	-0.821106
O	0.7500000000000000 0.7500000000000000 0.2674934032180923	-0.826048
O	0.7500000000000000 0.7500000000000000 0.7674933722180931	-0.826047
O	0.2500000000000000 0.2500000000000000 0.9700061335946948	-0.821108
N	0.3552894103969633 0.2479081844417182 0.6011213253665787	-0.222746
N	0.1447105656030418 0.2520918395582838 0.6011213253665787	-0.222746
N	0.2520918395582838 0.3552894103969633 0.6011213253665787	-0.222746
N	0.2479081844417182 0.1447105656030418 0.6011213253665787	-0.222746
N	0.6447174376818477 0.7474439264517244 0.8984952180974766	-0.223290
N	0.8552825143181554 0.7525560735482756 0.8984952180974766	-0.223290
N	0.7474439264517244 0.8552825143181554 0.8984952180974766	-0.223290
N	0.7525560735482756 0.6447174376818477 0.8984952180974766	-0.223290
N	0.6447174376818477 0.7525560735482756 0.3984952180974763	-0.223292
N	0.8552825143181554 0.7474439264517244 0.3984952180974763	-0.223292
N	0.7474439264517244 0.6447174376818477 0.3984952180974763	-0.223292
N	0.7525560735482756 0.8552825143181554 0.3984952180974763	-0.223292
N	0.3552894103969633 0.2520918395582838 0.1011213333665792	-0.222747
N	0.1447105656030418 0.2479081844417182 0.1011213333665792	-0.222747
N	0.2520918395582838 0.1447105656030418 0.1011213333665792	-0.222748
N	0.2479081844417182 0.3552894103969633 0.1011213333665792	-0.222747
C	0.3885194604047386 0.2176194422064026 0.6675885904896107	0.102971
C	0.4584618807641475 0.2157850656581180 0.6714925925172923	-0.179428
C	0.4966395860099469 0.2470749387985471 0.6052446244032929	0.104196
C	0.4611327105231928 0.2783721778135380 0.5364759010715152	-0.182309
C	0.3911522868949573 0.2774864997643000 0.5364912929951812	0.103975
C	0.5708040991076275 0.2478050928161087 0.6084227324349295	0.054926
C	0.6069708951520261 0.1912002145981614 0.6378555193786818	-0.131884
C	0.6769339628755491 0.1920288795502531 0.6404017111481616	-0.122902
C	0.7129745630796354 0.2498138154946980 0.6153415031841256	0.066678
C	0.6768587522176195 0.3066713323456992 0.5870493111171636	-0.118287
C	0.6069407729711398 0.3054589620510871 0.5827359585912956	-0.126125
C	0.1114805515952624 0.2823805337935954 0.6675885904896107	0.102971
C	0.0415381342358501 0.2842149583418768 0.6714925925172923	-0.179427
C	0.0033604219900539 0.2529250612014530 0.6052446244032929	0.104197
C	0.0388673104768054 0.2216278221864619 0.5364759010715152	-0.182311
C	0.1088477371050447 0.2225135002357000 0.5364912929951812	0.103976
C	0.9291958528923756 0.2521949311838861 0.6084227324349295	0.054926
C	0.8930290568479771 0.3087997854018384 0.6378555193786818	-0.131885
C	0.8230660371244509 0.3079711324497480 0.6404017111481616	-0.122903
C	0.7870254369203646 0.2501862085052969 0.6153415031841256	0.066676
C	0.8231412477823805 0.1933286796543017 0.5870493111171636	-0.118288
C	0.8930592270288602 0.1945410139489109 0.5827359585912956	-0.126125
C	0.2823805337935954 0.3885194604047386 0.6675885904896107	0.102972
C	0.2842149583418768 0.4584618807641475 0.6714925925172923	-0.179427
C	0.2529250612014530 0.4966395860099469 0.6052446244032929	0.104196
C	0.2216278221864619 0.4611327105231928 0.5364759010715152	-0.182310
C	0.2225135002357000 0.3911522868949573 0.5364912929951812	0.103976
C	0.2521949311838861 0.5708040991076275 0.6084227324349295	0.054926
C	0.3087997854018384 0.6069708951520261 0.6378555193786818	-0.131884
C	0.3079711324497480 0.6769339628755491 0.6404017111481616	-0.122902
C	0.2501862085052969 0.7129745630796354 0.6153415031841256	0.066679
C	0.1933286796543017 0.6768587522176195 0.5870493111171636	-0.118288
C	0.1945410139489109 0.6069407729711398 0.5827359585912956	-0.126125
C	0.2176194422064026 0.1114805515952624 0.6675885904896107	0.102972
C	0.2157850656581180 0.0415381342358501 0.6714925925172923	-0.179428
C	0.2470749387985471 0.0033604219900539 0.6052446244032929	0.104196
C	0.2783721778135380 0.0388673104768054 0.5364759010715152	-0.182310
C	0.2774864997643000 0.1088477371050447 0.5364912929951812	0.103977
C	0.2478050928161087 0.9291958528923756 0.6084227324349295	0.054926
C	0.1912002145981614 0.8930290568479771 0.6378555193786818	-0.131885
C	0.1920288795502531 0.8230660371244509 0.6404017111481616	-0.122903
C	0.2498138154946980 0.7870254369203646 0.6153415031841256	0.066676
C	0.3066713323456992 0.8231412477823805 0.5870493111171636	-0.118288
C	0.3054589620510871 0.8930592270288602 0.5827359585912956	-0.126126
C	0.6111079749428622 0.7172076694043410 0.8323552262774117	0.103551
C	0.5412315603275173 0.7157336122516138 0.8285952874533909	-0.181877
C	0.5033574778647563 0.7472177271194885 0.8949544603994714	0.103473
C	0.5391767144626686 0.7783622001001634 0.9636106058932254	-0.179892
C	0.6092292039345811 0.7771256725348122 0.9634372376764526	0.103017
C	0.4291917208671492 0.7478693528005667 0.8918369260396722	0.054598
C	0.3930563388847143 0.6912546370246185 0.8622923245479136	-0.131830
C	0.3231026864923124 0.6920717449836352 0.8596312170431366	-0.122719
C	0.2870262154842264 0.7498357883245927 0.8846631405548196	0.066548
C	0.3231086351585569 0.8067131954157409 0.9129822684321959	-0.117843
C	0.3930253356928489 0.8055135898937940 0.9174133689205515	-0.127079
C	0.8888919780571375 0.7827923305956590 0.8323552262774117	0.103550
C	0.9587684396724827 0.7842663877483862 0.8285952874533909	-0.181875
C	0.9966425221352437 0.7527822728805115 0.8949544603994714	0.103472
C	0.9608232855373314 0.7216377998998366 0.9636106058932254	-0.179893
C	0.8907707960654189 0.7228743274651878 0.9634372376764526	0.103017
C	0.0708082791328507 0.7521306471994333 0.8918369260396722	0.054599
C	0.1069436371152909 0.8087454109753783 0.8622923245479136	-0.131830
C	0.1768973135076875 0.8079283030163688 0.8596312170431366	-0.122718
C	0.2129737845157736 0.7501642116754073 0.8846631405548196	0.066545
C	0.1768913888414451 0.6932868525842630 0.9129822684321959	-0.117843
C	0.1069746643071512 0.6944864581062029 0.9174133689205515	-0.127078
C	0.7172076694043410 0.8888919780571375 0.8323552262774117	0.103551
C	0.7157336122516138 0.9587684396724827 0.8285952874533909	-0.181876
C	0.7472177271194885 0.9966425221352437 0.8949544603994714	0.103473
C	0.7783622001001634 0.9608232855373314 0.9636106058932254	-0.179892
C	0.7771256725348122 0.8907707960654189 0.9634372376764526	0.103018
C	0.7478693528005667 0.0708082791328507 0.8918369260396722	0.054598
C	0.6912546370246185 0.1069436371152909 0.8622923245479136	-0.131829
C	0.6920717449836352 0.1768973135076875 0.8596312170431366	-0.122718
C	0.7498357883245927 0.2129737845157736 0.8846631405548196	0.066547
C	0.8067131954157409 0.1768913888414451 0.9129822684321959	-0.117843
C	0.8055135898937940 0.1069746643071512 0.9174133689205515	-0.127078
C	0.7827923305956590 0.6111079749428622 0.8323552262774117	0.103552
C	0.7842663877483862 0.5412315603275173 0.8285952874533909	-0.181875
C	0.7527822728805115 0.5033574778647563 0.8949544603994714	0.103472
C	0.7216377998998366 0.5391767144626686 0.9636106058932254	-0.179893
C	0.7228743274651878 0.6092292039345811 0.9634372376764526	0.103018
C	0.7521306471994333 0.4291917208671492 0.8918369260396722	0.054598
C	0.8087454109753783 0.3930563388847143 0.8622923245479136	-0.131830
C	0.8079283030163688 0.3231026864923124 0.8596312170431366	-0.122718
C	0.7501642116754073 0.2870262154842264 0.8846631405548196	0.066545
C	0.6932868525842630 0.3231086351585569 0.9129822684321959	-0.117843
C	0.6944864581062029 0.3930253356928489 0.9174133689205515	-0.127079
C	0.6111079749428622 0.7827923305956590 0.3323552582774144	0.103555
C	0.5412315603275173 0.7842663877483862 0.3285952564533917	-0.181904
C	0.5033574778647563 0.7527822728805115 0.3949545223994691	0.103493
C	0.5391767144626686 0.7216377998998366 0.4636105748932265	-0.179873
C	0.6092292039345811 0.7228743274651878 0.4634372376764527	0.103012
C	0.4291917208671492 0.7521306471994333 0.3918369570396713	0.054585
C	0.3930563388847143 0.8087454109753783 0.3622923875479152	-0.131830
C	0.3231026864923124 0.8079283030163688 0.3596312170431367	-0.122718
C	0.2870262154842264 0.7501642116754073 0.3846631405548196	0.066547
C	0.3231086351585569 0.6932868525842630 0.4129822684321956	-0.117844
C	0.3930253356928489 0.6944864581062029 0.4174133999205576	-0.127079
C	0.8888919780571375 0.7172076694043410 0.3323552582774144	0.103555
C	0.9587684396724827 0.7157336122516138 0.3285952564533917	-0.181904
C	0.9966425221352437 0.7472177271194885 0.3949545223994691	0.103492
C	0.9608232855373314 0.7783622001001634 0.4636105748932265	-0.179871
C	0.8907707960654189 0.7771256725348122 0.4634372376764527	0.103011
C	0.0708082791328507 0.7478693528005667 0.3918369570396713	0.054585
C	0.1069436371152909 0.6912546370246185 0.3622923875479152	-0.131829
C	0.1768973135076875 0.6920717449836352 0.3596312170431367	-0.122717
C	0.2129737845157736 0.7498357883245927 0.3846631405548196	0.066545
C	0.1768913888414451 0.8067131954157409 0.4129822684321956	-0.117843
C	0.1069746643071512 0.8055135898937940 0.4174133999205576	-0.127078
C	0.7172076694043410 0.6111079749428622 0.3323552582774144	0.103556
C	0.7157336122516138 0.5412315603275173 0.3285952564533917	-0.181904
C	0.7472177271194885 0.5033574778647563 0.3949545223994691	0.103493
C	0.7783622001001634 0.5391767144626686 0.4636105748932265	-0.179872
C	0.7771256725348122 0.6092292039345811 0.4634372376764527	0.103013
C	0.7478693528005667 0.4291917208671492 0.3918369570396713	0.054585
C	0.6912546370246185 0.3930563388847143 0.3622923875479152	-0.131830
C	0.6920717449836352 0.3231026864923124 0.3596312170431367	-0.122718
C	0.7498357883245927 0.2870262154842264 0.3846631405548196	0.066546
C	0.8067131954157409 0.3231086351585569 0.4129822684321956	-0.117844
C	0.8055135898937940 0.3930253356928489 0.4174133999205576	-0.127079
C	0.7827923305956590 0.8888919780571375 0.3323552582774144	0.103556
C	0.7842663877483862 0.9587684396724827 0.3285952564533917	-0.181903
C	0.7527822728805115 0.9966425221352437 0.3949545223994691	0.103493
C	0.7216377998998366 0.9608232855373314 0.4636105748932265	-0.179872
C	0.7228743274651878 0.8907707960654189 0.4634372376764527	0.103012
C	0.7521306471994333 0.0708082791328507 0.3918369570396713	0.054586
C	0.8087454109753783 0.1069436371152909 0.3622923875479152	-0.131829
C	0.8079283030163688 0.1768973135076875 0.3596312170431367	-0.122717
C	0.7501642116754073 0.2129737845157736 0.3846631405548196	0.066546
C	0.6932868525842630 0.1768913888414451 0.4129822684321956	-0.117843
C	0.6944864581062029 0.1069746643071512 0.4174133999205576	-0.127078
C	0.3885194604047386 0.2823805337935954 0.1675885904896109	0.102970
C	0.4584618807641475 0.2842149583418768 0.1714926235172913	-0.179428
C	0.4966395860099469 0.2529250612014530 0.1052445704032956	0.104197
C	0.4611327105231928 0.2216278221864619 0.0364759250715172	-0.182311
C	0.3911522868949573 0.2225135002357000 0.0364913159951798	0.103975
C	0.5708040991076275 0.2521949311838861 0.1084227014349375	0.054922
C	0.6069708951520261 0.3087997854018384 0.1378554723786816	-0.131891
C	0.6769339628755491 0.3079711324497480 0.1404017271481632	-0.122899
C	0.7129745630796354 0.2501862085052969 0.1153415111841264	0.066677
C	0.6768587522176195 0.1933286796543017 0.0870493341171620	-0.118288
C	0.6069407729711398 0.1945410139489109 0.0827359345912935	-0.126123
C	0.1114805515952624 0.2176194422064026 0.1675885904896109	0.102971
C	0.0415381342358501 0.2157850656581180 0.1714926235172913	-0.179430
C	0.0033604219900539 0.2470749387985471 0.1052445704032956	0.104198
C	0.0388673104768054 0.2783721778135380 0.0364759250715172	-0.182310
C	0.1088477371050447 0.2774864997643000 0.0364913159951798	0.103975
C	0.9291958528923756 0.2478050928161087 0.1084227014349375	0.054921
C	0.8930290568479771 0.1912002145981614 0.1378554723786816	-0.131892
C	0.8230660371244509 0.1920288795502531 0.1404017271481632	-0.122899
C	0.7870254369203646 0.2498138154946980 0.1153415111841264	0.066676
C	0.8231412477823805 0.3066713323456992 0.0870493341171620	-0.118288
C	0.8930592270288602 0.3054589620510871 0.0827359345912935	-0.126125
C	0.2823805337935954 0.1114805515952624 0.1675885904896109	0.102973
C	0.2842149583418768 0.0415381342358501 0.1714926235172913	-0.179428
C	0.2529250612014530 0.0033604219900539 0.1052445704032956	0.104198
C	0.2216278221864619 0.0388673104768054 0.0364759250715172	-0.182311
C	0.2225135002357000 0.1088477371050447 0.0364913159951798	0.103976
C	0.2521949311838861 0.9291958528923756 0.1084227014349375	0.054922
C	0.3087997854018384 0.8930290568479771 0.1378554723786816	-0.131892
C	0.3079711324497480 0.8230660371244509 0.1404017271481632	-0.122899
C	0.2501862085052969 0.7870254369203646 0.1153415111841264	0.066677
C	0.1933286796543017 0.8231412477823805 0.0870493341171620	-0.118287
C	0.1945410139489109 0.8930592270288602 0.0827359345912935	-0.126124
C	0.2176194422064026 0.3885194604047386 0.1675885904896109	0.102971
C	0.2157850656581180 0.4584618807641475 0.1714926235172913	-0.179429
C	0.2470749387985471 0.4966395860099469 0.1052445704032956	0.104198
C	0.2783721778135380 0.4611327105231928 0.0364759250715172	-0.182309
C	0.2774864997643000 0.3911522868949573 0.0364913159951798	0.103976
C	0.2478050928161087 0.5708040991076275 0.1084227014349375	0.054922
C	0.1912002145981614 0.6069708951520261 0.1378554723786816	-0.131891
C	0.1920288795502531 0.6769339628755491 0.1404017271481632	-0.122899
C	0.2498138154946980 0.7129745630796354 0.1153415111841264	0.066676
C	0.3066713323456992 0.6768587522176195 0.0870493341171620	-0.118288
C	0.3054589620510871 0.6069407729711398 0.0827359345912935	-0.126124
H	0.3576468727699550 0.1957730976366606 0.7197716057243824	0.105378
H	0.4829943206816147 0.1918651409476426 0.7276907024548395	0.112709
H	0.4877618480005113 0.3023445426710312 0.4819986441504254	0.112663
H	0.3625175363510684 0.3004545064680179 0.4829602623256150	0.098327
H	0.5797490355953511 0.1458198053069837 0.6573696295534568	0.099661
H	0.7044156010356696 0.1478413443651772 0.6633233092366970	0.100478
H	0.7041904397201266 0.3513668000312461 0.5654273374730844	0.101523
H	0.5797954963435096 0.3500031067729082 0.5601107099197233	0.102629
H	0.1423531392300458 0.3042269023633393 0.7197716057243824	0.105378
H	0.0170057093183878 0.3081348350523555 0.7276907024548395	0.112708
H	0.0122381549994854 0.1976554573289688 0.4819986441504254	0.112664
H	0.1374824516489306 0.1995454935319820 0.4829602623256150	0.098327
H	0.9202509164046521 0.3541802066930173 0.6573696295534568	0.099661
H	0.7955843989643304 0.3521586436348147 0.6633233092366970	0.100478
H	0.7958095602798734 0.1486331999687540 0.5654273374730844	0.101522
H	0.9202045036564904 0.1499968932270918 0.5601107099197233	0.102628
H	0.3042269023633393 0.3576468727699550 0.7197716057243824	0.105378
H	0.3081348350523555 0.4829943206816147 0.7276907024548395	0.112708
H	0.1976554573289688 0.4877618480005113 0.4819986441504254	0.112663
H	0.1995454935319820 0.3625175363510684 0.4829602623256150	0.098327
H	0.3541802066930173 0.5797490355953511 0.6573696295534568	0.099662
H	0.3521586436348147 0.7044156010356696 0.6633233092366970	0.100478
H	0.1486331999687540 0.7041904397201266 0.5654273374730844	0.101522
H	0.1499968932270918 0.5797954963435096 0.5601107099197233	0.102628
H	0.1957730976366606 0.1423531392300458 0.7197716057243824	0.105378
H	0.1918651409476426 0.0170057093183878 0.7276907024548395	0.112709
H	0.3023445426710312 0.0122381549994854 0.4819986441504254	0.112663
H	0.3004545064680179 0.1374824516489306 0.4829602623256150	0.098327
H	0.1458198053069837 0.9202509164046521 0.6573696295534568	0.099661
H	0.1478413443651772 0.7955843989643304 0.6633233092366970	0.100478
H	0.3513668000312461 0.7958095602798734 0.5654273374730844	0.101522
H	0.3500031067729082 0.9202045036564904 0.5601107099197233	0.102629
H	0.6414561774661364 0.6946338892795004 0.7801932770456683	0.099233
H	0.5166018039887654 0.6917417610201855 0.7725647800975962	0.113415
H	0.5126341936101400 0.8022464930450638 0.0182633892488318	0.112793
H	0.6384289263888100 0.7994505846922302 0.0169531241963361	0.105517
H	0.4202667834197009 0.6458778214119739 0.8427044466402405	0.099829
H	0.2956322219531170 0.6478749344917029 0.8366690304911234	0.100495
H	0.2957637406895573 0.8513982120338595 0.9345659153655330	0.101379
H	0.4201836790446453 0.8500618015554992 0.9399663361775064	0.103399
H	0.8585438695338640 0.8053661587205035 0.7801932770456683	0.099233
H	0.9833981960112346 0.8082582389798145 0.7725647800975962	0.113415
H	0.9873657593898597 0.6977535069549362 0.0182633892488318	0.112793
H	0.8615710256111931 0.7005494153077698 0.0169531241963361	0.105516
H	0.0797332405802939 0.8541221785880261 0.8427044466402405	0.099829
H	0.2043677780468829 0.8521250655082971 0.8366690304911234	0.100495
H	0.2042362593104428 0.6486017399661366 0.9345659153655330	0.101378
H	0.0798163329553556 0.6499381504444969 0.9399663361775064	0.103399
H	0.6946338892795004 0.8585438695338640 0.7801932770456683	0.099233
H	0.6917417610201855 0.9833981960112346 0.7725647800975962	0.113415
H	0.8022464930450638 0.9873657593898597 0.0182633892488318	0.112792
H	0.7994505846922302 0.8615710256111931 0.0169531241963361	0.105516
H	0.6458778214119739 0.0797332405802939 0.8427044466402405	0.099829
H	0.6478749344917029 0.2043677780468829 0.8366690304911234	0.100495
H	0.8513982120338595 0.2042362593104428 0.9345659153655330	0.101379
H	0.8500618015554992 0.0798163329553556 0.9399663361775064	0.103399
H	0.8053661587205035 0.6414561774661364 0.7801932770456683	0.099233
H	0.8082582389798145 0.5166018039887654 0.7725647800975962	0.113415
H	0.6977535069549362 0.5126341936101400 0.0182633892488318	0.112794
H	0.7005494153077698 0.6384289263888100 0.0169531241963361	0.105516
H	0.8541221785880261 0.4202667834197009 0.8427044466402405	0.099830
H	0.8521250655082971 0.2956322219531170 0.8366690304911234	0.100495
H	0.6486017399661366 0.2957637406895573 0.9345659153655330	0.101378
H	0.6499381504444969 0.4201836790446453 0.9399663361775064	0.103399
H	0.6414561774661364 0.8053661587205035 0.2801932460456694	0.099233
H	0.5166018039887654 0.8082582389798145 0.2725647800975963	0.113418
H	0.5126341936101400 0.6977535069549362 0.5182634082488371	0.112791
H	0.6384289263888100 0.7005494153077698 0.5169530951963373	0.105517
H	0.4202667834197009 0.8541221785880261 0.3427044466402406	0.099829
H	0.2956322219531170 0.8521250655082971 0.3366690614911295	0.100494
H	0.2957637406895573 0.6486017399661366 0.4345659153655330	0.101378
H	0.4201836790446453 0.6499381504444969 0.4399663981775044	0.103400
H	0.8585438695338640 0.6946338892795004 0.2801932460456694	0.099233
H	0.9833981960112346 0.6917417610201855 0.2725647800975963	0.113419
H	0.9873657593898597 0.8022464930450638 0.5182634082488371	0.112790
H	0.8615710256111931 0.7994505846922302 0.5169530951963373	0.105516
H	0.0797332405802939 0.6458778214119739 0.3427044466402406	0.099829
H	0.2043677780468829 0.6478749344917029 0.3366690614911295	0.100494
H	0.2042362593104428 0.8513982120338595 0.4345659153655330	0.101379
H	0.0798163329553556 0.8500618015554992 0.4399663981775044	0.103400
H	0.6946338892795004 0.6414561774661364 0.2801932460456694	0.099233
H	0.6917417610201855 0.5166018039887654 0.2725647800975963	0.113419
H	0.8022464930450638 0.5126341936101400 0.5182634082488371	0.112790
H	0.7994505846922302 0.6384289263888100 0.5169530951963373	0.105516
H	0.6458778214119739 0.4202667834197009 0.3427044466402406	0.099829
H	0.6478749344917029 0.2956322219531170 0.3366690614911295	0.100494
H	0.8513982120338595 0.2957637406895573 0.4345659153655330	0.101378
H	0.8500618015554992 0.4201836790446453 0.4399663981775044	0.103401
H	0.8053661587205035 0.8585438695338640 0.2801932460456694	0.099233
H	0.8082582389798145 0.9833981960112346 0.2725647800975963	0.113418
H	0.6977535069549362 0.9873657593898597 0.5182634082488371	0.112790
H	0.7005494153077698 0.8615710256111931 0.5169530951963373	0.105517
H	0.8541221785880261 0.0797332405802939 0.3427044466402406	0.099830
H	0.8521250655082971 0.2043677780468829 0.3366690614911295	0.100494
H	0.6486017399661366 0.2042362593104428 0.4345659153655330	0.101378
H	0.6499381504444969 0.0798163329553556 0.4399663981775044	0.103400
H	0.3576468727699550 0.3042269023633393 0.2197716367243813	0.105378
H	0.4829943206816147 0.3081348350523555 0.2276906874548417	0.112709
H	0.4877618480005113 0.1976554573289688 0.9819986131504193	0.112664
H	0.3625175363510684 0.1995454935319820 0.9829602623256222	0.098327
H	0.5797490355953511 0.3541802066930173 0.1573696295534567	0.099666
H	0.7044156010356696 0.3521586436348147 0.1633232932366955	0.100478
H	0.7041904397201266 0.1486331999687540 0.0654273454730852	0.101522
H	0.5797954963435096 0.1499968932270918 0.0601106629197228	0.102630
H	0.1423531392300458 0.1957730976366606 0.2197716367243813	0.105378
H	0.0170057093183878 0.1918651409476426 0.2276906874548417	0.112710
H	0.0122381549994854 0.3023445426710312 0.9819986131504193	0.112665
H	0.1374824516489306 0.3004545064680179 0.9829602623256222	0.098327
H	0.9202509164046521 0.1458198053069837 0.1573696295534567	0.099666
H	0.7955843989643304 0.1478413443651772 0.1633232932366955	0.100477
H	0.7958095602798734 0.3513668000312461 0.0654273454730852	0.101523
H	0.9202045036564904 0.3500031067729082 0.0601106629197228	0.102630
H	0.3042269023633393 0.1423531392300458 0.2197716367243813	0.105378
H	0.3081348350523555 0.0170057093183878 0.2276906874548417	0.112709
H	0.1976554573289688 0.0122381549994854 0.9819986131504193	0.112665
H	0.1995454935319820 0.1374824516489306 0.9829602623256222	0.098327
H	0.3541802066930173 0.9202509164046521 0.1573696295534567	0.099667
H	0.3521586436348147 0.7955843989643304 0.1633232932366955	0.100478
H	0.1486331999687540 0.7958095602798734 0.0654273454730852	0.101522
H	0.1499968932270918 0.9202045036564904 0.0601106629197228	0.102630
H	0.1957730976366606 0.3576468727699550 0.2197716367243813	0.105378
H	0.1918651409476426 0.4829943206816147 0.2276906874548417	0.112709
H	0.3023445426710312 0.4877618480005113 0.9819986131504193	0.112664
H	0.3004545064680179 0.3625175363510684 0.9829602623256222	0.098326
H	0.1458198053069837 0.5797490355953511 0.1573696295534567	0.099666
H	0.1478413443651772 0.7044156010356696 0.1633232932366955	0.100478
H	0.3513668000312461 0.7041904397201266 0.0654273454730852	0.101523
H	0.3500031067729082 0.5797954963435096 0.0601106629197228	0.102630
Ni	0.2500000000000000 0.2500000000000000 0.6001296713554719	0.758092
Ni	0.7500000000000000 0.7500000000000000 0.8981443207741596	0.757780
Ni	0.7500000000000000 0.7500000000000000 0.3981443207741599	0.757784
Ni	0.2500000000000000 0.2500000000000000 0.1001296793554726	0.758096
V	0.2500000000000000 0.2500000000000000 0.3614049049138366	2.264467
V	0.7500000000000000 0.7500000000000000 0.1587293610589011	2.267975
V	0.7500000000000000 0.7500000000000000 0.6587293610588939	2.267974
V	0.2500000000000000 0.2500000000000000 0.8614049359138355	2.264467
	  	
