#======================================================================

# CRYSTAL DATA

#----------------------------------------------------------------------

data_VESTA_phase_1


_pd_phase_name                         VOFFIVE_1_Co
_cell_length_a                         11.04166
_cell_length_b                         11.04166
_cell_length_c                         7.86819
_cell_angle_alpha                      90
_cell_angle_beta                       90
_cell_angle_gamma                      90
_symmetry_space_group_name_H-M         P 1
_symmetry_Int_Tables_number            1

loop_
_symmetry_equiv_pos_as_xyz
   x, y, z

loop_
   _atom_site_label
   _atom_site_fract_x
   _atom_site_fract_y
   _atom_site_fract_z
   _atom_site_charge
C	0.2591044095450034 0.4569383858119035 0.3658489432731477	0.096567
C	0.1332598853014238 0.4561227335287539 0.3605212724045339	-0.173642
C	0.7408956334549965 0.5430616571880967 0.3658489432731477	0.096567
C	0.8667400606985716 0.5438772664712460 0.3605212724045339	-0.173642
C	0.5430616571880967 0.2591044095450034 0.3658489432731477	0.096567
C	0.5438772664712460 0.1332598853014238 0.3605212724045339	-0.173642
C	0.4569383858119035 0.7408956334549965 0.3658489432731477	0.096567
C	0.4561227335287539 0.8667400606985716 0.3605212724045339	-0.173643
C	0.7423203966687392 0.4552155473228662 0.6346055006433331	0.097568
C	0.8681018841028120 0.4549250549481742 0.6383068636927656	-0.172603
C	0.2576796463312604 0.5447844956771337 0.6346055006433331	0.097568
C	0.1318980618971837 0.5450749450518261 0.6383068636927656	-0.172603
C	0.4552155473228662 0.2576796463312604 0.6346055006433331	0.097568
C	0.4549250549481742 0.1318980618971837 0.6383068636927656	-0.172603
C	0.5447844956771337 0.7423203966687392 0.6346055006433331	0.097568
C	0.5450749450518261 0.8681018841028120 0.6383068636927656	-0.172603
C	0.0668583678749962 0.5003359403528378 0.4989524447452319	0.099701
C	0.9331416531250092 0.4996640596471628 0.4989524447452319	0.099704
C	0.4996640596471628 0.0668583678749962 0.4989524447452319	0.099701
C	0.5003359403528378 0.9331416531250092 0.4989524447452319	0.099704
H	0.3129151041587190 0.4236920363622025 0.2594207772888231	0.112439
H	0.0880132306633029 0.4189938998247943 0.2491611727696303	0.125357
H	0.6870848748412757 0.5763079636377975 0.2594207772888231	0.112439
H	0.9119867533366961 0.5810061001752057 0.2491611727696303	0.125357
H	0.5763079636377975 0.3129151041587190 0.2594207772888231	0.112439
H	0.5810061001752057 0.0880132306633029 0.2491611727696303	0.125359
H	0.4236920363622025 0.6870848748412757 0.2594207772888231	0.112439
H	0.4189938998247943 0.9119867533366961 0.2491611727696303	0.125358
H	0.6897873958005782 0.4211460950292728 0.7416174326159370	0.106256
H	0.9145185605774618 0.4183317565852550 0.7490990240258221	0.124160
H	0.3102125831994165 0.5788539049707272 0.7416174326159370	0.106256
H	0.0854814234225373 0.5816682434147452 0.7490990240258221	0.124159
H	0.4211460950292728 0.3102125831994165 0.7416174326159370	0.106256
H	0.4183317565852550 0.0854814234225373 0.7490990240258221	0.124162
H	0.5788539049707272 0.6897873958005782 0.7416174326159370	0.106256
H	0.5816682434147452 0.9145185605774618 0.7490990240258221	0.124161
Co	0.5000000000000000 0.5000000000000000 0.5033404768360875	0.619549
V	0.5000000000000000 0.5000000000000000 -0.0185597285082632	2.236614
O	0.5000000000000000 0.5000000000000000 0.7710229408961342	-0.827760
F	0.5000000000000000 0.5000000000000000 0.2336761216260280	-0.621402
F	0.3821062374581595 0.3797750046111216 0.0042056887039971	-0.587693
F	0.6178938055418404 0.6202250383888784 0.0042056887039971	-0.587693
F	0.6202250383888784 0.3821062374581595 0.0042056887039971	-0.587693
F	0.3797750046111216 0.6178938055418404 0.0042056887039971	-0.587693
N	0.3203811004722504 0.5008029264050806 0.5008909561242800	-0.179862
N	0.6796189425277497 0.4991970735949194 0.5008909561242800	-0.179862
N	0.4991970735949194 0.3203811004722504 0.5008909561242800	-0.179862
N	0.5008029264050806 0.6796189425277497 0.5008909561242800	-0.179862
	  	
