#======================================================================

# CRYSTAL DATA

#----------------------------------------------------------------------

data_VESTA_phase_1


_pd_phase_name                         VOFFIVE_16_Cu_i
_cell_length_a                         24.93122
_cell_length_b                         24.93122
_cell_length_c                         7.77263
_cell_angle_alpha                      90
_cell_angle_beta                       90
_cell_angle_gamma                      90
_symmetry_space_group_name_H-M         P 1
_symmetry_Int_Tables_number            1

loop_
_symmetry_equiv_pos_as_xyz
   x, y, z

loop_
   _atom_site_label
   _atom_site_fract_x
   _atom_site_fract_y
   _atom_site_fract_z
   _atom_site_charge
C	0.4783237774649308 0.3903172213526168 0.3675684492370554	0.100399
C	0.4771490342020179 0.3345997196970753 0.3631992097077355	-0.168827
C	0.9546510022442253 0.6137407805504118 0.9427902873825087	-0.125487
C	0.9548099887431203 0.5580591628340615 0.9436964782750827	-0.124529
C	0.5216762605350721 0.6096827786473832 0.3675684492370554	0.100399
C	0.5228509277979864 0.6654002423029285 0.3631992097077355	-0.168827
C	0.0453489927557708 0.3862592194495879 0.9427902873825087	-0.125487
C	0.0451900162568768 0.4419408371659385 0.9436964782750827	-0.124529
C	0.6096827786473832 0.4783237774649308 0.3675684492370554	0.100399
C	0.6654002423029285 0.4771490342020179 0.3631992097077355	-0.168827
C	0.3862592194495879 0.9546510022442253 0.9427902873825087	-0.125487
C	0.4419408371659385 0.9548099887431203 0.9436964782750827	-0.124529
C	0.3903172213526168 0.5216762605350721 0.3675684492370554	0.100399
C	0.3345997196970753 0.5228509277979864 0.3631992097077355	-0.168827
C	0.6137407805504118 0.0453489927557708 0.9427902873825087	-0.125487
C	0.5580591628340615 0.0451900162568768 0.9436964782750827	-0.124529
C	0.5221657777786952 0.3900192134850023 0.6317593303147431	0.100914
C	0.5229880731285514 0.3343362268738223 0.6362117108207185	-0.170366
C	0.0453446746984437 0.6137371733772605 0.0571637182687897	-0.125109
C	0.0451872263128794 0.5580571523122879 0.0562434089438507	-0.124640
C	0.4778342602213079 0.6099807865149979 0.6317593303147431	0.100914
C	0.4770118888714528 0.6656637351261817 0.6362117108207185	-0.170366
C	0.9546553203015524 0.3862628266227396 0.0571637182687897	-0.125109
C	0.9548127786871174 0.4419428476877118 0.0562434089438507	-0.124640
C	0.3900192134850023 0.4778342602213079 0.6317593303147431	0.100914
C	0.3343362268738224 0.4770118888714528 0.6362117108207185	-0.170366
C	0.6137371733772605 0.9546553203015524 0.0571637182687897	-0.125109
C	0.5580571523122879 0.9548127786871174 0.0562434089438507	-0.124640
C	0.6099807865149979 0.5221657777786952 0.6317593303147431	0.100914
C	0.6656637351261817 0.5229880731285514 0.6362117108207185	-0.170366
C	0.3862628266227396 0.0453446746984437 0.0571637182687897	-0.125109
C	0.4419428476877118 0.0451872263128794 0.0562434089438507	-0.124640
C	0.5453446796984476 0.8862628266227395 0.5571637262687902	-0.125109
C	0.5451872213128826 0.9419428476877121 0.5562434449438535	-0.124640
C	0.0221657607786975 0.1099807775150005 0.1317593623147386	0.100914
C	0.0229881111285473 0.1656637541261798 0.1362117108207185	-0.170365
C	0.4546553593015520 0.1137371633772595 0.5571637262687902	-0.125109
C	0.4548127786871176 0.0580571423122875 0.5562434449438535	-0.124640
C	0.9778341842213016 0.8900192134850021 0.1317593623147386	0.100915
C	0.9770118888714525 0.8343362268738223 0.1362117108207185	-0.170365
C	0.1137371633772595 0.5453446796984476 0.5571637262687902	-0.125109
C	0.0580571423122875 0.5451872213128826 0.5562434449438535	-0.124640
C	0.8900192134850021 0.0221657607786975 0.1317593623147386	0.100915
C	0.8343362268738223 0.0229881111285473 0.1362117108207185	-0.170365
C	0.8862628266227395 0.4546553593015520 0.5571637262687902	-0.125109
C	0.9419428476877121 0.4548127786871176 0.5562434449438535	-0.124639
C	0.1099807775150005 0.9778341842213016 0.1317593623147386	0.100914
C	0.1656637541261798 0.9770118888714525 0.1362117108207185	-0.170365
C	0.4546510412442249 0.8862592194495882 0.4427902873825089	-0.125487
C	0.4548099887431201 0.9419408371659385 0.4436964782750827	-0.124529
C	0.9783237014649248 0.1096827696473860 0.8675684492370551	0.100399
C	0.9771490342020176 0.1654002613029267 0.8631991777077327	-0.168828
C	0.5453489977557747 0.1137407705504111 0.4427902873825089	-0.125487
C	0.5451900112568797 0.0580591528340607 0.4436964782750827	-0.124529
C	0.0216762435350744 0.8903172213526168 0.8675684492370551	0.100399
C	0.0228509657979821 0.8345997196970755 0.8631991777077327	-0.168828
C	0.8862592194495882 0.5453489977557747 0.4427902873825089	-0.125487
C	0.9419408371659385 0.5451900112568797 0.4436964782750827	-0.124529
C	0.1096827696473860 0.0216762435350744 0.8675684492370551	0.100399
C	0.1654002613029267 0.0228509657979821 0.8631991777077327	-0.168828
C	0.1137407705504111 0.4546510412442249 0.4427902873825089	-0.125487
C	0.0580591528340607 0.4548099887431201 0.4436964782750827	-0.124529
C	0.8903172213526168 0.9783237014649248 0.8675684492370551	0.100399
C	0.8345997196970755 0.9771490342020176 0.8631991777077327	-0.168828
C	0.4999449976679788 0.3052437684414931 0.4996026889611575	0.174399
C	0.4998607164842119 0.2483631338505132 0.4995783838300208	-0.115148
C	0.4999601597546563 0.1994247768053176 0.4998162302829101	-0.093718
C	0.4999980440365108 0.1425484301834281 0.4999563785621996	0.122244
C	0.5000005294437654 0.0294226305189056 0.4999578309218671	0.065525
C	0.0000550023320212 0.8052437884414950 -0.0003973110388426	0.174399
C	0.0001392835157880 0.7483631528505110 -0.0004216161699790	-0.115148
C	0.0000398402453435 0.6994247768053173 -0.0001837697170898	-0.093718
C	0.0000019559634891 0.6425484301834282 -0.0000436214378004	0.122244
C	-0.0000005294437653 0.5294226265189054 -0.0000421690781330	0.065525
C	0.5000550023320208 0.6947561735585089 0.4996026889611575	0.174400
C	0.5001392835157880 0.7516368851494850 0.4995783838300208	-0.115148
C	0.5000398402453434 0.8005751841946830 0.4998162302829101	-0.093718
C	0.5000019559634890 0.8574515308165721 0.4999563785621996	0.122244
C	0.4999994705562347 0.9705774124810943 0.4999578309218671	0.065525
C	-0.0000550023320212 0.1947562115585052 -0.0003973110388426	0.174399
C	-0.0001392835157880 0.2516368661494868 -0.0004216161699790	-0.115148
C	-0.0000398402453435 0.3005752031946807 -0.0001837697170898	-0.093718
C	-0.0000019559634891 0.3574515698165719 -0.0000436214378004	0.122244
C	0.0000005294437653 0.4705773734810948 -0.0000421690781330	0.065525
C	0.6947561735585089 0.4999449976679788 0.4996026889611575	0.174400
C	0.7516368851494850 0.4998607164842119 0.4995783838300208	-0.115148
C	0.8005751841946830 0.4999601597546563 0.4998162302829101	-0.093718
C	0.8574515308165721 0.4999980440365108 0.4999563785621996	0.122244
C	0.9705774124810943 0.5000005294437654 0.4999578309218671	0.065525
C	0.1947562115585052 0.0000550023320212 -0.0003973110388426	0.174399
C	0.2516368661494868 0.0001392835157880 -0.0004216161699790	-0.115148
C	0.3005752031946807 0.0000398402453435 -0.0001837697170898	-0.093718
C	0.3574515698165719 0.0000019559634891 -0.0000436214378004	0.122244
C	0.4705773734810948 -0.0000005294437653 -0.0000421690781330	0.065525
C	0.3052437684414931 0.5000550023320208 0.4996026889611575	0.174399
C	0.2483631338505132 0.5001392835157880 0.4995783838300208	-0.115148
C	0.1994247768053176 0.5000398402453434 0.4998162302829101	-0.093718
C	0.1425484301834281 0.5000019559634890 0.4999563785621996	0.122244
C	0.0294226305189056 0.4999994705562347 0.4999578309218671	0.065525
C	0.8052437884414950 -0.0000550023320212 -0.0003973110388426	0.174399
C	0.7483631528505110 -0.0001392835157880 -0.0004216161699790	-0.115148
C	0.6994247768053173 -0.0000398402453435 -0.0001837697170898	-0.093718
C	0.6425484301834282 -0.0000019559634891 -0.0000436214378004	0.122244
C	0.5294226265189054 0.0000005294437653 -0.0000421690781330	0.065525
H	0.4621165382625759 0.4142780558806764 0.2619305050387721	0.111950
H	0.4588783542703711 0.3141337323828958 0.2541579679005043	0.126882
H	0.9196455126169011 0.6356262431839086 0.8966854827021911	0.111817
H	0.9200050794663814 0.5361246301825178 0.8959910520156623	0.106730
H	0.5378834617374241 0.5857219821193194 0.2619305050387721	0.111950
H	0.5411216837296250 0.6858662866171098 0.2541579679005043	0.126882
H	0.0803544873830991 0.3643737948160878 0.8966854827021911	0.111817
H	0.0799949015336208 0.4638753698174822 0.8959910520156623	0.106730
H	0.5857219821193194 0.4621165382625759 0.2619305050387721	0.111950
H	0.6858662866171098 0.4588783542703711 0.2541579679005043	0.126882
H	0.3643737948160878 0.9196455126169011 0.8966854827021911	0.111817
H	0.4638753698174822 0.9200050794663814 0.8959910520156623	0.106730
H	0.4142780558806764 0.5378834617374241 0.2619305050387721	0.111950
H	0.3141337323828958 0.5411216837296250 0.2541579679005043	0.126882
H	0.6356262431839086 0.0803544873830991 0.8966854827021911	0.111817
H	0.5361246301825178 0.0799949015336208 0.8959910520156623	0.106730
H	0.5388237480484185 0.4136551876152715 0.7372794184041447	0.106405
H	0.5411033024165012 0.3137871811777898 0.7452601518132098	0.127263
H	0.0803533444641630 0.6356240309175387 0.1032376105683967	0.111711
H	0.0799963484952950 0.5361228041179101 0.1039142338574672	0.106740
H	0.4611762519515814 0.5863448503847244 0.7372794184041447	0.106405
H	0.4588967355834950 0.6862128378222158 0.7452601518132098	0.127263
H	0.9196466555358368 0.3643760070824573 0.1032376105683967	0.111711
H	0.9200036325047068 0.4638771958820898 0.1039142338574672	0.106740
H	0.4136551876152715 0.4611762519515814 0.7372794184041447	0.106405
H	0.3137871811777898 0.4588967355834950 0.7452601518132098	0.127263
H	0.6356240309175387 0.9196466555358368 0.1032376105683967	0.111711
H	0.5361228041179101 0.9200036325047068 0.1039142338574672	0.106740
H	0.5863448503847244 0.5388237480484185 0.7372794184041447	0.106405
H	0.6862128378222158 0.5411033024165012 0.7452601518132098	0.127263
H	0.3643760070824573 0.0803533444641630 0.1032376105683967	0.111711
H	0.4638771958820898 0.0799963484952950 0.1039142338574672	0.106740
H	0.5803533064641672 0.8643759690824613 0.6032376345683986	0.111711
H	0.5799963294952971 0.9638771578820938 0.6039142498574684	0.106740
H	0.0388237500484187 0.0863448123847286 0.2372794184041445	0.106405
H	0.0411032644165050 0.1862128188222102 0.2452601518132097	0.127263
H	0.4196466555358370 0.1356240019175398 0.6032376345683986	0.111711
H	0.4200036705047032 0.0361228211179080 0.6039142498574684	0.106740
H	0.9611762899515847 0.9136551876152716 0.2372794184041445	0.106405
H	0.9588967355834949 0.8137872001777874 0.2452601518132097	0.127263
H	0.1356240019175398 0.5803533064641672 0.6032376345683986	0.111711
H	0.0361228211179080 0.5799963294952971 0.6039142498574684	0.106740
H	0.9136551876152716 0.0388237500484187 0.2372794184041445	0.106405
H	0.8137872001777874 0.0411032644165050 0.2452601518132097	0.127263
H	0.8643759690824613 0.4196466555358370 0.6032376345683986	0.111711
H	0.9638771578820938 0.4200036705047032 0.6039142498574684	0.106740
H	0.0863448123847286 0.9611762899515847 0.2372794184041445	0.106405
H	0.1862128188222102 0.9588967355834949 0.2452601518132097	0.127263
H	0.4196455126169008 0.8643737568160914 0.3966854507021883	0.111817
H	0.4200051174663773 0.9638753318174862 0.3959911160156608	0.106730
H	0.9621165762625791 0.0857219441193234 0.7619305210387736	0.111950
H	0.9588783542703710 0.1858662676171044 0.7541579359005089	0.126882
H	0.5803544493831029 0.1356262141839094 0.3966854507021883	0.111817
H	0.5799948825336225 0.0361246471825156 0.3959911160156608	0.106730
H	0.0378834637374242 0.9142780558806767 0.7619305210387736	0.111950
H	0.0411216457296290 0.8141337513828933 0.7541579359005089	0.126882
H	0.8643737568160914 0.5803544493831029 0.3966854507021883	0.111817
H	0.9638753318174862 0.5799948825336225 0.3959911160156608	0.106730
H	0.0857219441193234 0.0378834637374242 0.7619305210387736	0.111950
H	0.1858662676171044 0.0411216457296290 0.7541579359005089	0.126882
H	0.1356262141839094 0.4196455126169008 0.3966854507021883	0.111817
H	0.0361246471825156 0.4200051174663773 0.3959911160156608	0.106730
H	0.9142780558806767 0.9621165762625791 0.7619305210387736	0.111950
H	0.8141337513828933 0.9588783542703710 0.7541579359005089	0.126882
Cu	0.5000000000000000 0.5000000000000000 0.5022094134511300	0.768097
Cu	-0.0000000000000000 0.0000000000000000 0.0022094134511298	0.768097
V	0.5000000000000000 0.5000000000000000 -0.0163277330031997	2.268268
V	-0.0000000000000000 0.0000000000000000 0.4836722669968003	2.268268
F	0.5000000000000000 0.5000000000000000 0.2354221513487389	-0.646098
F	-0.0000000000000000 0.0000000000000000 0.7354221033487348	-0.646098
F	0.5535021808084382 0.5520937440561260 0.0058002204692491	-0.590772
F	0.0520937160561305 0.0535021528084428 0.5058002204692492	-0.590772
F	0.4464978571915580 0.4479062939438703 0.0058002204692491	-0.590772
F	0.9479062559438740 0.9464978191915618 0.5058002204692492	-0.590772
F	0.4479062939438703 0.5535021808084382 0.0058002204692491	-0.590772
F	0.9464978191915618 0.0520937160561305 0.5058002204692492	-0.590772
F	0.5520937440561260 0.4464978571915580 0.0058002204692491	-0.590772
F	0.0535021528084428 0.9479062559438740 0.5058002204692492	-0.590772
O	0.5000000000000000 0.5000000000000000 0.7717036193234023	-0.855319
O	-0.0000000000000000 0.0000000000000000 0.2717035873233996	-0.855319
N	0.5002883324758977 0.4174438056856582 0.4999473569417434	-0.218122
N	-0.0002883324758978 0.9174438436856618 -0.0000526430582567	-0.218122
N	0.4997116675241022 0.5825561943143414 0.4999473569417434	-0.218122
N	0.0002883324758978 0.0825561663143395 -0.0000526430582567	-0.218122
N	0.5825561943143414 0.5002883324758977 0.4999473569417434	-0.218122
N	0.0825561663143395 -0.0002883324758978 -0.0000526430582567	-0.218122
N	0.4174438056856582 0.4997116675241022 0.4999473569417434	-0.218122
N	0.9174438436856618 0.0002883324758978 -0.0000526430582567	-0.218122
	  	
