#======================================================================

# CRYSTAL DATA

#----------------------------------------------------------------------

data_VESTA_phase_1


_pd_phase_name                         VOFFIVE_18_Cu
_cell_length_a                         13.62729
_cell_length_b                         13.91436
_cell_length_c                         8.36124
_cell_angle_alpha                      89.82327
_cell_angle_beta                       94.36511
_cell_angle_gamma                      90.15718
_symmetry_space_group_name_H-M         P 1
_symmetry_Int_Tables_number            1

loop_
_symmetry_equiv_pos_as_xyz
   x, y, z

loop_
   _atom_site_label
   _atom_site_fract_x
   _atom_site_fract_y
   _atom_site_fract_z
   _atom_site_charge
F	0.3813233655802182 0.3898778263755360 0.5120750066797571	-0.563686
F	0.5158445305050210 0.4651765806254093 0.7202918260061377	-0.645245
F	0.4202810223762278 0.5722711819409522 0.5192292354182857	-0.558135
F	0.8813234325802197 0.8898777923755404 0.5120750066797571	-0.563686
F	0.0158445035050218 0.9651765116254150 0.7202918260061377	-0.645243
F	0.9202809553762266 0.0722712029409502 0.5192292354182857	-0.558137
F	0.5605734277933103 0.3459537014910401 0.4879421897671336	-0.580846
F	0.6124296486728735 0.5294006823692168 0.4908748688884994	-0.567771
F	0.0605734537933126 0.8459536674910454 0.4879421897671336	-0.580847
F	0.1124296406728734 0.0294007033692147 0.4908748688884994	-0.567770
O	0.4773851881648923 0.4727216803257838 0.2838187616941976	-0.803338
O	0.9773851551648931 0.9727216113257882 0.2838187616941976	-0.803336
C	0.7000008418251608 0.1689126925755989 0.6538114586114757	-0.431123
C	0.7683347409364873 0.1575774815328738 0.7999419615728277	0.213948
C	0.7691769409826932 0.2002342661813693 0.9517069370219376	-0.151390
C	0.6961305295946463 0.2647611830938451 0.0112693958299286	-0.142906
C	0.6752041317182519 0.3611904839321670 0.9653819569585623	0.225898
C	0.7268664797679306 0.4216783224502918 0.8507905076134080	-0.435397
C	0.8925573370003516 0.1912672685354305 0.2049401211826322	-0.439595
C	0.8543661706819139 0.1644796417550211 0.0397874726809421	0.214698
C	0.6321293476292043 0.2426994655691931 0.1298761111152415	0.216117
C	0.6182102848435332 0.1533768418278164 0.2239483553886423	-0.427163
C	0.2000008588251590 0.6689127265755946 0.6538114586114757	-0.431129
C	0.2683347749364832 0.6575775155328760 0.7999419615728277	0.213946
C	0.2691769919826945 0.7002343001813655 0.9517069370219376	-0.151376
C	0.1961305635946426 0.7647611830938443 0.0112693958299286	-0.142930
C	0.1752041067182465 0.8611905179321696 0.9653819569585623	0.225857
C	0.2268665297679278 0.9216783564502876 0.8507905076134080	-0.435303
C	0.3925572700003488 0.6912672515354250 0.2049401211826322	-0.439594
C	0.3543662376819162 0.6644796417550209 0.0397874726809421	0.214692
C	0.1321293476292119 0.7426994825691914 0.1298761111152415	0.216121
C	0.1182102258435389 0.6533768588278136 0.2239483553886423	-0.427158
C	0.3043817500432747 0.1724625850874855 0.3450678771621966	-0.426120
C	0.2348689419409218 0.1581270925494843 0.2010292356441874	0.207610
C	0.2324998292438647 0.1985811390833712 0.0470401278046340	-0.145072
C	0.3038859356698951 0.2652148346345224 0.9870497814340634	-0.146878
C	0.3221941801794058 0.3614058904823352 0.0359232312314525	0.220698
C	0.2655637818785823 0.4205063622771534 0.1449783296825693	-0.426576
C	0.1088748840410555 0.1819454442515497 0.7943101468461297	-0.441767
C	0.1477699879231683 0.1597790193755122 0.9615615236813281	0.215384
C	0.3701751882033902 0.2463348585064463 0.8704653466412969	0.215948
C	0.3869344073214582 0.1588253955084853 0.7743975377493010	-0.426905
C	0.8043817830432733 0.6724626190874808 0.3450678771621966	-0.426122
C	0.7348689749409207 0.6581271265494869 0.2010292356441874	0.207612
C	0.7324998632438674 0.6985811730833666 0.0470401278046340	-0.145076
C	0.8038859696698973 0.7652148346345229 0.9870497814340634	-0.146876
C	0.8221941461794108 0.8614059244823380 0.0359232312314525	0.220698
C	0.7655638498785807 0.9205063962771486 0.1449783296825693	-0.426576
C	0.6088748210410537 0.6819454272515448 0.7943101468461297	-0.441763
C	0.6477700389231683 0.6597790193755119 0.9615615236813281	0.215384
C	0.8701751882033902 0.7463348755064444 0.8704653466412970	0.215949
C	0.8869343403214562 0.6588254125084835 0.7743975377493010	-0.426935
H	0.7410172827486069 0.1736374933245962 0.5460547587139107	0.150434
H	0.6556297979738058 0.2341385656969314 0.6604427020617065	0.157018
H	0.6497622686961704 0.1069822610762914 0.6382675624117422	0.134356
H	0.6756659124753707 0.4505986862841154 0.7551827240223501	0.158430
H	0.7829366721126119 0.3785798739235786 0.7969073229803697	0.135921
H	0.7635674505850497 0.4827366126240955 0.9138631917789100	0.130868
H	0.8771581451818703 0.0676244920812171 0.7078532695181962	0.287048
H	0.8803208587226440 0.1351637193054437 0.2937934546217517	0.152586
H	0.8559906577190384 0.2570960441208838 0.2409462044715684	0.135605
H	0.9722539230750952 0.2041845638814652 0.2108931227805144	0.146005
H	0.5820401718158195 0.1693496143417354 0.3335683845794579	0.148795
H	0.6890239612918170 0.1187717304587794 0.2575852829327340	0.149613
H	0.5723552693417888 0.1011604759948806 0.1532571586027269	0.135568
H	0.5320101584186110 0.3366615218119531 0.2348783069249116	0.274465
H	0.2410172487486109 0.6736374933245962 0.5460547587139107	0.150436
H	0.1556298069738027 0.7341385146969314 0.6604427020617065	0.157020
H	0.1497622426961674 0.6069822440762935 0.6382675624117422	0.134359
H	0.1756659464753671 0.9505987202841182 0.7551827240223501	0.158392
H	0.2829367221126087 0.8785799079235828 0.7969073229803697	0.135918
H	0.2635674505850488 0.9827365776240879 0.9138631917789100	0.130861
H	0.3771582121818728 0.5676244830812200 0.7078532695181962	0.287049
H	0.3803208587226440 0.6351637193054441 0.2937934546217517	0.152585
H	0.3559906577190382 0.7570960091208836 0.2409462044715684	0.135608
H	0.4722539230750954 0.7041845808814637 0.2108931227805144	0.146007
H	0.0820401508158217 0.6693496313417339 0.3335683845794579	0.148793
H	0.1890240112918142 0.6187717224587861 0.2575852829327340	0.149613
H	0.0723552313417858 0.6011604239948767 0.1532571586027269	0.135566
H	0.0320101444186095 0.8366615568119520 0.2348783069249116	0.274466
H	0.2645248514250405 0.1810916908228457 0.4533519953801937	0.151118
H	0.3492566804185340 0.2370243502303474 0.3314955749706835	0.148009
H	0.3539611086929980 0.1104878852401708 0.3651357393409136	0.134481
H	0.3140863636488977 0.4610043498186608 0.2308801416598140	0.148723
H	0.2178027602382798 0.3743203993389685 0.2118681374819535	0.139187
H	0.2189484150607443 0.4721949607157284 0.0744717026356559	0.130702
H	0.1333841853379709 0.0616646709003684 0.2993123210936298	0.283382
H	0.1075694231068492 0.1186123346566711 0.7162279476766812	0.154406
H	0.1547410395258224 0.2376597956652456 0.7439783147626626	0.135466
H	0.0329402396379934 0.2086346488067878 0.7915450787782129	0.145888
H	0.4240097837902341 0.1775667814314068 0.6664606601515917	0.148101
H	0.3171103569359324 0.1229153701017374 0.7375257729429978	0.150591
H	0.4332865519877098 0.1067195102164987 0.8444797805807740	0.135020
H	0.4720921485629085 0.3477922127312256 0.7761805319467965	0.283698
H	0.7645248854250438 0.6810916908228456 0.4533519953801938	0.151119
H	0.8492566804185342 0.7370242992303465 0.3314955749706835	0.148008
H	0.8539610756929987 0.6104878682401729 0.3651357393409136	0.134481
H	0.8140863966488963 0.9610043838186639 0.2308801416598140	0.148721
H	0.7178027942382825 0.8743204333389714 0.2118681374819535	0.139186
H	0.7189483980607463 0.9721949257157220 0.0744717026356559	0.130702
H	0.6333842273379741 0.5616646619003712 0.2993123210936298	0.283382
H	0.6075694651068524 0.6186123346566712 0.7162279476766812	0.154405
H	0.6547410565258205 0.7376597606652461 0.7439783147626626	0.135468
H	0.5329402186379947 0.7086346658067852 0.7915450787782129	0.145887
H	0.9240097837902340 0.6775667984314045 0.6664606601515917	0.148106
H	0.8171104249359301 0.6229153621017438 0.7375257729429978	0.150596
H	0.9332865519877094 0.6067194582164939 0.8444797805807740	0.135041
H	0.9720921485629079 0.8477922477312250 0.7761805319467965	0.283696
N	0.8471669266261967 0.0988447833489062 0.8045965928268641	-0.145682
N	0.6017369579295015 0.3944791975723583 0.0491772430560489	-0.236346
N	0.9004938487815483 0.1025314239344745 0.9477761320263440	-0.234002
N	0.5771758395520828 0.3217592533717902 0.1464625288390803	-0.144287
N	0.3471668596261945 0.5988447663489022 0.8045965928268641	-0.145684
N	0.1017369749294987 0.8944792325723574 0.0491772430560489	-0.236346
N	0.4004938147815448 0.6025314579344699 0.9477761320263440	-0.233998
N	0.0771758395520832 0.8217592533717900 0.1464625288390803	-0.144287
N	0.1568304042107788 0.0981554771722742 0.2010131561207978	-0.145321
N	0.3965593270968362 0.3972702931466143 0.9564667857295527	-0.234039
N	0.1032015202504415 0.0983946786663265 0.0577298111536634	-0.236181
N	0.4237702880079403 0.3269085120895556 0.8580921579583883	-0.143494
N	0.6568304042107791 0.5981554601722691 0.2010131561207978	-0.145320
N	0.8965593270968362 0.8972703281466139 0.9564667857295527	-0.234040
N	0.6032015452504403 0.5983947126663219 0.0577298111536634	-0.236181
N	0.9237702880079413 0.8269085120895558 0.8580921579583883	-0.143493
V	0.4917602343740518 0.4610713360458784 0.4803794528601228	2.223248
V	-0.0082397636259479 0.9610714050458734 0.4803794528601228	2.223250
Cu	0.4998953051246947 0.5001784827113187 0.0043900013189643	0.740230
Cu	-0.0001046948753046 0.0001784867113194 0.0043900013189643	0.740232
	  	
