#======================================================================

# CRYSTAL DATA

#----------------------------------------------------------------------

data_VESTA_phase_1


_pd_phase_name                         VOFFIVE_2_Zn
_cell_length_a                         13.97743
_cell_length_b                         13.97743
_cell_length_c                         7.77511
_cell_angle_alpha                      90
_cell_angle_beta                       90
_cell_angle_gamma                      90
_symmetry_space_group_name_H-M         P 1
_symmetry_Int_Tables_number            1

loop_
_symmetry_equiv_pos_as_xyz
   x, y, z

loop_
   _atom_site_label
   _atom_site_fract_x
   _atom_site_fract_y
   _atom_site_fract_z
   _atom_site_charge
C	0.5326521404824871 0.7041059748099942 0.1376045892045865	0.102641
C	0.5332445376212609 0.8034272352612268 0.1429806131434948	-0.169824
C	0.4673478595175127 0.2958940601900052 0.1376045892045865	0.102639
C	0.4667554623787390 0.1965727997387726 0.1429806131434948	-0.169822
C	0.2958940601900052 0.5326521404824871 0.1376045892045865	0.102642
C	0.1965727997387726 0.5332445376212609 0.1429806131434948	-0.169824
C	0.7041059748099942 0.4673478595175127 0.1376045892045865	0.102639
C	0.8034272352612268 0.4667554623787390 0.1429806131434948	-0.169821
C	0.4682657283756232 0.7033831104549731 0.8622516713987480	0.101875
C	0.4669941290112786 0.8027669912405171 0.8563636576917535	-0.167841
C	0.5317342716243766 0.2966169245450261 0.8622516713987480	0.101879
C	0.5330058709887213 0.1972330437594822 0.8563636576917535	-0.167838
C	0.7033831104549731 0.5317342716243766 0.8622516713987480	0.101873
C	0.8027669912405171 0.5330058709887213 0.8563636576917535	-0.167838
C	0.2966169245450261 0.4682657283756232 0.8622516713987480	0.101881
C	0.1972330437594822 0.4669941290112786 0.8563636576917535	-0.167840
C	0.5000731136310822 0.1449372976341090 -0.0005964266670939	0.168722
C	0.5001571018248228 0.0436196072042521 -0.0008909224950420	-0.094054
C	0.4999268863689170 0.8550627023658910 -0.0005964266670939	0.168691
C	0.4998428981751776 0.9563803847957475 -0.0008909224950420	-0.093808
C	0.8550627023658910 0.5000731136310822 -0.0005964266670939	0.168722
C	0.9563803847957475 0.5001571018248228 -0.0008909224950420	-0.094054
C	0.1449372976341090 0.4999268863689170 -0.0005964266670939	0.168691
C	0.0436196072042521 0.4998428981751776 -0.0008909224950420	-0.093808
H	0.5579430010990691 0.6620712025510980 0.2467759017662198	0.098825
H	0.5593708742995280 0.8407363652218834 0.2566208831508834	0.126637
H	0.4420569989009310 0.3379287274488961 0.2467759017662198	0.098825
H	0.4406291257004719 0.1592636347781167 0.2566208831508834	0.126638
H	0.3379287274488961 0.5579430010990691 0.2467759017662198	0.098825
H	0.1592636347781167 0.5593708742995280 0.2566208831508834	0.126637
H	0.6620712025510980 0.4420569989009310 0.2467759017662198	0.098825
H	0.8407363652218834 0.4406291257004719 0.2566208831508834	0.126638
H	0.4437614148378748 0.6605224315821552 0.7533789413849025	0.106212
H	0.4406854869857252 0.8396873128101224 0.7424309048894012	0.126040
H	0.5562385851621252 0.3394774984178388 0.7533789413849025	0.106208
H	0.5593145130142753 0.1603126871898776 0.7424309048894012	0.126042
H	0.6605224315821552 0.5562385851621252 0.7533789413849025	0.106212
H	0.8396873128101224 0.5593145130142753 0.7424309048894012	0.126042
H	0.3394774984178388 0.4437614148378748 0.7533789413849025	0.106208
H	0.1603126871898776 0.4406854869857252 0.7424309048894012	0.126041
Zn	0.5000000000000000 0.5000000000000000 0.0004933277105238	0.771511
V	0.5000000000000000 0.5000000000000000 0.4805388998387081	2.258176
F	0.5000000000000000 0.5000000000000000 0.7397635041486472	-0.614347
F	0.5922797415074528 0.5944092857059469 0.5057341032463352	-0.576611
F	0.4055907492940526 0.5922797415074528 0.5057341032463352	-0.576611
F	0.4077202934925466 0.4055907492940526 0.5057341032463352	-0.576611
F	0.5944092857059469 0.4077202934925466 0.5057341032463352	-0.576611
O	0.5000000000000000 0.5000000000000000 0.2674584059145763	-0.820654
N	0.4994348176414095 0.3451622675312457 0.0002825788826994	-0.221407
N	0.5005651823585908 0.6548377674687534 0.0002825788826994	-0.221405
N	0.6548377674687534 0.4994348176414095 0.0002825788826994	-0.221405
N	0.3451622675312457 0.5005651823585908 0.0002825788826994	-0.221406
	  	
