#======================================================================

# CRYSTAL DATA

#----------------------------------------------------------------------

data_VESTA_phase_1


_pd_phase_name                         VOFFIVE_2_Cu
_cell_length_a                         13.73078
_cell_length_b                         13.73078
_cell_length_c                         7.95110
_cell_angle_alpha                      90
_cell_angle_beta                       90
_cell_angle_gamma                      90
_symmetry_space_group_name_H-M         P 1
_symmetry_Int_Tables_number            1

loop_
_symmetry_equiv_pos_as_xyz
   x, y, z

loop_
   _atom_site_label
   _atom_site_fract_x
   _atom_site_fract_y
   _atom_site_fract_z
   _atom_site_charge
C	0.5316886563163934 0.6987254585123950 0.1355821062130649	0.099969
C	0.5323364493937823 0.7997354817210137 0.1406474418668908	-0.164621
C	0.4683113436836067 0.3012745764876042 0.1355821062130649	0.099967
C	0.4676635506062176 0.2002645532789858 0.1406474418668908	-0.164618
C	0.3012745764876042 0.5316886563163934 0.1355821062130649	0.099969
C	0.2002645532789858 0.5323364493937823 0.1406474418668908	-0.164621
C	0.6987254585123950 0.4683113436836067 0.1355821062130649	0.099967
C	0.7997354817210137 0.4676635506062176 0.1406474418668908	-0.164618
C	0.4686819360649163 0.6982674394772748 0.8637446147134911	0.100318
C	0.4676500989701258 0.7993797694741425 0.8587574008415392	-0.164175
C	0.5313180639350839 0.3017325955227244 0.8637446147134911	0.100316
C	0.5323499010298742 0.2006202655258569 0.8587574008415392	-0.164173
C	0.6982674394772748 0.5313180639350839 0.8637446147134911	0.100316
C	0.7993797694741425 0.5323499010298742 0.8587574008415392	-0.164173
C	0.3017325955227244 0.4686819360649163 0.8637446147134911	0.100319
C	0.2006202655258569 0.4676500989701258 0.8587574008415392	-0.164175
C	0.5001233648418560 0.1474641280945839 -0.0003736557446735	0.169356
C	0.5001118885108409 0.0443877319626969 -0.0005257279473870	-0.092843
C	0.4998766351581438 0.8525358719054160 -0.0003736557446735	0.169325
C	0.4998881114891593 0.9556122600373023 -0.0005257279473870	-0.092596
C	0.8525358719054160 0.5001233648418560 -0.0003736557446735	0.169356
C	0.9556122600373023 0.5001118885108409 -0.0005257279473870	-0.092843
C	0.1474641280945839 0.4998766351581438 -0.0003736557446735	0.169325
C	0.0443877319626969 0.4998881114891593 -0.0005257279473870	-0.092596
H	0.5561688657788478 0.6558816006880350 0.2430848239568094	0.104899
H	0.5581549248722918 0.8370129596213587 0.2528665864001490	0.129522
H	0.4438311342211521 0.3441183293119590 0.2430848239568094	0.104899
H	0.4418450751277081 0.1629870403786416 0.2528665864001490	0.129523
H	0.3441183293119590 0.5561688657788478 0.2430848239568094	0.104899
H	0.1629870403786416 0.5581549248722918 0.2528665864001490	0.129522
H	0.6558816006880350 0.4438311342211521 0.2430848239568094	0.104899
H	0.8370129596213587 0.4418450751277081 0.2528665864001490	0.129523
H	0.4450491684538793 0.6546859232723400 0.7563778679860375	0.111861
H	0.4418915520565600 0.8367440881586714 0.7466069430433807	0.129016
H	0.5549508315461208 0.3453140067276544 0.7563778679860375	0.111861
H	0.5581084479434403 0.1632559118413286 0.7466069430433807	0.129017
H	0.6546859232723400 0.5549508315461208 0.7563778679860375	0.111861
H	0.8367440881586714 0.5581084479434403 0.7466069430433807	0.129017
H	0.3453140067276544 0.4450491684538793 0.7563778679860375	0.111861
H	0.1632559118413286 0.4418915520565600 0.7466069430433807	0.129016
Cu	0.5000000000000000 0.5000000000000000 -0.0001503954983002	0.738023
V	0.5000000000000000 0.5000000000000000 0.4825912404580566	2.257150
F	0.5000000000000000 0.5000000000000000 0.7324568926156635	-0.646639
F	0.5950597397073016 0.5961181213574361 0.5059022320399548	-0.586825
F	0.4038819136425634 0.5950597397073016 0.5059022320399548	-0.586825
F	0.4049402952926976 0.4038819136425634 0.5059022320399548	-0.586825
F	0.5961181213574361 0.4049402952926976 0.5059022320399548	-0.586825
O	0.5000000000000000 0.5000000000000000 0.2748057659007296	-0.845420
N	0.4997756739785155 0.3510219839648714 -0.0000964792382919	-0.212366
N	0.5002243260214844 0.6489780510351278 -0.0000964792382919	-0.212365
N	0.6489780510351278 0.4997756739785155 -0.0000964792382919	-0.212366
N	0.3510219839648714 0.5002243260214844 -0.0000964792382919	-0.212365
	  	
